MODEL 1
REMARK VINA RESULT:      -7.6      0.000      0.000
REMARK  4 active torsions:
REMARK  status: ('A' for Active; 'I' for Inactive)
REMARK    1  A    between atoms: C_2  and  N_28 
REMARK       I    between atoms: C_3  and  N_29 
REMARK    2  A    between atoms: C_6  and  C_13 
REMARK    3  A    between atoms: C_9  and  N_27 
REMARK    4  A    between atoms: C_13  and  N_27 
ROOT
HETATM    1  C   UNK N   1      31.729  17.186   6.951  0.00  0.00     0.059 A 
HETATM    2  C   UNK N   1      31.674  17.238   8.369  0.00  0.00     0.129 A 
HETATM    3  C   UNK N   1      33.973  17.799   8.456  0.00  0.00     0.679 A 
HETATM    4  C   UNK N   1      32.974  17.467   6.341  0.00  0.00     0.135 A 
HETATM    5  C   UNK N   1      30.627  16.858   6.114  0.00  0.00    -0.035 A 
HETATM    6  C   UNK N   1      30.812  16.821   4.714  0.00  0.00    -0.018 A 
HETATM    7  C   UNK N   1      32.064  17.113   4.181  0.00  0.00     0.099 A 
HETATM    8  C   UNK N   1      29.285  16.522   6.681  0.00  0.00     0.050 C 
HETATM    9  N   UNK N   1      32.794  17.540   9.074  0.00  0.00    -0.176 N 
ATOM     10  HN  UNK N   1      32.749  17.572  10.092  1.00  0.00     0.186 HD
HETATM   11  N   UNK N   1      34.056  17.765   7.104  0.00  0.00    -0.176 N 
ATOM     12  HN  UNK N   1      34.948  17.967   6.652  1.00  0.00     0.186 HD
HETATM   13  N   UNK N   1      33.103  17.431   4.991  0.00  0.00    -0.350 N 
ATOM     14  HN  UNK N   1      34.008  17.650   4.574  1.00  0.00     0.166 HD
HETATM   15  N   UNK N   1      35.116  18.099   9.222  0.00  0.00    -0.234 N 
HETATM   16  H   UNK N   1      35.924  18.455   8.785  0.00  0.00     0.174 HD
HETATM   17  H   UNK N   1      35.108  17.951  10.195  0.00  0.00     0.174 HD
ENDROOT
BRANCH   6  18
HETATM   18  C   UNK N   1      29.733  16.397   3.768  0.00  0.00     0.160 C 
BRANCH  18  19
HETATM   19  N   UNK N   1      28.977  17.506   3.246  0.00  0.00    -0.385 N 
HETATM   20  H   UNK N   1      29.391  18.156   2.632  0.00  0.00     0.160 HD
BRANCH  19  21
HETATM   21  C   UNK N   1      27.626  17.637   3.641  0.00  0.00     0.040 A 
HETATM   22  C   UNK N   1      26.696  16.657   3.273  0.00  0.00     0.030 A 
HETATM   23  C   UNK N   1      25.370  16.742   3.716  0.00  0.00     0.005 A 
HETATM   24  C   UNK N   1      24.969  17.798   4.539  0.00  0.00     0.030 A 
HETATM   25  C   UNK N   1      25.887  18.781   4.913  0.00  0.00     0.044 A 
HETATM   26  C   UNK N   1      27.222  18.706   4.461  0.00  0.00     0.017 A 
HETATM   27  N   UNK N   1      25.501  19.805   5.722  0.00  0.00    -0.365 N 
HETATM   28  C   UNK N   1      28.124  19.698   4.855  0.00  0.00     0.017 A 
HETATM   29  C   UNK N   1      27.701  20.738   5.679  0.00  0.00     0.018 A 
HETATM   30  C   UNK N   1      26.375  20.774   6.110  0.00  0.00     0.088 A 
ATOM     31  HN  UNK N   1      24.534  19.846   6.046  1.00  0.00     0.165 HD
ENDBRANCH  19  21
ENDBRANCH  18  19
ENDBRANCH   6  18
BRANCH   2  32
HETATM   32  N   UNK N   1      30.484  16.974   9.081  0.00  0.00    -0.384 N 
HETATM   33  H   UNK N   1      30.029  16.107   8.989  0.00  0.00     0.157 HD
HETATM   34  H   UNK N   1      30.107  17.664   9.675  0.00  0.00     0.157 HD
ENDBRANCH   2  32
TORSDOF 4
ENDMDL
MODEL 2
REMARK VINA RESULT:      -7.6      3.419      5.321
REMARK  4 active torsions:
REMARK  status: ('A' for Active; 'I' for Inactive)
REMARK    1  A    between atoms: C_2  and  N_28 
REMARK       I    between atoms: C_3  and  N_29 
REMARK    2  A    between atoms: C_6  and  C_13 
REMARK    3  A    between atoms: C_9  and  N_27 
REMARK    4  A    between atoms: C_13  and  N_27 
ROOT
HETATM    1  C   UNK N   1      34.798  14.676  10.643  0.00  0.00     0.059 A 
HETATM    2  C   UNK N   1      34.884  13.482  11.407  0.00  0.00     0.129 A 
HETATM    3  C   UNK N   1      36.154  14.611  13.057  0.00  0.00     0.679 A 
HETATM    4  C   UNK N   1      35.426  15.829  11.169  0.00  0.00     0.135 A 
HETATM    5  C   UNK N   1      34.139  14.781   9.386  0.00  0.00    -0.035 A 
HETATM    6  C   UNK N   1      34.138  16.022   8.711  0.00  0.00    -0.018 A 
HETATM    7  C   UNK N   1      34.773  17.118   9.289  0.00  0.00     0.099 A 
HETATM    8  C   UNK N   1      33.475  13.604   8.748  0.00  0.00     0.050 C 
HETATM    9  N   UNK N   1      35.558  13.488  12.585  0.00  0.00    -0.176 N 
ATOM     10  HN  UNK N   1      35.619  12.627  13.129  1.00  0.00     0.186 HD
HETATM   11  N   UNK N   1      36.083  15.767  12.354  0.00  0.00    -0.176 N 
ATOM     12  HN  UNK N   1      36.531  16.606  12.723  1.00  0.00     0.186 HD
HETATM   13  N   UNK N   1      35.390  17.003  10.490  0.00  0.00    -0.350 N 
ATOM     14  HN  UNK N   1      35.841  17.824  10.896  1.00  0.00     0.166 HD
HETATM   15  N   UNK N   1      36.852  14.574  14.280  0.00  0.00    -0.234 N 
HETATM   16  H   UNK N   1      37.136  15.413  14.712  0.00  0.00     0.174 HD
HETATM   17  H   UNK N   1      37.059  13.710  14.702  0.00  0.00     0.174 HD
ENDROOT
BRANCH   6  18
HETATM   18  C   UNK N   1      33.550  16.198   7.346  0.00  0.00     0.160 C 
BRANCH  18  19
HETATM   19  N   UNK N   1      32.674  17.337   7.255  0.00  0.00    -0.385 N 
HETATM   20  H   UNK N   1      32.993  18.240   7.485  0.00  0.00     0.160 HD
BRANCH  19  21
HETATM   21  C   UNK N   1      31.344  17.123   6.828  0.00  0.00     0.040 A 
HETATM   22  C   UNK N   1      31.099  16.486   5.606  0.00  0.00     0.030 A 
HETATM   23  C   UNK N   1      29.786  16.208   5.206  0.00  0.00     0.005 A 
HETATM   24  C   UNK N   1      28.711  16.553   6.030  0.00  0.00     0.030 A 
HETATM   25  C   UNK N   1      28.943  17.188   7.252  0.00  0.00     0.044 A 
HETATM   26  C   UNK N   1      30.263  17.480   7.655  0.00  0.00     0.017 A 
HETATM   27  N   UNK N   1      27.898  17.516   8.060  0.00  0.00    -0.365 N 
HETATM   28  C   UNK N   1      30.468  18.109   8.885  0.00  0.00     0.017 A 
HETATM   29  C   UNK N   1      29.381  18.439   9.691  0.00  0.00     0.018 A 
HETATM   30  C   UNK N   1      28.091  18.129   9.261  0.00  0.00     0.088 A 
ATOM     31  HN  UNK N   1      26.947  17.296   7.760  1.00  0.00     0.165 HD
ENDBRANCH  19  21
ENDBRANCH  18  19
ENDBRANCH   6  18
BRANCH   2  32
HETATM   32  N   UNK N   1      34.294  12.275  10.977  0.00  0.00    -0.384 N 
HETATM   33  H   UNK N   1      34.159  12.099  10.018  0.00  0.00     0.157 HD
HETATM   34  H   UNK N   1      34.017  11.603  11.641  0.00  0.00     0.157 HD
ENDBRANCH   2  32
TORSDOF 4
ENDMDL
MODEL 3
REMARK VINA RESULT:      -7.4      3.342      5.341
REMARK  4 active torsions:
REMARK  status: ('A' for Active; 'I' for Inactive)
REMARK    1  A    between atoms: C_2  and  N_28 
REMARK       I    between atoms: C_3  and  N_29 
REMARK    2  A    between atoms: C_6  and  C_13 
REMARK    3  A    between atoms: C_9  and  N_27 
REMARK    4  A    between atoms: C_13  and  N_27 
ROOT
HETATM    1  C   UNK N   1      34.398  14.699  10.460  0.00  0.00     0.059 A 
HETATM    2  C   UNK N   1      34.636  13.503  11.188  0.00  0.00     0.129 A 
HETATM    3  C   UNK N   1      36.020  14.685  12.705  0.00  0.00     0.679 A 
HETATM    4  C   UNK N   1      35.016  15.880  10.933  0.00  0.00     0.135 A 
HETATM    5  C   UNK N   1      33.595  14.780   9.288  0.00  0.00    -0.035 A 
HETATM    6  C   UNK N   1      33.448  16.026   8.639  0.00  0.00    -0.018 A 
HETATM    7  C   UNK N   1      34.082  17.150   9.162  0.00  0.00     0.099 A 
HETATM    8  C   UNK N   1      32.930  13.574   8.708  0.00  0.00     0.050 C 
HETATM    9  N   UNK N   1      35.439  13.535  12.283  0.00  0.00    -0.176 N 
ATOM     10  HN  UNK N   1      35.609  12.672  12.801  1.00  0.00     0.186 HD
HETATM   11  N   UNK N   1      35.805  15.842  12.035  0.00  0.00    -0.176 N 
ATOM     12  HN  UNK N   1      36.244  16.702  12.366  1.00  0.00     0.186 HD
HETATM   13  N   UNK N   1      34.837  17.058  10.284  0.00  0.00    -0.350 N 
ATOM     14  HN  UNK N   1      35.284  17.899  10.651  1.00  0.00     0.166 HD
HETATM   15  N   UNK N   1      36.854  14.674  13.840  0.00  0.00    -0.234 N 
HETATM   16  H   UNK N   1      37.137  15.523  14.253  0.00  0.00     0.174 HD
HETATM   17  H   UNK N   1      37.155  13.818  14.220  0.00  0.00     0.174 HD
ENDROOT
BRANCH   6  18
HETATM   18  C   UNK N   1      32.700  16.183   7.353  0.00  0.00     0.160 C 
BRANCH  18  19
HETATM   19  N   UNK N   1      32.019  17.448   7.251  0.00  0.00    -0.385 N 
HETATM   20  H   UNK N   1      32.416  18.198   6.752  0.00  0.00     0.160 HD
BRANCH  19  21
HETATM   21  C   UNK N   1      30.764  17.581   7.887  0.00  0.00     0.040 A 
HETATM   22  C   UNK N   1      30.659  18.320   9.072  0.00  0.00     0.030 A 
HETATM   23  C   UNK N   1      29.409  18.516   9.673  0.00  0.00     0.005 A 
HETATM   24  C   UNK N   1      28.256  17.985   9.088  0.00  0.00     0.030 A 
HETATM   25  C   UNK N   1      28.348  17.246   7.907  0.00  0.00     0.044 A 
HETATM   26  C   UNK N   1      29.606  17.037   7.302  0.00  0.00     0.017 A 
HETATM   27  N   UNK N   1      27.225  16.737   7.331  0.00  0.00    -0.365 N 
HETATM   28  C   UNK N   1      29.670  16.301   6.117  0.00  0.00     0.017 A 
HETATM   29  C   UNK N   1      28.506  15.786   5.551  0.00  0.00     0.018 A 
HETATM   30  C   UNK N   1      27.280  16.018   6.175  0.00  0.00     0.088 A 
ATOM     31  HN  UNK N   1      26.320  16.898   7.774  1.00  0.00     0.165 HD
ENDBRANCH  19  21
ENDBRANCH  18  19
ENDBRANCH   6  18
BRANCH   2  32
HETATM   32  N   UNK N   1      34.071  12.269  10.806  0.00  0.00    -0.384 N 
HETATM   33  H   UNK N   1      34.647  11.508  10.567  0.00  0.00     0.157 HD
HETATM   34  H   UNK N   1      33.091  12.168  10.778  0.00  0.00     0.157 HD
ENDBRANCH   2  32
TORSDOF 4
ENDMDL
MODEL 4
REMARK VINA RESULT:      -7.3      7.923     11.266
REMARK  4 active torsions:
REMARK  status: ('A' for Active; 'I' for Inactive)
REMARK    1  A    between atoms: C_2  and  N_28 
REMARK       I    between atoms: C_3  and  N_29 
REMARK    2  A    between atoms: C_6  and  C_13 
REMARK    3  A    between atoms: C_9  and  N_27 
REMARK    4  A    between atoms: C_13  and  N_27 
ROOT
HETATM    1  C   UNK N   1      20.459  17.088   4.204  0.00  0.00     0.059 A 
HETATM    2  C   UNK N   1      20.781  18.268   3.482  0.00  0.00     0.129 A 
HETATM    3  C   UNK N   1      20.007  17.272   1.478  0.00  0.00     0.679 A 
HETATM    4  C   UNK N   1      19.893  16.017   3.475  0.00  0.00     0.135 A 
HETATM    5  C   UNK N   1      20.681  16.912   5.599  0.00  0.00    -0.035 A 
HETATM    6  C   UNK N   1      20.336  15.682   6.201  0.00  0.00    -0.018 A 
HETATM    7  C   UNK N   1      19.778  14.671   5.423  0.00  0.00     0.099 A 
HETATM    8  C   UNK N   1      21.301  17.985   6.435  0.00  0.00     0.050 C 
HETATM    9  N   UNK N   1      20.547  18.321   2.146  0.00  0.00    -0.176 N 
ATOM     10  HN  UNK N   1      20.783  19.170   1.632  1.00  0.00     0.186 HD
HETATM   11  N   UNK N   1      19.683  16.136   2.140  0.00  0.00    -0.176 N 
ATOM     12  HN  UNK N   1      19.273  15.356   1.626  1.00  0.00     0.186 HD
HETATM   13  N   UNK N   1      19.565  14.857   4.098  0.00  0.00    -0.350 N 
ATOM     14  HN  UNK N   1      19.147  14.103   3.553  1.00  0.00     0.166 HD
HETATM   15  N   UNK N   1      19.789  17.362   0.089  0.00  0.00    -0.234 N 
HETATM   16  H   UNK N   1      19.244  16.682  -0.370  0.00  0.00     0.174 HD
HETATM   17  H   UNK N   1      20.182  18.105  -0.423  0.00  0.00     0.174 HD
ENDROOT
BRANCH   6  18
HETATM   18  C   UNK N   1      20.620  15.380   7.639  0.00  0.00     0.160 C 
BRANCH  18  19
HETATM   19  N   UNK N   1      20.989  14.005   7.860  0.00  0.00    -0.385 N 
HETATM   20  H   UNK N   1      20.334  13.280   7.740  0.00  0.00     0.160 HD
BRANCH  19  21
HETATM   21  C   UNK N   1      22.318  13.727   8.253  0.00  0.00     0.040 A 
HETATM   22  C   UNK N   1      23.384  14.118   7.433  0.00  0.00     0.030 A 
HETATM   23  C   UNK N   1      24.705  13.909   7.845  0.00  0.00     0.005 A 
HETATM   24  C   UNK N   1      24.971  13.318   9.084  0.00  0.00     0.030 A 
HETATM   25  C   UNK N   1      23.917  12.924   9.911  0.00  0.00     0.044 A 
HETATM   26  C   UNK N   1      22.583  13.124   9.496  0.00  0.00     0.017 A 
HETATM   27  N   UNK N   1      24.174  12.359  11.122  0.00  0.00    -0.365 N 
HETATM   28  C   UNK N   1      21.547  12.727  10.345  0.00  0.00     0.017 A 
HETATM   29  C   UNK N   1      21.837  12.146  11.577  0.00  0.00     0.018 A 
HETATM   30  C   UNK N   1      23.168  11.970  11.954  0.00  0.00     0.088 A 
ATOM     31  HN  UNK N   1      25.143  12.223  11.413  1.00  0.00     0.165 HD
ENDBRANCH  19  21
ENDBRANCH  18  19
ENDBRANCH   6  18
BRANCH   2  32
HETATM   32  N   UNK N   1      21.350  19.397   4.110  0.00  0.00    -0.384 N 
HETATM   33  H   UNK N   1      22.133  19.299   4.698  0.00  0.00     0.157 HD
HETATM   34  H   UNK N   1      20.961  20.289   3.957  0.00  0.00     0.157 HD
ENDBRANCH   2  32
TORSDOF 4
ENDMDL
MODEL 5
REMARK VINA RESULT:      -7.3      6.631     11.321
REMARK  4 active torsions:
REMARK  status: ('A' for Active; 'I' for Inactive)
REMARK    1  A    between atoms: C_2  and  N_28 
REMARK       I    between atoms: C_3  and  N_29 
REMARK    2  A    between atoms: C_6  and  C_13 
REMARK    3  A    between atoms: C_9  and  N_27 
REMARK    4  A    between atoms: C_13  and  N_27 
ROOT
HETATM    1  C   UNK N   1      34.197  14.648   9.965  0.00  0.00     0.059 A 
HETATM    2  C   UNK N   1      33.034  14.526   9.159  0.00  0.00     0.129 A 
HETATM    3  C   UNK N   1      32.942  16.880   8.908  0.00  0.00     0.679 A 
HETATM    4  C   UNK N   1      34.690  15.954  10.199  0.00  0.00     0.135 A 
HETATM    5  C   UNK N   1      34.883  13.553  10.559  0.00  0.00    -0.035 A 
HETATM    6  C   UNK N   1      36.020  13.803  11.359  0.00  0.00    -0.018 A 
HETATM    7  C   UNK N   1      36.453  15.114  11.543  0.00  0.00     0.099 A 
HETATM    8  C   UNK N   1      34.411  12.145  10.385  0.00  0.00     0.050 C 
HETATM    9  N   UNK N   1      32.445  15.643   8.659  0.00  0.00    -0.176 N 
ATOM     10  HN  UNK N   1      31.608  15.550   8.083  1.00  0.00     0.186 HD
HETATM   11  N   UNK N   1      34.054  17.028   9.667  0.00  0.00    -0.176 N 
ATOM     12  HN  UNK N   1      34.420  17.964   9.842  1.00  0.00     0.186 HD
HETATM   13  N   UNK N   1      35.793  16.146  10.964  0.00  0.00    -0.350 N 
ATOM     14  HN  UNK N   1      36.137  17.097  11.108  1.00  0.00     0.166 HD
HETATM   15  N   UNK N   1      32.296  18.015   8.380  0.00  0.00    -0.234 N 
HETATM   16  H   UNK N   1      32.741  18.894   8.407  0.00  0.00     0.174 HD
HETATM   17  H   UNK N   1      31.400  17.930   7.983  0.00  0.00     0.174 HD
ENDROOT
BRANCH   6  18
HETATM   18  C   UNK N   1      36.744  12.720  12.094  0.00  0.00     0.160 C 
BRANCH  18  19
HETATM   19  N   UNK N   1      37.233  13.146  13.381  0.00  0.00    -0.385 N 
HETATM   20  H   UNK N   1      38.116  13.571  13.471  0.00  0.00     0.160 HD
BRANCH  19  21
HETATM   21  C   UNK N   1      36.407  12.937  14.509  0.00  0.00     0.040 A 
HETATM   22  C   UNK N   1      35.608  11.791  14.585  0.00  0.00     0.030 A 
HETATM   23  C   UNK N   1      34.839  11.541  15.728  0.00  0.00     0.005 A 
HETATM   24  C   UNK N   1      34.874  12.428  16.808  0.00  0.00     0.030 A 
HETATM   25  C   UNK N   1      35.667  13.576  16.744  0.00  0.00     0.044 A 
HETATM   26  C   UNK N   1      36.436  13.837  15.590  0.00  0.00     0.017 A 
HETATM   27  N   UNK N   1      35.710  14.435  17.798  0.00  0.00    -0.365 N 
HETATM   28  C   UNK N   1      37.227  14.988  15.555  0.00  0.00     0.017 A 
HETATM   29  C   UNK N   1      37.249  15.855  16.645  0.00  0.00     0.018 A 
HETATM   30  C   UNK N   1      36.479  15.559  17.770  0.00  0.00     0.088 A 
ATOM     31  HN  UNK N   1      35.153  14.233  18.629  1.00  0.00     0.165 HD
ENDBRANCH  19  21
ENDBRANCH  18  19
ENDBRANCH   6  18
BRANCH   2  32
HETATM   32  N   UNK N   1      32.458  13.273   8.863  0.00  0.00    -0.384 N 
HETATM   33  H   UNK N   1      31.582  13.026   9.235  0.00  0.00     0.157 HD
HETATM   34  H   UNK N   1      32.936  12.642   8.278  0.00  0.00     0.157 HD
ENDBRANCH   2  32
TORSDOF 4
ENDMDL
MODEL 6
REMARK VINA RESULT:      -7.3      0.672      2.136
REMARK  4 active torsions:
REMARK  status: ('A' for Active; 'I' for Inactive)
REMARK    1  A    between atoms: C_2  and  N_28 
REMARK       I    between atoms: C_3  and  N_29 
REMARK    2  A    between atoms: C_6  and  C_13 
REMARK    3  A    between atoms: C_9  and  N_27 
REMARK    4  A    between atoms: C_13  and  N_27 
ROOT
HETATM    1  C   UNK N   1      31.428  17.229   7.067  0.00  0.00     0.059 A 
HETATM    2  C   UNK N   1      31.453  17.239   8.486  0.00  0.00     0.129 A 
HETATM    3  C   UNK N   1      33.784  17.660   8.458  0.00  0.00     0.679 A 
HETATM    4  C   UNK N   1      32.652  17.456   6.395  0.00  0.00     0.135 A 
HETATM    5  C   UNK N   1      30.263  16.994   6.284  0.00  0.00    -0.035 A 
HETATM    6  C   UNK N   1      30.369  16.991   4.876  0.00  0.00    -0.018 A 
HETATM    7  C   UNK N   1      31.606  17.225   4.280  0.00  0.00     0.099 A 
HETATM    8  C   UNK N   1      28.937  16.720   6.916  0.00  0.00     0.050 C 
HETATM    9  N   UNK N   1      32.627  17.452   9.134  0.00  0.00    -0.176 N 
ATOM     10  HN  UNK N   1      32.640  17.455  10.154  1.00  0.00     0.186 HD
HETATM   11  N   UNK N   1      33.790  17.664   7.104  0.00  0.00    -0.176 N 
ATOM     12  HN  UNK N   1      34.666  17.827   6.607  1.00  0.00     0.186 HD
HETATM   13  N   UNK N   1      32.704  17.455   5.039  0.00  0.00    -0.350 N 
ATOM     14  HN  UNK N   1      33.597  17.632   4.578  1.00  0.00     0.166 HD
HETATM   15  N   UNK N   1      34.983  17.868   9.167  0.00  0.00    -0.234 N 
HETATM   16  H   UNK N   1      35.786  18.190   8.695  0.00  0.00     0.174 HD
HETATM   17  H   UNK N   1      35.019  17.690  10.134  0.00  0.00     0.174 HD
ENDROOT
BRANCH   6  18
HETATM   18  C   UNK N   1      29.216  16.661   3.981  0.00  0.00     0.160 C 
BRANCH  18  19
HETATM   19  N   UNK N   1      28.635  17.825   3.363  0.00  0.00    -0.385 N 
HETATM   20  H   UNK N   1      28.847  18.063   2.432  0.00  0.00     0.160 HD
BRANCH  19  21
HETATM   21  C   UNK N   1      27.752  18.617   4.133  0.00  0.00     0.040 A 
HETATM   22  C   UNK N   1      28.198  19.824   4.684  0.00  0.00     0.030 A 
HETATM   23  C   UNK N   1      27.313  20.648   5.389  0.00  0.00     0.005 A 
HETATM   24  C   UNK N   1      25.973  20.277   5.539  0.00  0.00     0.030 A 
HETATM   25  C   UNK N   1      25.516  19.075   4.993  0.00  0.00     0.044 A 
HETATM   26  C   UNK N   1      26.406  18.237   4.290  0.00  0.00     0.017 A 
HETATM   27  N   UNK N   1      24.210  18.718   5.129  0.00  0.00    -0.365 N 
HETATM   28  C   UNK N   1      25.922  17.043   3.748  0.00  0.00     0.017 A 
HETATM   29  C   UNK N   1      24.582  16.698   3.905  0.00  0.00     0.018 A 
HETATM   30  C   UNK N   1      23.731  17.556   4.602  0.00  0.00     0.088 A 
ATOM     31  HN  UNK N   1      23.574  19.334   5.636  1.00  0.00     0.165 HD
ENDBRANCH  19  21
ENDBRANCH  18  19
ENDBRANCH   6  18
BRANCH   2  32
HETATM   32  N   UNK N   1      30.291  17.025   9.256  0.00  0.00    -0.384 N 
HETATM   33  H   UNK N   1      29.923  16.118   9.363  0.00  0.00     0.157 HD
HETATM   34  H   UNK N   1      29.844  17.788   9.691  0.00  0.00     0.157 HD
ENDBRANCH   2  32
TORSDOF 4
ENDMDL
MODEL 7
REMARK VINA RESULT:      -7.2      8.866     13.217
REMARK  4 active torsions:
REMARK  status: ('A' for Active; 'I' for Inactive)
REMARK    1  A    between atoms: C_2  and  N_28 
REMARK       I    between atoms: C_3  and  N_29 
REMARK    2  A    between atoms: C_6  and  C_13 
REMARK    3  A    between atoms: C_9  and  N_27 
REMARK    4  A    between atoms: C_13  and  N_27 
ROOT
HETATM    1  C   UNK N   1      35.126  14.053  11.563  0.00  0.00     0.059 A 
HETATM    2  C   UNK N   1      34.440  14.093  10.320  0.00  0.00     0.129 A 
HETATM    3  C   UNK N   1      34.940  16.398  10.099  0.00  0.00     0.679 A 
HETATM    4  C   UNK N   1      35.714  15.257  12.017  0.00  0.00     0.135 A 
HETATM    5  C   UNK N   1      35.245  12.894  12.379  0.00  0.00    -0.035 A 
HETATM    6  C   UNK N   1      35.937  12.985  13.607  0.00  0.00    -0.018 A 
HETATM    7  C   UNK N   1      36.495  14.202  13.991  0.00  0.00     0.099 A 
HETATM    8  C   UNK N   1      34.629  11.591  11.985  0.00  0.00     0.050 C 
HETATM    9  N   UNK N   1      34.368  15.261   9.631  0.00  0.00    -0.176 N 
ATOM     10  HN  UNK N   1      33.872  15.284   8.740  1.00  0.00     0.186 HD
HETATM   11  N   UNK N   1      35.606  16.390  11.278  0.00  0.00    -0.176 N 
ATOM     12  HN  UNK N   1      36.036  17.251  11.617  1.00  0.00     0.186 HD
HETATM   13  N   UNK N   1      36.380  15.295  13.199  0.00  0.00    -0.350 N 
ATOM     14  HN  UNK N   1      36.806  16.172  13.499  1.00  0.00     0.166 HD
HETATM   15  N   UNK N   1      34.834  17.592   9.360  0.00  0.00    -0.234 N 
HETATM   16  H   UNK N   1      35.386  18.372   9.600  0.00  0.00     0.174 HD
HETATM   17  H   UNK N   1      34.208  17.647   8.603  0.00  0.00     0.174 HD
ENDROOT
BRANCH   6  18
HETATM   18  C   UNK N   1      36.029  11.842  14.568  0.00  0.00     0.160 C 
BRANCH  18  19
HETATM   19  N   UNK N   1      34.882  11.743  15.434  0.00  0.00    -0.385 N 
HETATM   20  H   UNK N   1      34.001  11.485  15.078  0.00  0.00     0.160 HD
BRANCH  19  21
HETATM   21  C   UNK N   1      35.058  12.026  16.808  0.00  0.00     0.040 A 
HETATM   22  C   UNK N   1      35.152  13.354  17.239  0.00  0.00     0.030 A 
HETATM   23  C   UNK N   1      35.257  13.647  18.604  0.00  0.00     0.005 A 
HETATM   24  C   UNK N   1      35.256  12.616  19.547  0.00  0.00     0.030 A 
HETATM   25  C   UNK N   1      35.162  11.286  19.130  0.00  0.00     0.044 A 
HETATM   26  C   UNK N   1      35.066  10.985  17.754  0.00  0.00     0.017 A 
HETATM   27  N   UNK N   1      35.151  10.282  20.048  0.00  0.00    -0.365 N 
HETATM   28  C   UNK N   1      34.966   9.648  17.363  0.00  0.00     0.017 A 
HETATM   29  C   UNK N   1      34.962   8.638  18.322  0.00  0.00     0.018 A 
HETATM   30  C   UNK N   1      35.053   8.976  19.673  0.00  0.00     0.088 A 
ATOM     31  HN  UNK N   1      35.216  10.512  21.040  1.00  0.00     0.165 HD
ENDBRANCH  19  21
ENDBRANCH  18  19
ENDBRANCH   6  18
BRANCH   2  32
HETATM   32  N   UNK N   1      33.817  12.951   9.773  0.00  0.00    -0.384 N 
HETATM   33  H   UNK N   1      34.204  12.057   9.910  0.00  0.00     0.157 HD
HETATM   34  H   UNK N   1      32.988  13.050   9.250  0.00  0.00     0.157 HD
ENDBRANCH   2  32
TORSDOF 4
ENDMDL
MODEL 8
REMARK VINA RESULT:      -7.0      3.802      6.275
REMARK  4 active torsions:
REMARK  status: ('A' for Active; 'I' for Inactive)
REMARK    1  A    between atoms: C_2  and  N_28 
REMARK       I    between atoms: C_3  and  N_29 
REMARK    2  A    between atoms: C_6  and  C_13 
REMARK    3  A    between atoms: C_9  and  N_27 
REMARK    4  A    between atoms: C_13  and  N_27 
ROOT
HETATM    1  C   UNK N   1      35.021  14.173  11.264  0.00  0.00     0.059 A 
HETATM    2  C   UNK N   1      35.041  12.995  12.057  0.00  0.00     0.129 A 
HETATM    3  C   UNK N   1      36.350  14.100  13.693  0.00  0.00     0.679 A 
HETATM    4  C   UNK N   1      35.699  15.307  11.770  0.00  0.00     0.135 A 
HETATM    5  C   UNK N   1      34.379  14.281   9.999  0.00  0.00    -0.035 A 
HETATM    6  C   UNK N   1      34.444  15.504   9.295  0.00  0.00    -0.018 A 
HETATM    7  C   UNK N   1      35.126  16.581   9.855  0.00  0.00     0.099 A 
HETATM    8  C   UNK N   1      33.664  13.123   9.382  0.00  0.00     0.050 C 
HETATM    9  N   UNK N   1      35.705  12.996  13.241  0.00  0.00    -0.176 N 
ATOM     10  HN  UNK N   1      35.719  12.146  13.805  1.00  0.00     0.186 HD
HETATM   11  N   UNK N   1      36.342  15.241  12.963  0.00  0.00    -0.176 N 
ATOM     12  HN  UNK N   1      36.826  16.066  13.317  1.00  0.00     0.186 HD
HETATM   13  N   UNK N   1      35.726  16.465  11.064  0.00  0.00    -0.350 N 
ATOM     14  HN  UNK N   1      36.212  17.273  11.456  1.00  0.00     0.166 HD
HETATM   15  N   UNK N   1      37.035  14.058  14.923  0.00  0.00    -0.234 N 
HETATM   16  H   UNK N   1      37.355  14.892  15.339  0.00  0.00     0.174 HD
HETATM   17  H   UNK N   1      37.196  13.194  15.367  0.00  0.00     0.174 HD
ENDROOT
BRANCH   6  18
HETATM   18  C   UNK N   1      33.877  15.676   7.921  0.00  0.00     0.160 C 
BRANCH  18  19
HETATM   19  N   UNK N   1      33.333  16.990   7.699  0.00  0.00    -0.385 N 
HETATM   20  H   UNK N   1      33.817  17.795   7.996  0.00  0.00     0.160 HD
BRANCH  19  21
HETATM   21  C   UNK N   1      32.085  17.093   7.044  0.00  0.00     0.040 A 
HETATM   22  C   UNK N   1      30.918  17.282   7.794  0.00  0.00     0.030 A 
HETATM   23  C   UNK N   1      29.686  17.453   7.152  0.00  0.00     0.005 A 
HETATM   24  C   UNK N   1      29.613  17.448   5.755  0.00  0.00     0.030 A 
HETATM   25  C   UNK N   1      30.770  17.260   4.996  0.00  0.00     0.044 A 
HETATM   26  C   UNK N   1      32.013  17.077   5.639  0.00  0.00     0.017 A 
HETATM   27  N   UNK N   1      30.703  17.265   3.637  0.00  0.00    -0.365 N 
HETATM   28  C   UNK N   1      33.156  16.898   4.857  0.00  0.00     0.017 A 
HETATM   29  C   UNK N   1      33.060  16.902   3.467  0.00  0.00     0.018 A 
HETATM   30  C   UNK N   1      31.814  17.092   2.868  0.00  0.00     0.088 A 
ATOM     31  HN  UNK N   1      29.799  17.403   3.183  1.00  0.00     0.165 HD
ENDBRANCH  19  21
ENDBRANCH  18  19
ENDBRANCH   6  18
BRANCH   2  32
HETATM   32  N   UNK N   1      34.398  11.808  11.648  0.00  0.00    -0.384 N 
HETATM   33  H   UNK N   1      33.428  11.797  11.484  0.00  0.00     0.157 HD
HETATM   34  H   UNK N   1      34.924  10.984  11.526  0.00  0.00     0.157 HD
ENDBRANCH   2  32
TORSDOF 4
ENDMDL
MODEL 9
REMARK VINA RESULT:      -7.0      2.918      4.496
REMARK  4 active torsions:
REMARK  status: ('A' for Active; 'I' for Inactive)
REMARK    1  A    between atoms: C_2  and  N_28 
REMARK       I    between atoms: C_3  and  N_29 
REMARK    2  A    between atoms: C_6  and  C_13 
REMARK    3  A    between atoms: C_9  and  N_27 
REMARK    4  A    between atoms: C_13  and  N_27 
ROOT
HETATM    1  C   UNK N   1      35.284  15.620   9.013  0.00  0.00     0.059 A 
HETATM    2  C   UNK N   1      35.683  16.015  10.317  0.00  0.00     0.129 A 
HETATM    3  C   UNK N   1      37.081  14.109  10.483  0.00  0.00     0.679 A 
HETATM    4  C   UNK N   1      35.847  14.431   8.495  0.00  0.00     0.135 A 
HETATM    5  C   UNK N   1      34.351  16.332   8.208  0.00  0.00    -0.035 A 
HETATM    6  C   UNK N   1      34.019  15.828   6.931  0.00  0.00    -0.018 A 
HETATM    7  C   UNK N   1      34.615  14.652   6.481  0.00  0.00     0.099 A 
HETATM    8  C   UNK N   1      33.691  17.582   8.692  0.00  0.00     0.050 C 
HETATM    9  N   UNK N   1      36.565  15.248  11.009  0.00  0.00    -0.176 N 
ATOM     10  HN  UNK N   1      36.846  15.534  11.947  1.00  0.00     0.186 HD
HETATM   11  N   UNK N   1      36.725  13.712   9.238  0.00  0.00    -0.176 N 
ATOM     12  HN  UNK N   1      37.124  12.856   8.852  1.00  0.00     0.186 HD
HETATM   13  N   UNK N   1      35.507  13.990   7.257  0.00  0.00    -0.350 N 
ATOM     14  HN  UNK N   1      35.936  13.136   6.900  1.00  0.00     0.166 HD
HETATM   15  N   UNK N   1      37.986  13.336  11.235  0.00  0.00    -0.234 N 
HETATM   16  H   UNK N   1      38.495  12.611  10.803  0.00  0.00     0.174 HD
HETATM   17  H   UNK N   1      38.109  13.519  12.194  0.00  0.00     0.174 HD
ENDROOT
BRANCH   6  18
HETATM   18  C   UNK N   1      32.981  16.461   6.058  0.00  0.00     0.160 C 
BRANCH  18  19
HETATM   19  N   UNK N   1      31.659  15.938   6.290  0.00  0.00    -0.385 N 
HETATM   20  H   UNK N   1      31.528  15.014   6.603  0.00  0.00     0.160 HD
BRANCH  19  21
HETATM   21  C   UNK N   1      30.556  16.790   6.057  0.00  0.00     0.040 A 
HETATM   22  C   UNK N   1      30.159  17.073   4.745  0.00  0.00     0.030 A 
HETATM   23  C   UNK N   1      29.026  17.860   4.504  0.00  0.00     0.005 A 
HETATM   24  C   UNK N   1      28.276  18.360   5.572  0.00  0.00     0.030 A 
HETATM   25  C   UNK N   1      28.661  18.084   6.886  0.00  0.00     0.044 A 
HETATM   26  C   UNK N   1      29.808  17.300   7.134  0.00  0.00     0.017 A 
HETATM   27  N   UNK N   1      27.926  18.561   7.927  0.00  0.00    -0.365 N 
HETATM   28  C   UNK N   1      30.168  17.033   8.457  0.00  0.00     0.017 A 
HETATM   29  C   UNK N   1      29.401  17.538   9.505  0.00  0.00     0.018 A 
HETATM   30  C   UNK N   1      28.271  18.304   9.219  0.00  0.00     0.088 A 
ATOM     31  HN  UNK N   1      27.096  19.124   7.735  1.00  0.00     0.165 HD
ENDBRANCH  19  21
ENDBRANCH  18  19
ENDBRANCH   6  18
BRANCH   2  32
HETATM   32  N   UNK N   1      35.184  17.183  10.931  0.00  0.00    -0.384 N 
HETATM   33  H   UNK N   1      35.020  17.206  11.901  0.00  0.00     0.157 HD
HETATM   34  H   UNK N   1      35.000  17.981  10.384  0.00  0.00     0.157 HD
ENDBRANCH   2  32
TORSDOF 4
ENDMDL
