MODEL 1
REMARK VINA RESULT:      -5.3      0.000      0.000
REMARK  14 active torsions:
REMARK  status: ('A' for Active; 'I' for Inactive)
REMARK    1  A    between atoms: C_1  and  C_2 
REMARK    2  A    between atoms: C_1  and  O_18 
REMARK    3  A    between atoms: C_2  and  C_3 
REMARK    4  A    between atoms: C_3  and  C_4 
REMARK    5  A    between atoms: C_4  and  C_5 
REMARK    6  A    between atoms: C_5  and  C_6 
REMARK    7  A    between atoms: C_6  and  C_7 
REMARK    8  A    between atoms: C_7  and  C_8 
REMARK    9  A    between atoms: C_8  and  C_9 
REMARK   10  A    between atoms: C_9  and  C_10 
REMARK   11  A    between atoms: C_10  and  C_11 
REMARK   12  A    between atoms: C_11  and  C_12 
REMARK   13  A    between atoms: C_12  and  C_13 
REMARK   14  A    between atoms: C_13  and  C_14 
ROOT
HETATM    1  C   UNK N   1      35.185  13.605  12.014  0.00  0.00     0.000 C 
ENDROOT
BRANCH   1   2
HETATM    2  C   UNK N   1      35.338  15.062  11.674  0.00  0.00     0.007 C 
BRANCH   2   3
HETATM    3  C   UNK N   1      35.207  15.322  10.187  0.00  0.00     0.079 C 
BRANCH   3   4
HETATM    4  C   UNK N   1      35.068  16.794   9.928  0.00  0.00     0.136 C 
HETATM    5  O   UNK N   1      35.794  17.592  10.505  0.00  0.00    -0.297 OA
BRANCH   4   6
HETATM    6  C   UNK N   1      34.024  17.261   8.950  0.00  0.00     0.188 C 
BRANCH   6   7
HETATM    7  C   UNK N   1      34.469  18.256   7.906  0.00  0.00     0.146 C 
HETATM    8  O   UNK N   1      34.008  18.175   6.780  0.00  0.00    -0.650 OA
BRANCH   7   9
HETATM    9  O   UNK N   1      35.360  19.227   8.186  0.00  0.00    -0.776 OA
HETATM   10  H   UNK N   1      36.248  19.006   8.383  0.00  0.00     0.167 HD
ENDBRANCH   7   9
ENDBRANCH   6   7
ENDBRANCH   4   6
ENDBRANCH   3   4
ENDBRANCH   2   3
ENDBRANCH   1   2
BRANCH   1  11
HETATM   11  C   UNK N   1      36.403  13.247  12.827  0.00  0.00     0.000 C 
BRANCH  11  12
HETATM   12  C   UNK N   1      36.513  14.130  14.038  0.00  0.00     0.000 C 
BRANCH  12  13
HETATM   13  C   UNK N   1      36.823  13.247  15.221  0.00  0.00     0.000 C 
BRANCH  13  14
HETATM   14  C   UNK N   1      35.804  13.506  16.298  0.00  0.00     0.000 C 
BRANCH  14  15
HETATM   15  C   UNK N   1      34.637  12.569  16.120  0.00  0.00     0.000 C 
BRANCH  15  16
HETATM   16  C   UNK N   1      35.093  11.185  16.513  0.00  0.00     0.000 C 
BRANCH  16  17
HETATM   17  C   UNK N   1      34.751  10.201  15.421  0.00  0.00    -0.000 C 
BRANCH  17  18
HETATM   18  C   UNK N   1      33.705  10.826  14.525  0.00  0.00    -0.005 C 
HETATM   19  C   UNK N   1      33.927  10.373  13.100  0.00  0.00     0.005 C 
ENDBRANCH  17  18
ENDBRANCH  16  17
ENDBRANCH  15  16
ENDBRANCH  14  15
ENDBRANCH  13  14
ENDBRANCH  12  13
ENDBRANCH  11  12
ENDBRANCH   1  11
TORSDOF 14
ENDMDL
MODEL 2
REMARK VINA RESULT:      -5.0      0.932      2.421
REMARK  14 active torsions:
REMARK  status: ('A' for Active; 'I' for Inactive)
REMARK    1  A    between atoms: C_1  and  C_2 
REMARK    2  A    between atoms: C_1  and  O_18 
REMARK    3  A    between atoms: C_2  and  C_3 
REMARK    4  A    between atoms: C_3  and  C_4 
REMARK    5  A    between atoms: C_4  and  C_5 
REMARK    6  A    between atoms: C_5  and  C_6 
REMARK    7  A    between atoms: C_6  and  C_7 
REMARK    8  A    between atoms: C_7  and  C_8 
REMARK    9  A    between atoms: C_8  and  C_9 
REMARK   10  A    between atoms: C_9  and  C_10 
REMARK   11  A    between atoms: C_10  and  C_11 
REMARK   12  A    between atoms: C_11  and  C_12 
REMARK   13  A    between atoms: C_12  and  C_13 
REMARK   14  A    between atoms: C_13  and  C_14 
ROOT
HETATM    1  C   UNK N   1      35.860  14.048  12.140  0.00  0.00     0.000 C 
ENDROOT
BRANCH   1   2
HETATM    2  C   UNK N   1      34.667  14.593  11.404  0.00  0.00     0.007 C 
BRANCH   2   3
HETATM    3  C   UNK N   1      35.019  15.064  10.008  0.00  0.00     0.079 C 
BRANCH   3   4
HETATM    4  C   UNK N   1      35.021  16.564   9.951  0.00  0.00     0.136 C 
HETATM    5  O   UNK N   1      35.801  17.205  10.642  0.00  0.00    -0.297 OA
BRANCH   4   6
HETATM    6  C   UNK N   1      34.050  17.256   9.032  0.00  0.00     0.188 C 
BRANCH   6   7
HETATM    7  C   UNK N   1      34.622  18.294   8.099  0.00  0.00     0.146 C 
HETATM    8  O   UNK N   1      34.408  18.193   6.902  0.00  0.00    -0.650 OA
BRANCH   7   9
HETATM    9  O   UNK N   1      35.361  19.325   8.551  0.00  0.00    -0.776 OA
HETATM   10  H   UNK N   1      35.906  19.216   9.305  0.00  0.00     0.167 HD
ENDBRANCH   7   9
ENDBRANCH   6   7
ENDBRANCH   4   6
ENDBRANCH   3   4
ENDBRANCH   2   3
ENDBRANCH   1   2
BRANCH   1  11
HETATM   11  C   UNK N   1      35.301  13.135  13.201  0.00  0.00     0.000 C 
BRANCH  11  12
HETATM   12  C   UNK N   1      34.967  11.789  12.623  0.00  0.00     0.000 C 
BRANCH  12  13
HETATM   13  C   UNK N   1      34.099  11.065  13.622  0.00  0.00     0.000 C 
BRANCH  13  14
HETATM   14  C   UNK N   1      34.973  10.179  14.468  0.00  0.00     0.000 C 
BRANCH  14  15
HETATM   15  C   UNK N   1      34.486  10.211  15.895  0.00  0.00     0.000 C 
BRANCH  15  16
HETATM   16  C   UNK N   1      35.644  10.632  16.767  0.00  0.00     0.000 C 
BRANCH  16  17
HETATM   17  C   UNK N   1      35.996  12.073  16.493  0.00  0.00    -0.000 C 
BRANCH  17  18
HETATM   18  C   UNK N   1      34.827  12.938  16.911  0.00  0.00    -0.005 C 
HETATM   19  C   UNK N   1      35.220  13.771  18.110  0.00  0.00     0.005 C 
ENDBRANCH  17  18
ENDBRANCH  16  17
ENDBRANCH  15  16
ENDBRANCH  14  15
ENDBRANCH  13  14
ENDBRANCH  12  13
ENDBRANCH  11  12
ENDBRANCH   1  11
TORSDOF 14
ENDMDL
MODEL 3
REMARK VINA RESULT:      -4.9     17.429     21.686
REMARK  14 active torsions:
REMARK  status: ('A' for Active; 'I' for Inactive)
REMARK    1  A    between atoms: C_1  and  C_2 
REMARK    2  A    between atoms: C_1  and  O_18 
REMARK    3  A    between atoms: C_2  and  C_3 
REMARK    4  A    between atoms: C_3  and  C_4 
REMARK    5  A    between atoms: C_4  and  C_5 
REMARK    6  A    between atoms: C_5  and  C_6 
REMARK    7  A    between atoms: C_6  and  C_7 
REMARK    8  A    between atoms: C_7  and  C_8 
REMARK    9  A    between atoms: C_8  and  C_9 
REMARK   10  A    between atoms: C_9  and  C_10 
REMARK   11  A    between atoms: C_10  and  C_11 
REMARK   12  A    between atoms: C_11  and  C_12 
REMARK   13  A    between atoms: C_12  and  C_13 
REMARK   14  A    between atoms: C_13  and  C_14 
ROOT
HETATM    1  C   UNK N   1      28.405  25.089  -3.692  0.00  0.00     0.000 C 
ENDROOT
BRANCH   1   2
HETATM    2  C   UNK N   1      29.623  24.474  -4.322  0.00  0.00     0.007 C 
BRANCH   2   3
HETATM    3  C   UNK N   1      30.769  24.335  -3.340  0.00  0.00     0.079 C 
BRANCH   3   4
HETATM    4  C   UNK N   1      30.640  23.052  -2.570  0.00  0.00     0.136 C 
HETATM    5  O   UNK N   1      30.233  23.065  -1.416  0.00  0.00    -0.297 OA
BRANCH   4   6
HETATM    6  C   UNK N   1      31.019  21.762  -3.244  0.00  0.00     0.188 C 
BRANCH   6   7
HETATM    7  C   UNK N   1      32.468  21.349  -3.151  0.00  0.00     0.146 C 
HETATM    8  O   UNK N   1      33.142  21.326  -4.167  0.00  0.00    -0.650 OA
BRANCH   7   9
HETATM    9  O   UNK N   1      33.034  21.005  -1.978  0.00  0.00    -0.776 OA
HETATM   10  H   UNK N   1      33.921  21.245  -1.797  0.00  0.00     0.167 HD
ENDBRANCH   7   9
ENDBRANCH   6   7
ENDBRANCH   4   6
ENDBRANCH   3   4
ENDBRANCH   2   3
ENDBRANCH   1   2
BRANCH   1  11
HETATM   11  C   UNK N   1      27.244  24.234  -4.131  0.00  0.00     0.000 C 
BRANCH  11  12
HETATM   12  C   UNK N   1      27.337  23.924  -5.599  0.00  0.00     0.000 C 
BRANCH  12  13
HETATM   13  C   UNK N   1      25.997  24.232  -6.217  0.00  0.00     0.000 C 
BRANCH  13  14
HETATM   14  C   UNK N   1      25.250  25.171  -5.308  0.00  0.00     0.000 C 
BRANCH  14  15
HETATM   15  C   UNK N   1      25.266  26.559  -5.898  0.00  0.00     0.000 C 
BRANCH  15  16
HETATM   16  C   UNK N   1      25.462  27.538  -4.767  0.00  0.00     0.000 C 
BRANCH  16  17
HETATM   17  C   UNK N   1      26.578  28.496  -5.104  0.00  0.00    -0.000 C 
BRANCH  17  18
HETATM   18  C   UNK N   1      27.518  27.813  -6.072  0.00  0.00    -0.005 C 
HETATM   19  C   UNK N   1      28.065  28.832  -7.046  0.00  0.00     0.005 C 
ENDBRANCH  17  18
ENDBRANCH  16  17
ENDBRANCH  15  16
ENDBRANCH  14  15
ENDBRANCH  13  14
ENDBRANCH  12  13
ENDBRANCH  11  12
ENDBRANCH   1  11
TORSDOF 14
ENDMDL
MODEL 4
REMARK VINA RESULT:      -4.9     17.482     21.354
REMARK  14 active torsions:
REMARK  status: ('A' for Active; 'I' for Inactive)
REMARK    1  A    between atoms: C_1  and  C_2 
REMARK    2  A    between atoms: C_1  and  O_18 
REMARK    3  A    between atoms: C_2  and  C_3 
REMARK    4  A    between atoms: C_3  and  C_4 
REMARK    5  A    between atoms: C_4  and  C_5 
REMARK    6  A    between atoms: C_5  and  C_6 
REMARK    7  A    between atoms: C_6  and  C_7 
REMARK    8  A    between atoms: C_7  and  C_8 
REMARK    9  A    between atoms: C_8  and  C_9 
REMARK   10  A    between atoms: C_9  and  C_10 
REMARK   11  A    between atoms: C_10  and  C_11 
REMARK   12  A    between atoms: C_11  and  C_12 
REMARK   13  A    between atoms: C_12  and  C_13 
REMARK   14  A    between atoms: C_13  and  C_14 
ROOT
HETATM    1  C   UNK N   1      29.786  24.689  -5.507  0.00  0.00     0.000 C 
ENDROOT
BRANCH   1   2
HETATM    2  C   UNK N   1      29.259  23.514  -4.731  0.00  0.00     0.007 C 
BRANCH   2   3
HETATM    3  C   UNK N   1      29.245  23.772  -3.238  0.00  0.00     0.079 C 
BRANCH   3   4
HETATM    4  C   UNK N   1      30.195  22.841  -2.541  0.00  0.00     0.136 C 
HETATM    5  O   UNK N   1      30.451  22.997  -1.355  0.00  0.00    -0.297 OA
BRANCH   4   6
HETATM    6  C   UNK N   1      30.821  21.722  -3.330  0.00  0.00     0.188 C 
BRANCH   6   7
HETATM    7  C   UNK N   1      32.297  21.488  -3.120  0.00  0.00     0.146 C 
HETATM    8  O   UNK N   1      33.046  21.550  -4.080  0.00  0.00    -0.650 OA
BRANCH   7   9
HETATM    9  O   UNK N   1      32.806  21.213  -1.903  0.00  0.00    -0.776 OA
HETATM   10  H   UNK N   1      32.234  21.114  -1.167  0.00  0.00     0.167 HD
ENDBRANCH   7   9
ENDBRANCH   6   7
ENDBRANCH   4   6
ENDBRANCH   3   4
ENDBRANCH   2   3
ENDBRANCH   1   2
BRANCH   1  11
HETATM   11  C   UNK N   1      29.176  25.908  -4.863  0.00  0.00     0.000 C 
BRANCH  11  12
HETATM   12  C   UNK N   1      28.963  26.995  -5.878  0.00  0.00     0.000 C 
BRANCH  12  13
HETATM   13  C   UNK N   1      27.754  27.790  -5.449  0.00  0.00     0.000 C 
BRANCH  13  14
HETATM   14  C   UNK N   1      27.183  27.166  -4.204  0.00  0.00     0.000 C 
BRANCH  14  15
HETATM   15  C   UNK N   1      25.687  27.044  -4.345  0.00  0.00     0.000 C 
BRANCH  15  16
HETATM   16  C   UNK N   1      25.407  26.082  -5.473  0.00  0.00     0.000 C 
BRANCH  16  17
HETATM   17  C   UNK N   1      25.631  24.664  -5.006  0.00  0.00    -0.000 C 
BRANCH  17  18
HETATM   18  C   UNK N   1      25.978  23.814  -6.208  0.00  0.00    -0.005 C 
HETATM   19  C   UNK N   1      26.110  24.697  -7.428  0.00  0.00     0.005 C 
ENDBRANCH  17  18
ENDBRANCH  16  17
ENDBRANCH  15  16
ENDBRANCH  14  15
ENDBRANCH  13  14
ENDBRANCH  12  13
ENDBRANCH  11  12
ENDBRANCH   1  11
TORSDOF 14
ENDMDL
MODEL 5
REMARK VINA RESULT:      -4.7     18.058     22.837
REMARK  14 active torsions:
REMARK  status: ('A' for Active; 'I' for Inactive)
REMARK    1  A    between atoms: C_1  and  C_2 
REMARK    2  A    between atoms: C_1  and  O_18 
REMARK    3  A    between atoms: C_2  and  C_3 
REMARK    4  A    between atoms: C_3  and  C_4 
REMARK    5  A    between atoms: C_4  and  C_5 
REMARK    6  A    between atoms: C_5  and  C_6 
REMARK    7  A    between atoms: C_6  and  C_7 
REMARK    8  A    between atoms: C_7  and  C_8 
REMARK    9  A    between atoms: C_8  and  C_9 
REMARK   10  A    between atoms: C_9  and  C_10 
REMARK   11  A    between atoms: C_10  and  C_11 
REMARK   12  A    between atoms: C_11  and  C_12 
REMARK   13  A    between atoms: C_12  and  C_13 
REMARK   14  A    between atoms: C_13  and  C_14 
ROOT
HETATM    1  C   UNK N   1      25.263  25.815  -5.580  0.00  0.00     0.000 C 
ENDROOT
BRANCH   1   2
HETATM    2  C   UNK N   1      26.265  24.727  -5.311  0.00  0.00     0.007 C 
BRANCH   2   3
HETATM    3  C   UNK N   1      26.509  24.524  -3.829  0.00  0.00     0.079 C 
BRANCH   3   4
HETATM    4  C   UNK N   1      27.963  24.247  -3.575  0.00  0.00     0.136 C 
HETATM    5  O   UNK N   1      28.818  24.726  -4.308  0.00  0.00    -0.297 OA
BRANCH   4   6
HETATM    6  C   UNK N   1      28.341  23.375  -2.409  0.00  0.00     0.188 C 
BRANCH   6   7
HETATM    7  C   UNK N   1      29.756  22.851  -2.385  0.00  0.00     0.146 C 
HETATM    8  O   UNK N   1      30.410  22.964  -1.361  0.00  0.00    -0.650 OA
BRANCH   7   9
HETATM    9  O   UNK N   1      30.314  22.264  -3.461  0.00  0.00    -0.776 OA
HETATM   10  H   UNK N   1      29.850  22.239  -4.275  0.00  0.00     0.167 HD
ENDBRANCH   7   9
ENDBRANCH   6   7
ENDBRANCH   4   6
ENDBRANCH   3   4
ENDBRANCH   2   3
ENDBRANCH   1   2
BRANCH   1  11
HETATM   11  C   UNK N   1      25.560  26.306  -6.974  0.00  0.00     0.000 C 
BRANCH  11  12
HETATM   12  C   UNK N   1      26.936  25.883  -7.405  0.00  0.00     0.000 C 
BRANCH  12  13
HETATM   13  C   UNK N   1      27.642  27.102  -7.942  0.00  0.00     0.000 C 
BRANCH  13  14
HETATM   14  C   UNK N   1      28.451  27.719  -6.833  0.00  0.00     0.000 C 
BRANCH  14  15
HETATM   15  C   UNK N   1      28.107  29.183  -6.716  0.00  0.00     0.000 C 
BRANCH  15  16
HETATM   16  C   UNK N   1      27.514  29.409  -5.347  0.00  0.00     0.000 C 
BRANCH  16  17
HETATM   17  C   UNK N   1      28.268  28.598  -4.321  0.00  0.00    -0.000 C 
BRANCH  17  18
HETATM   18  C   UNK N   1      27.264  27.955  -3.390  0.00  0.00    -0.005 C 
HETATM   19  C   UNK N   1      25.919  28.623  -3.560  0.00  0.00     0.005 C 
ENDBRANCH  17  18
ENDBRANCH  16  17
ENDBRANCH  15  16
ENDBRANCH  14  15
ENDBRANCH  13  14
ENDBRANCH  12  13
ENDBRANCH  11  12
ENDBRANCH   1  11
TORSDOF 14
ENDMDL
MODEL 6
REMARK VINA RESULT:      -4.6     12.335     15.333
REMARK  14 active torsions:
REMARK  status: ('A' for Active; 'I' for Inactive)
REMARK    1  A    between atoms: C_1  and  C_2 
REMARK    2  A    between atoms: C_1  and  O_18 
REMARK    3  A    between atoms: C_2  and  C_3 
REMARK    4  A    between atoms: C_3  and  C_4 
REMARK    5  A    between atoms: C_4  and  C_5 
REMARK    6  A    between atoms: C_5  and  C_6 
REMARK    7  A    between atoms: C_6  and  C_7 
REMARK    8  A    between atoms: C_7  and  C_8 
REMARK    9  A    between atoms: C_8  and  C_9 
REMARK   10  A    between atoms: C_9  and  C_10 
REMARK   11  A    between atoms: C_10  and  C_11 
REMARK   12  A    between atoms: C_11  and  C_12 
REMARK   13  A    between atoms: C_12  and  C_13 
REMARK   14  A    between atoms: C_13  and  C_14 
ROOT
HETATM    1  C   UNK N   1      24.187  19.820   4.021  0.00  0.00     0.000 C 
ENDROOT
BRANCH   1   2
HETATM    2  C   UNK N   1      23.379  18.621   3.608  0.00  0.00     0.007 C 
BRANCH   2   3
HETATM    3  C   UNK N   1      21.943  18.703   4.085  0.00  0.00     0.079 C 
BRANCH   3   4
HETATM    4  C   UNK N   1      21.002  18.405   2.954  0.00  0.00     0.136 C 
HETATM    5  O   UNK N   1      20.923  17.271   2.501  0.00  0.00    -0.297 OA
BRANCH   4   6
HETATM    6  C   UNK N   1      20.165  19.524   2.396  0.00  0.00     0.188 C 
BRANCH   6   7
HETATM    7  C   UNK N   1      20.841  20.454   1.419  0.00  0.00     0.146 C 
HETATM    8  O   UNK N   1      21.622  21.289   1.844  0.00  0.00    -0.650 OA
BRANCH   7   9
HETATM    9  O   UNK N   1      20.606  20.385   0.094  0.00  0.00    -0.776 OA
HETATM   10  H   UNK N   1      20.608  19.555  -0.340  0.00  0.00     0.167 HD
ENDBRANCH   7   9
ENDBRANCH   6   7
ENDBRANCH   4   6
ENDBRANCH   3   4
ENDBRANCH   2   3
ENDBRANCH   1   2
BRANCH   1  11
HETATM   11  C   UNK N   1      24.986  20.211   2.804  0.00  0.00     0.000 C 
BRANCH  11  12
HETATM   12  C   UNK N   1      26.399  20.554   3.182  0.00  0.00     0.000 C 
BRANCH  12  13
HETATM   13  C   UNK N   1      26.463  20.630   4.687  0.00  0.00     0.000 C 
BRANCH  13  14
HETATM   14  C   UNK N   1      27.831  20.188   5.135  0.00  0.00     0.000 C 
BRANCH  14  15
HETATM   15  C   UNK N   1      27.742  18.803   5.723  0.00  0.00     0.000 C 
BRANCH  15  16
HETATM   16  C   UNK N   1      28.772  17.942   5.033  0.00  0.00     0.000 C 
BRANCH  16  17
HETATM   17  C   UNK N   1      28.190  17.358   3.769  0.00  0.00    -0.000 C 
BRANCH  17  18
HETATM   18  C   UNK N   1      26.778  16.902   4.060  0.00  0.00    -0.005 C 
HETATM   19  C   UNK N   1      26.176  16.299   2.811  0.00  0.00     0.005 C 
ENDBRANCH  17  18
ENDBRANCH  16  17
ENDBRANCH  15  16
ENDBRANCH  14  15
ENDBRANCH  13  14
ENDBRANCH  12  13
ENDBRANCH  11  12
ENDBRANCH   1  11
TORSDOF 14
ENDMDL
MODEL 7
REMARK VINA RESULT:      -4.6     18.054     22.002
REMARK  14 active torsions:
REMARK  status: ('A' for Active; 'I' for Inactive)
REMARK    1  A    between atoms: C_1  and  C_2 
REMARK    2  A    between atoms: C_1  and  O_18 
REMARK    3  A    between atoms: C_2  and  C_3 
REMARK    4  A    between atoms: C_3  and  C_4 
REMARK    5  A    between atoms: C_4  and  C_5 
REMARK    6  A    between atoms: C_5  and  C_6 
REMARK    7  A    between atoms: C_6  and  C_7 
REMARK    8  A    between atoms: C_7  and  C_8 
REMARK    9  A    between atoms: C_8  and  C_9 
REMARK   10  A    between atoms: C_9  and  C_10 
REMARK   11  A    between atoms: C_10  and  C_11 
REMARK   12  A    between atoms: C_11  and  C_12 
REMARK   13  A    between atoms: C_12  and  C_13 
REMARK   14  A    between atoms: C_13  and  C_14 
ROOT
HETATM    1  C   UNK N   1      28.081  24.775  -4.776  0.00  0.00     0.000 C 
ENDROOT
BRANCH   1   2
HETATM    2  C   UNK N   1      29.027  24.655  -3.612  0.00  0.00     0.007 C 
BRANCH   2   3
HETATM    3  C   UNK N   1      28.746  23.430  -2.767  0.00  0.00     0.079 C 
BRANCH   3   4
HETATM    4  C   UNK N   1      30.005  22.635  -2.571  0.00  0.00     0.136 C 
HETATM    5  O   UNK N   1      30.826  22.981  -1.733  0.00  0.00    -0.297 OA
BRANCH   4   6
HETATM    6  C   UNK N   1      30.229  21.414  -3.421  0.00  0.00     0.188 C 
BRANCH   6   7
HETATM    7  C   UNK N   1      30.514  21.650  -4.884  0.00  0.00     0.146 C 
HETATM    8  O   UNK N   1      31.308  22.521  -5.197  0.00  0.00    -0.650 OA
BRANCH   7   9
HETATM    9  O   UNK N   1      29.914  20.927  -5.849  0.00  0.00    -0.776 OA
HETATM   10  H   UNK N   1      30.428  20.392  -6.422  0.00  0.00     0.167 HD
ENDBRANCH   7   9
ENDBRANCH   6   7
ENDBRANCH   4   6
ENDBRANCH   3   4
ENDBRANCH   2   3
ENDBRANCH   1   2
BRANCH   1  11
HETATM   11  C   UNK N   1      26.799  24.122  -4.326  0.00  0.00     0.000 C 
BRANCH  11  12
HETATM   12  C   UNK N   1      25.657  24.524  -5.216  0.00  0.00     0.000 C 
BRANCH  12  13
HETATM   13  C   UNK N   1      26.243  25.124  -6.469  0.00  0.00     0.000 C 
BRANCH  13  14
HETATM   14  C   UNK N   1      25.461  26.360  -6.824  0.00  0.00     0.000 C 
BRANCH  14  15
HETATM   15  C   UNK N   1      24.861  26.950  -5.572  0.00  0.00     0.000 C 
BRANCH  15  16
HETATM   16  C   UNK N   1      25.792  28.031  -5.081  0.00  0.00     0.000 C 
BRANCH  16  17
HETATM   17  C   UNK N   1      25.952  27.930  -3.584  0.00  0.00    -0.000 C 
BRANCH  17  18
HETATM   18  C   UNK N   1      26.901  29.017  -3.130  0.00  0.00    -0.005 C 
HETATM   19  C   UNK N   1      26.538  30.318  -3.809  0.00  0.00     0.005 C 
ENDBRANCH  17  18
ENDBRANCH  16  17
ENDBRANCH  15  16
ENDBRANCH  14  15
ENDBRANCH  13  14
ENDBRANCH  12  13
ENDBRANCH  11  12
ENDBRANCH   1  11
TORSDOF 14
ENDMDL
MODEL 8
REMARK VINA RESULT:      -4.6     18.197     22.051
REMARK  14 active torsions:
REMARK  status: ('A' for Active; 'I' for Inactive)
REMARK    1  A    between atoms: C_1  and  C_2 
REMARK    2  A    between atoms: C_1  and  O_18 
REMARK    3  A    between atoms: C_2  and  C_3 
REMARK    4  A    between atoms: C_3  and  C_4 
REMARK    5  A    between atoms: C_4  and  C_5 
REMARK    6  A    between atoms: C_5  and  C_6 
REMARK    7  A    between atoms: C_6  and  C_7 
REMARK    8  A    between atoms: C_7  and  C_8 
REMARK    9  A    between atoms: C_8  and  C_9 
REMARK   10  A    between atoms: C_9  and  C_10 
REMARK   11  A    between atoms: C_10  and  C_11 
REMARK   12  A    between atoms: C_11  and  C_12 
REMARK   13  A    between atoms: C_12  and  C_13 
REMARK   14  A    between atoms: C_13  and  C_14 
ROOT
HETATM    1  C   UNK N   1      25.596  24.806  -6.065  0.00  0.00     0.000 C 
ENDROOT
BRANCH   1   2
HETATM    2  C   UNK N   1      26.495  24.007  -5.163  0.00  0.00     0.007 C 
BRANCH   2   3
HETATM    3  C   UNK N   1      26.854  24.759  -3.897  0.00  0.00     0.079 C 
BRANCH   3   4
HETATM    4  C   UNK N   1      27.779  23.935  -3.049  0.00  0.00     0.136 C 
HETATM    5  O   UNK N   1      27.404  23.508  -1.966  0.00  0.00    -0.297 OA
BRANCH   4   6
HETATM    6  C   UNK N   1      29.167  23.650  -3.557  0.00  0.00     0.188 C 
BRANCH   6   7
HETATM    7  C   UNK N   1      30.017  22.725  -2.722  0.00  0.00     0.146 C 
HETATM    8  O   UNK N   1      30.368  21.657  -3.198  0.00  0.00    -0.650 OA
BRANCH   7   9
HETATM    9  O   UNK N   1      30.398  23.046  -1.471  0.00  0.00    -0.776 OA
HETATM   10  H   UNK N   1      29.953  23.727  -1.006  0.00  0.00     0.167 HD
ENDBRANCH   7   9
ENDBRANCH   6   7
ENDBRANCH   4   6
ENDBRANCH   3   4
ENDBRANCH   2   3
ENDBRANCH   1   2
BRANCH   1  11
HETATM   11  C   UNK N   1      25.495  26.171  -5.433  0.00  0.00     0.000 C 
BRANCH  11  12
HETATM   12  C   UNK N   1      26.004  27.230  -6.370  0.00  0.00     0.000 C 
BRANCH  12  13
HETATM   13  C   UNK N   1      26.616  28.325  -5.532  0.00  0.00     0.000 C 
BRANCH  13  14
HETATM   14  C   UNK N   1      25.873  28.406  -4.226  0.00  0.00     0.000 C 
BRANCH  14  15
HETATM   15  C   UNK N   1      26.850  28.677  -3.110  0.00  0.00     0.000 C 
BRANCH  15  16
HETATM   16  C   UNK N   1      28.200  28.160  -3.543  0.00  0.00     0.000 C 
BRANCH  16  17
HETATM   17  C   UNK N   1      29.293  29.011  -2.943  0.00  0.00    -0.000 C 
BRANCH  17  18
HETATM   18  C   UNK N   1      28.744  29.695  -1.712  0.00  0.00    -0.005 C 
HETATM   19  C   UNK N   1      29.796  30.615  -1.136  0.00  0.00     0.005 C 
ENDBRANCH  17  18
ENDBRANCH  16  17
ENDBRANCH  15  16
ENDBRANCH  14  15
ENDBRANCH  13  14
ENDBRANCH  12  13
ENDBRANCH  11  12
ENDBRANCH   1  11
TORSDOF 14
ENDMDL
MODEL 9
REMARK VINA RESULT:      -4.5      6.758     10.310
REMARK  14 active torsions:
REMARK  status: ('A' for Active; 'I' for Inactive)
REMARK    1  A    between atoms: C_1  and  C_2 
REMARK    2  A    between atoms: C_1  and  O_18 
REMARK    3  A    between atoms: C_2  and  C_3 
REMARK    4  A    between atoms: C_3  and  C_4 
REMARK    5  A    between atoms: C_4  and  C_5 
REMARK    6  A    between atoms: C_5  and  C_6 
REMARK    7  A    between atoms: C_6  and  C_7 
REMARK    8  A    between atoms: C_7  and  C_8 
REMARK    9  A    between atoms: C_8  and  C_9 
REMARK   10  A    between atoms: C_9  and  C_10 
REMARK   11  A    between atoms: C_10  and  C_11 
REMARK   12  A    between atoms: C_11  and  C_12 
REMARK   13  A    between atoms: C_12  and  C_13 
REMARK   14  A    between atoms: C_13  and  C_14 
ROOT
HETATM    1  C   UNK N   1      32.549  16.665   2.947  0.00  0.00     0.000 C 
ENDROOT
BRANCH   1   2
HETATM    2  C   UNK N   1      32.809  17.340   4.266  0.00  0.00     0.007 C 
BRANCH   2   3
HETATM    3  C   UNK N   1      32.966  16.346   5.399  0.00  0.00     0.079 C 
BRANCH   3   4
HETATM    4  C   UNK N   1      33.954  16.860   6.406  0.00  0.00     0.136 C 
HETATM    5  O   UNK N   1      35.106  16.448   6.404  0.00  0.00    -0.297 OA
BRANCH   4   6
HETATM    6  C   UNK N   1      33.499  17.885   7.409  0.00  0.00     0.188 C 
BRANCH   6   7
HETATM    7  C   UNK N   1      34.450  18.198   8.538  0.00  0.00     0.146 C 
HETATM    8  O   UNK N   1      35.226  19.131   8.414  0.00  0.00    -0.650 OA
BRANCH   7   9
HETATM    9  O   UNK N   1      34.465  17.476   9.675  0.00  0.00    -0.776 OA
HETATM   10  H   UNK N   1      33.718  17.476  10.240  0.00  0.00     0.167 HD
ENDBRANCH   7   9
ENDBRANCH   6   7
ENDBRANCH   4   6
ENDBRANCH   3   4
ENDBRANCH   2   3
ENDBRANCH   1   2
BRANCH   1  11
HETATM   11  C   UNK N   1      31.404  15.716   3.195  0.00  0.00     0.000 C 
BRANCH  11  12
HETATM   12  C   UNK N   1      30.099  16.459   3.246  0.00  0.00     0.000 C 
BRANCH  12  13
HETATM   13  C   UNK N   1      29.179  15.703   4.171  0.00  0.00     0.000 C 
BRANCH  13  14
HETATM   14  C   UNK N   1      29.271  16.308   5.546  0.00  0.00     0.000 C 
BRANCH  14  15
HETATM   15  C   UNK N   1      29.412  17.805   5.426  0.00  0.00     0.000 C 
BRANCH  15  16
HETATM   16  C   UNK N   1      28.338  18.438   6.277  0.00  0.00     0.000 C 
BRANCH  16  17
HETATM   17  C   UNK N   1      27.231  18.968   5.397  0.00  0.00    -0.000 C 
BRANCH  17  18
HETATM   18  C   UNK N   1      27.571  20.388   5.006  0.00  0.00    -0.005 C 
HETATM   19  C   UNK N   1      27.511  21.276   6.228  0.00  0.00     0.005 C 
ENDBRANCH  17  18
ENDBRANCH  16  17
ENDBRANCH  15  16
ENDBRANCH  14  15
ENDBRANCH  13  14
ENDBRANCH  12  13
ENDBRANCH  11  12
ENDBRANCH   1  11
TORSDOF 14
ENDMDL
