REMARK  14 active torsions:
REMARK  status: ('A' for Active; 'I' for Inactive)
REMARK    1  A    between atoms: O_1  and  C_11 
REMARK    2  A    between atoms: C_14  and  O_2 
REMARK    3  A    between atoms: C_8  and  O_4 
REMARK    4  A    between atoms: C_16  and  O_5 
REMARK    5  A    between atoms: O_5  and  C_25 
REMARK    6  A    between atoms: C_8  and  C_17 
REMARK    7  A    between atoms: C_8  and  C_18 
REMARK    8  A    between atoms: C_11  and  C_22 
REMARK    9  A    between atoms: C_13  and  C_19 
REMARK   10  A    between atoms: C_14  and  C_18 
REMARK   11  A    between atoms: C_14  and  C_22 
REMARK   12  A    between atoms: C_17  and  C_19 
REMARK   13  A    between atoms: C_25  and  C_26 
REMARK   14  A    between atoms: C_26  and  C_28 
ROOT
HETATM    1  C   UNK N   1      -4.549   2.505   0.241  0.00  0.00     0.004 C 
HETATM    2  C   UNK N   1      -4.128   1.093   0.183  0.00  0.00    -0.055 C 
HETATM    3  C   UNK N   1      -3.657   3.494   0.352  0.00  0.00    -0.022 C 
HETATM    4  C   UNK N   1      -2.654   0.716   0.418  0.00  0.00     0.052 C 
HETATM    5  C   UNK N   1      -2.175   3.239   0.362  0.00  0.00     0.009 C 
HETATM    6  C   UNK N   1      -1.792   1.843  -0.224  0.00  0.00     0.004 C 
HETATM    7  C   UNK N   1      -5.072   0.182  -0.102  0.00  0.00    -0.015 C 
HETATM    8  C   UNK N   1      -2.372  -0.738  -0.099  0.00  0.00     0.141 C 
HETATM    9  C   UNK N   1      -3.466  -1.639   0.476  0.00  0.00     0.041 C 
HETATM   10  C   UNK N   1      -1.697   3.438   1.797  0.00  0.00     0.014 C 
HETATM   11  C   UNK N   1      -4.809  -1.295  -0.149  0.00  0.00     0.007 C 
HETATM   12  C   UNK N   1      -5.893  -2.026   0.612  0.00  0.00     0.014 C 
ENDROOT
BRANCH   6  13
HETATM   13  C   UNK N   1      -0.294   1.658  -0.004  0.00  0.00     0.009 C 
BRANCH  13  14
HETATM   14  C   UNK N   1       0.381   0.817  -1.068  0.00  0.00     0.032 C 
BRANCH  14  15
HETATM   15  C   UNK N   1       1.750   0.361  -0.592  0.00  0.00     0.120 C 
BRANCH  15  16
HETATM   16  O   UNK N   1       2.361  -0.343  -1.631  0.00  0.00    -0.395 OA
HETATM   17  H   UNK N   1       2.150  -0.956  -2.353  0.00  0.00     0.210 HD
ENDBRANCH  15  16
BRANCH  15  18
HETATM   18  C   UNK N   1       2.607   1.552  -0.162  0.00  0.00     0.064 C 
BRANCH  18  19
HETATM   19  C   UNK N   1       4.099   1.261  -0.098  0.00  0.00     0.130 C 
BRANCH  19  20
HETATM   20  O   UNK N   1       4.357   0.093   0.626  0.00  0.00    -0.395 OA
HETATM   21  H   UNK N   1       3.745  -0.467   1.128  0.00  0.00     0.210 HD
ENDBRANCH  19  20
BRANCH  19  22
HETATM   22  C   UNK N   1       4.777   2.444   0.574  0.00  0.00     0.141 C 
BRANCH  22  23
HETATM   23  C   UNK N   1       6.226   2.531   0.222  0.00  0.00     0.141 C 
HETATM   24  O   UNK N   1       6.654   3.542  -0.307  0.00  0.00    -0.650 OA
BRANCH  23  25
HETATM   25  O   UNK N   1       7.056   1.500   0.470  0.00  0.00    -0.776 OA
HETATM   26  H   UNK N   1       6.723   0.641   0.642  0.00  0.00     0.167 HD
ENDBRANCH  23  25
ENDBRANCH  22  23
ENDBRANCH  19  22
ENDBRANCH  18  19
ENDBRANCH  15  18
ENDBRANCH  14  15
ENDBRANCH  13  14
ENDBRANCH   6  13
BRANCH   8  27
HETATM   27  O   UNK N   1      -1.121  -1.237   0.265  0.00  0.00    -0.315 OA
BRANCH  27  28
HETATM   28  C   UNK N   1      -0.720  -2.522  -0.008  0.00  0.00     0.263 C 
HETATM   29  O   UNK N   1      -1.516  -3.330  -0.477  0.00  0.00    -0.265 OA
BRANCH  28  30
HETATM   30  C   UNK N   1       0.701  -2.964   0.264  0.00  0.00     0.081 C 
HETATM   31  C   UNK N   1       1.052  -2.692   1.718  0.00  0.00     0.020 C 
BRANCH  30  32
HETATM   32  C   UNK N   1       0.903  -4.451  -0.049  0.00  0.00     0.010 C 
HETATM   33  C   UNK N   1       2.363  -4.865   0.051  0.00  0.00     0.006 C 
ENDBRANCH  30  32
ENDBRANCH  28  30
ENDBRANCH  27  28
ENDBRANCH   8  27
TORSDOF 14
