MODEL 1
REMARK VINA RESULT:      -7.3      0.000      0.000
REMARK  14 active torsions:
REMARK  status: ('A' for Active; 'I' for Inactive)
REMARK    1  A    between atoms: O_1  and  C_11 
REMARK    2  A    between atoms: C_14  and  O_2 
REMARK    3  A    between atoms: C_8  and  O_4 
REMARK    4  A    between atoms: C_16  and  O_5 
REMARK    5  A    between atoms: O_5  and  C_25 
REMARK    6  A    between atoms: C_8  and  C_17 
REMARK    7  A    between atoms: C_8  and  C_18 
REMARK    8  A    between atoms: C_11  and  C_22 
REMARK    9  A    between atoms: C_13  and  C_19 
REMARK   10  A    between atoms: C_14  and  C_18 
REMARK   11  A    between atoms: C_14  and  C_22 
REMARK   12  A    between atoms: C_17  and  C_19 
REMARK   13  A    between atoms: C_25  and  C_26 
REMARK   14  A    between atoms: C_26  and  C_28 
ROOT
HETATM    1  C   UNK N   1      27.967  28.659  -6.548  0.00  0.00     0.004 C 
HETATM    2  C   UNK N   1      27.484  27.530  -7.364  0.00  0.00    -0.055 C 
HETATM    3  C   UNK N   1      27.702  28.737  -5.240  0.00  0.00    -0.022 C 
HETATM    4  C   UNK N   1      26.518  26.496  -6.757  0.00  0.00     0.052 C 
HETATM    5  C   UNK N   1      26.955  27.658  -4.508  0.00  0.00     0.009 C 
HETATM    6  C   UNK N   1      26.945  26.296  -5.273  0.00  0.00     0.004 C 
HETATM    7  C   UNK N   1      27.940  27.443  -8.623  0.00  0.00    -0.015 C 
HETATM    8  C   UNK N   1      26.481  25.199  -7.638  0.00  0.00     0.141 C 
HETATM    9  C   UNK N   1      26.272  25.645  -9.086  0.00  0.00     0.041 C 
HETATM   10  C   UNK N   1      25.556  28.196  -4.225  0.00  0.00     0.014 C 
HETATM   11  C   UNK N   1      27.504  26.380  -9.589  0.00  0.00     0.007 C 
HETATM   12  C   UNK N   1      27.172  27.014 -10.922  0.00  0.00     0.014 C 
ENDROOT
BRANCH   6  13
HETATM   13  C   UNK N   1      26.027  25.353  -4.501  0.00  0.00     0.009 C 
BRANCH  13  14
HETATM   14  C   UNK N   1      26.653  24.009  -4.191  0.00  0.00     0.032 C 
BRANCH  14  15
HETATM   15  C   UNK N   1      27.779  24.169  -3.184  0.00  0.00     0.120 C 
BRANCH  15  16
HETATM   16  O   UNK N   1      27.334  23.691  -1.951  0.00  0.00    -0.395 OA
HETATM   17  H   UNK N   1      26.590  23.775  -1.334  0.00  0.00     0.210 HD
ENDBRANCH  15  16
BRANCH  15  18
HETATM   18  C   UNK N   1      29.033  23.422  -3.639  0.00  0.00     0.064 C 
BRANCH  18  19
HETATM   19  C   UNK N   1      29.615  22.479  -2.596  0.00  0.00     0.130 C 
BRANCH  19  20
HETATM   20  O   UNK N   1      30.348  23.178  -1.633  0.00  0.00    -0.395 OA
HETATM   21  H   UNK N   1      30.481  24.134  -1.536  0.00  0.00     0.210 HD
ENDBRANCH  19  20
BRANCH  19  22
HETATM   22  C   UNK N   1      30.519  21.489  -3.313  0.00  0.00     0.141 C 
BRANCH  22  23
HETATM   23  C   UNK N   1      31.964  21.801  -3.104  0.00  0.00     0.141 C 
HETATM   24  O   UNK N   1      32.532  22.556  -3.873  0.00  0.00    -0.650 OA
BRANCH  23  25
HETATM   25  O   UNK N   1      32.646  21.243  -2.085  0.00  0.00    -0.776 OA
HETATM   26  H   UNK N   1      32.678  21.653  -1.242  0.00  0.00     0.167 HD
ENDBRANCH  23  25
ENDBRANCH  22  23
ENDBRANCH  19  22
ENDBRANCH  18  19
ENDBRANCH  15  18
ENDBRANCH  14  15
ENDBRANCH  13  14
ENDBRANCH   6  13
BRANCH   8  27
HETATM   27  O   UNK N   1      25.477  24.298  -7.280  0.00  0.00    -0.315 OA
BRANCH  27  28
HETATM   28  C   UNK N   1      25.331  23.068  -7.873  0.00  0.00     0.263 C 
HETATM   29  O   UNK N   1      24.428  22.877  -8.682  0.00  0.00    -0.265 OA
BRANCH  28  30
HETATM   30  C   UNK N   1      26.271  21.931  -7.540  0.00  0.00     0.081 C 
HETATM   31  C   UNK N   1      25.633  20.607  -7.930  0.00  0.00     0.020 C 
BRANCH  30  32
HETATM   32  C   UNK N   1      27.621  22.085  -8.250  0.00  0.00     0.010 C 
HETATM   33  C   UNK N   1      28.749  21.399  -7.493  0.00  0.00     0.006 C 
ENDBRANCH  30  32
ENDBRANCH  28  30
ENDBRANCH  27  28
ENDBRANCH   8  27
TORSDOF 14
ENDMDL
MODEL 2
REMARK VINA RESULT:      -6.7     10.587     14.594
REMARK  14 active torsions:
REMARK  status: ('A' for Active; 'I' for Inactive)
REMARK    1  A    between atoms: O_1  and  C_11 
REMARK    2  A    between atoms: C_14  and  O_2 
REMARK    3  A    between atoms: C_8  and  O_4 
REMARK    4  A    between atoms: C_16  and  O_5 
REMARK    5  A    between atoms: O_5  and  C_25 
REMARK    6  A    between atoms: C_8  and  C_17 
REMARK    7  A    between atoms: C_8  and  C_18 
REMARK    8  A    between atoms: C_11  and  C_22 
REMARK    9  A    between atoms: C_13  and  C_19 
REMARK   10  A    between atoms: C_14  and  C_18 
REMARK   11  A    between atoms: C_14  and  C_22 
REMARK   12  A    between atoms: C_17  and  C_19 
REMARK   13  A    between atoms: C_25  and  C_26 
REMARK   14  A    between atoms: C_26  and  C_28 
ROOT
HETATM    1  C   UNK N   1      27.598  20.552   6.245  0.00  0.00     0.004 C 
HETATM    2  C   UNK N   1      27.707  19.083   6.319  0.00  0.00    -0.055 C 
HETATM    3  C   UNK N   1      26.678  21.144   5.477  0.00  0.00    -0.022 C 
HETATM    4  C   UNK N   1      26.868  18.197   5.381  0.00  0.00     0.052 C 
HETATM    5  C   UNK N   1      25.662  20.359   4.694  0.00  0.00     0.009 C 
HETATM    6  C   UNK N   1      25.486  18.897   5.215  0.00  0.00     0.004 C 
HETATM    7  C   UNK N   1      28.539  18.575   7.243  0.00  0.00    -0.015 C 
HETATM    8  C   UNK N   1      26.826  16.722   5.912  0.00  0.00     0.141 C 
HETATM    9  C   UNK N   1      28.268  16.315   6.219  0.00  0.00     0.041 C 
HETATM   10  C   UNK N   1      26.079  20.427   3.228  0.00  0.00     0.014 C 
HETATM   11  C   UNK N   1      28.793  17.105   7.408  0.00  0.00     0.007 C 
HETATM   12  C   UNK N   1      30.281  16.860   7.527  0.00  0.00     0.014 C 
ENDROOT
BRANCH   6  13
HETATM   13  C   UNK N   1      24.559  18.180   4.239  0.00  0.00     0.009 C 
BRANCH  13  14
HETATM   14  C   UNK N   1      23.140  18.024   4.747  0.00  0.00     0.032 C 
BRANCH  14  15
HETATM   15  C   UNK N   1      22.145  18.377   3.654  0.00  0.00     0.120 C 
BRANCH  15  16
HETATM   16  O   UNK N   1      21.651  17.188   3.114  0.00  0.00    -0.395 OA
HETATM   17  H   UNK N   1      20.819  16.705   2.988  0.00  0.00     0.210 HD
ENDBRANCH  15  16
BRANCH  15  18
HETATM   18  C   UNK N   1      21.009  19.240   4.203  0.00  0.00     0.064 C 
BRANCH  18  19
HETATM   19  C   UNK N   1      20.328  20.117   3.163  0.00  0.00     0.130 C 
BRANCH  19  20
HETATM   20  O   UNK N   1      19.489  19.364   2.336  0.00  0.00    -0.395 OA
HETATM   21  H   UNK N   1      19.698  18.595   1.784  0.00  0.00     0.210 HD
ENDBRANCH  19  20
BRANCH  19  22
HETATM   22  C   UNK N   1      21.413  20.779   2.329  0.00  0.00     0.141 C 
BRANCH  22  23
HETATM   23  C   UNK N   1      20.913  21.181   0.980  0.00  0.00     0.141 C 
HETATM   24  O   UNK N   1      21.006  20.399   0.049  0.00  0.00    -0.650 OA
BRANCH  23  25
HETATM   25  O   UNK N   1      20.376  22.400   0.781  0.00  0.00    -0.776 OA
HETATM   26  H   UNK N   1      20.852  23.072   0.334  0.00  0.00     0.167 HD
ENDBRANCH  23  25
ENDBRANCH  22  23
ENDBRANCH  19  22
ENDBRANCH  18  19
ENDBRANCH  15  18
ENDBRANCH  14  15
ENDBRANCH  13  14
ENDBRANCH   6  13
BRANCH   8  27
HETATM   27  O   UNK N   1      26.268  15.811   5.015  0.00  0.00    -0.315 OA
BRANCH  27  28
HETATM   28  C   UNK N   1      25.233  14.972   5.348  0.00  0.00     0.263 C 
HETATM   29  O   UNK N   1      24.666  14.316   4.479  0.00  0.00    -0.265 OA
BRANCH  28  30
HETATM   30  C   UNK N   1      24.772  14.843   6.783  0.00  0.00     0.081 C 
HETATM   31  C   UNK N   1      23.255  14.752   6.827  0.00  0.00     0.020 C 
BRANCH  30  32
HETATM   32  C   UNK N   1      25.385  13.616   7.468  0.00  0.00     0.010 C 
HETATM   33  C   UNK N   1      24.417  12.957   8.438  0.00  0.00     0.006 C 
ENDBRANCH  30  32
ENDBRANCH  28  30
ENDBRANCH  27  28
ENDBRANCH   8  27
TORSDOF 14
ENDMDL
MODEL 3
REMARK VINA RESULT:      -6.6     10.597     14.776
REMARK  14 active torsions:
REMARK  status: ('A' for Active; 'I' for Inactive)
REMARK    1  A    between atoms: O_1  and  C_11 
REMARK    2  A    between atoms: C_14  and  O_2 
REMARK    3  A    between atoms: C_8  and  O_4 
REMARK    4  A    between atoms: C_16  and  O_5 
REMARK    5  A    between atoms: O_5  and  C_25 
REMARK    6  A    between atoms: C_8  and  C_17 
REMARK    7  A    between atoms: C_8  and  C_18 
REMARK    8  A    between atoms: C_11  and  C_22 
REMARK    9  A    between atoms: C_13  and  C_19 
REMARK   10  A    between atoms: C_14  and  C_18 
REMARK   11  A    between atoms: C_14  and  C_22 
REMARK   12  A    between atoms: C_17  and  C_19 
REMARK   13  A    between atoms: C_25  and  C_26 
REMARK   14  A    between atoms: C_26  and  C_28 
ROOT
HETATM    1  C   UNK N   1      29.981  18.188   9.321  0.00  0.00     0.004 C 
HETATM    2  C   UNK N   1      30.896  17.799   8.232  0.00  0.00    -0.055 C 
HETATM    3  C   UNK N   1      28.675  18.367   9.103  0.00  0.00    -0.022 C 
HETATM    4  C   UNK N   1      30.391  17.753   6.778  0.00  0.00     0.052 C 
HETATM    5  C   UNK N   1      28.046  18.126   7.759  0.00  0.00     0.009 C 
HETATM    6  C   UNK N   1      28.924  17.232   6.826  0.00  0.00     0.004 C 
HETATM    7  C   UNK N   1      32.153  17.472   8.572  0.00  0.00    -0.015 C 
HETATM    8  C   UNK N   1      31.379  16.929   5.881  0.00  0.00     0.141 C 
HETATM    9  C   UNK N   1      32.787  17.460   6.158  0.00  0.00     0.041 C 
HETATM   10  C   UNK N   1      27.735  19.493   7.159  0.00  0.00     0.014 C 
HETATM   11  C   UNK N   1      33.211  17.103   7.574  0.00  0.00     0.007 C 
HETATM   12  C   UNK N   1      34.489  17.847   7.893  0.00  0.00     0.014 C 
ENDROOT
BRANCH   6  13
HETATM   13  C   UNK N   1      28.247  17.206   5.460  0.00  0.00     0.009 C 
BRANCH  13  14
HETATM   14  C   UNK N   1      27.277  16.057   5.280  0.00  0.00     0.032 C 
BRANCH  14  15
HETATM   15  C   UNK N   1      25.897  16.580   4.917  0.00  0.00     0.120 C 
BRANCH  15  16
HETATM   16  O   UNK N   1      25.144  16.674   6.089  0.00  0.00    -0.395 OA
HETATM   17  H   UNK N   1      25.005  17.257   6.852  0.00  0.00     0.210 HD
ENDBRANCH  15  16
BRANCH  15  18
HETATM   18  C   UNK N   1      25.991  17.938   4.219  0.00  0.00     0.064 C 
BRANCH  18  19
HETATM   19  C   UNK N   1      24.829  18.876   4.513  0.00  0.00     0.130 C 
BRANCH  19  20
HETATM   20  O   UNK N   1      23.672  18.476   3.837  0.00  0.00    -0.395 OA
HETATM   21  H   UNK N   1      23.349  18.741   2.962  0.00  0.00     0.210 HD
ENDBRANCH  19  20
BRANCH  19  22
HETATM   22  C   UNK N   1      25.232  20.271   4.065  0.00  0.00     0.141 C 
BRANCH  22  23
HETATM   23  C   UNK N   1      24.459  20.718   2.867  0.00  0.00     0.141 C 
HETATM   24  O   UNK N   1      24.940  20.576   1.757  0.00  0.00    -0.650 OA
BRANCH  23  25
HETATM   25  O   UNK N   1      23.246  21.288   3.006  0.00  0.00    -0.776 OA
HETATM   26  H   UNK N   1      23.002  21.719   3.801  0.00  0.00     0.167 HD
ENDBRANCH  23  25
ENDBRANCH  22  23
ENDBRANCH  19  22
ENDBRANCH  18  19
ENDBRANCH  15  18
ENDBRANCH  14  15
ENDBRANCH  13  14
ENDBRANCH   6  13
BRANCH   8  27
HETATM   27  O   UNK N   1      31.112  17.015   4.515  0.00  0.00    -0.315 OA
BRANCH  27  28
HETATM   28  C   UNK N   1      31.545  16.079   3.607  0.00  0.00     0.263 C 
HETATM   29  O   UNK N   1      32.683  16.141   3.153  0.00  0.00    -0.265 OA
BRANCH  28  30
HETATM   30  C   UNK N   1      30.632  14.963   3.151  0.00  0.00     0.081 C 
HETATM   31  C   UNK N   1      30.215  14.121   4.346  0.00  0.00     0.020 C 
BRANCH  30  32
HETATM   32  C   UNK N   1      29.386  15.503   2.438  0.00  0.00     0.010 C 
HETATM   33  C   UNK N   1      28.572  14.395   1.787  0.00  0.00     0.006 C 
ENDBRANCH  30  32
ENDBRANCH  28  30
ENDBRANCH  27  28
ENDBRANCH   8  27
TORSDOF 14
ENDMDL
MODEL 4
REMARK VINA RESULT:      -6.6     13.156     16.020
REMARK  14 active torsions:
REMARK  status: ('A' for Active; 'I' for Inactive)
REMARK    1  A    between atoms: O_1  and  C_11 
REMARK    2  A    between atoms: C_14  and  O_2 
REMARK    3  A    between atoms: C_8  and  O_4 
REMARK    4  A    between atoms: C_16  and  O_5 
REMARK    5  A    between atoms: O_5  and  C_25 
REMARK    6  A    between atoms: C_8  and  C_17 
REMARK    7  A    between atoms: C_8  and  C_18 
REMARK    8  A    between atoms: C_11  and  C_22 
REMARK    9  A    between atoms: C_13  and  C_19 
REMARK   10  A    between atoms: C_14  and  C_18 
REMARK   11  A    between atoms: C_14  and  C_22 
REMARK   12  A    between atoms: C_17  and  C_19 
REMARK   13  A    between atoms: C_25  and  C_26 
REMARK   14  A    between atoms: C_26  and  C_28 
ROOT
HETATM    1  C   UNK N   1      27.949  18.908   7.593  0.00  0.00     0.004 C 
HETATM    2  C   UNK N   1      28.121  17.961   6.476  0.00  0.00    -0.055 C 
HETATM    3  C   UNK N   1      28.800  18.933   8.623  0.00  0.00    -0.022 C 
HETATM    4  C   UNK N   1      29.198  16.863   6.553  0.00  0.00     0.052 C 
HETATM    5  C   UNK N   1      30.015  18.049   8.679  0.00  0.00     0.009 C 
HETATM    6  C   UNK N   1      30.425  17.484   7.282  0.00  0.00     0.004 C 
HETATM    7  C   UNK N   1      27.325  18.121   5.407  0.00  0.00    -0.015 C 
HETATM    8  C   UNK N   1      29.478  16.270   5.128  0.00  0.00     0.141 C 
HETATM    9  C   UNK N   1      28.121  15.933   4.507  0.00  0.00     0.041 C 
HETATM   10  C   UNK N   1      29.726  16.958   9.706  0.00  0.00     0.014 C 
HETATM   11  C   UNK N   1      27.349  17.209   4.214  0.00  0.00     0.007 C 
HETATM   12  C   UNK N   1      25.932  16.836   3.836  0.00  0.00     0.014 C 
ENDROOT
BRANCH   6  13
HETATM   13  C   UNK N   1      31.558  16.490   7.514  0.00  0.00     0.009 C 
BRANCH  13  14
HETATM   14  C   UNK N   1      32.935  17.122   7.515  0.00  0.00     0.032 C 
BRANCH  14  15
HETATM   15  C   UNK N   1      33.812  16.478   8.576  0.00  0.00     0.120 C 
BRANCH  15  16
HETATM   16  O   UNK N   1      33.863  17.333   9.678  0.00  0.00    -0.395 OA
HETATM   17  H   UNK N   1      34.493  17.705  10.315  0.00  0.00     0.210 HD
ENDBRANCH  15  16
BRANCH  15  18
HETATM   18  C   UNK N   1      33.271  15.105   8.976  0.00  0.00     0.064 C 
BRANCH  18  19
HETATM   19  C   UNK N   1      34.049  14.424  10.092  0.00  0.00     0.130 C 
BRANCH  19  20
HETATM   20  O   UNK N   1      33.828  15.054  11.321  0.00  0.00    -0.395 OA
HETATM   21  H   UNK N   1      33.354  15.877  11.514  0.00  0.00     0.210 HD
ENDBRANCH  19  20
BRANCH  19  22
HETATM   22  C   UNK N   1      35.526  14.490   9.739  0.00  0.00     0.141 C 
BRANCH  22  23
HETATM   23  C   UNK N   1      36.327  15.157  10.808  0.00  0.00     0.141 C 
HETATM   24  O   UNK N   1      36.532  16.357  10.743  0.00  0.00    -0.650 OA
BRANCH  23  25
HETATM   25  O   UNK N   1      36.835  14.444  11.832  0.00  0.00    -0.776 OA
HETATM   26  H   UNK N   1      36.982  14.837  12.669  0.00  0.00     0.167 HD
ENDBRANCH  23  25
ENDBRANCH  22  23
ENDBRANCH  19  22
ENDBRANCH  18  19
ENDBRANCH  15  18
ENDBRANCH  14  15
ENDBRANCH  13  14
ENDBRANCH   6  13
BRANCH   8  27
HETATM   27  O   UNK N   1      30.281  15.129   5.136  0.00  0.00    -0.315 OA
BRANCH  27  28
HETATM   28  C   UNK N   1      31.184  14.843   4.142  0.00  0.00     0.263 C 
HETATM   29  O   UNK N   1      30.825  14.237   3.137  0.00  0.00    -0.265 OA
BRANCH  28  30
HETATM   30  C   UNK N   1      32.632  15.266   4.265  0.00  0.00     0.081 C 
HETATM   31  C   UNK N   1      33.538  14.094   3.926  0.00  0.00     0.020 C 
BRANCH  30  32
HETATM   32  C   UNK N   1      32.956  16.454   3.353  0.00  0.00     0.010 C 
HETATM   33  C   UNK N   1      32.402  17.763   3.895  0.00  0.00     0.006 C 
ENDBRANCH  30  32
ENDBRANCH  28  30
ENDBRANCH  27  28
ENDBRANCH   8  27
TORSDOF 14
ENDMDL
MODEL 5
REMARK VINA RESULT:      -6.5      1.974      4.962
REMARK  14 active torsions:
REMARK  status: ('A' for Active; 'I' for Inactive)
REMARK    1  A    between atoms: O_1  and  C_11 
REMARK    2  A    between atoms: C_14  and  O_2 
REMARK    3  A    between atoms: C_8  and  O_4 
REMARK    4  A    between atoms: C_16  and  O_5 
REMARK    5  A    between atoms: O_5  and  C_25 
REMARK    6  A    between atoms: C_8  and  C_17 
REMARK    7  A    between atoms: C_8  and  C_18 
REMARK    8  A    between atoms: C_11  and  C_22 
REMARK    9  A    between atoms: C_13  and  C_19 
REMARK   10  A    between atoms: C_14  and  C_18 
REMARK   11  A    between atoms: C_14  and  C_22 
REMARK   12  A    between atoms: C_17  and  C_19 
REMARK   13  A    between atoms: C_25  and  C_26 
REMARK   14  A    between atoms: C_26  and  C_28 
ROOT
HETATM    1  C   UNK N   1      27.554  21.323  -8.281  0.00  0.00     0.004 C 
HETATM    2  C   UNK N   1      27.232  22.753  -8.116  0.00  0.00    -0.055 C 
HETATM    3  C   UNK N   1      28.546  20.748  -7.594  0.00  0.00    -0.022 C 
HETATM    4  C   UNK N   1      28.144  23.657  -7.267  0.00  0.00     0.052 C 
HETATM    5  C   UNK N   1      29.351  21.500  -6.569  0.00  0.00     0.009 C 
HETATM    6  C   UNK N   1      28.642  22.798  -6.068  0.00  0.00     0.004 C 
HETATM    7  C   UNK N   1      26.117  23.204  -8.712  0.00  0.00    -0.015 C 
HETATM    8  C   UNK N   1      27.401  24.987  -6.893  0.00  0.00     0.141 C 
HETATM    9  C   UNK N   1      26.801  25.545  -8.185  0.00  0.00     0.041 C 
HETATM   10  C   UNK N   1      30.721  21.765  -7.186  0.00  0.00     0.014 C 
HETATM   11  C   UNK N   1      25.683  24.640  -8.676  0.00  0.00     0.007 C 
HETATM   12  C   UNK N   1      25.284  25.083 -10.067  0.00  0.00     0.014 C 
ENDROOT
BRANCH   6  13
HETATM   13  C   UNK N   1      29.631  23.531  -5.168  0.00  0.00     0.009 C 
BRANCH  13  14
HETATM   14  C   UNK N   1      29.417  23.277  -3.690  0.00  0.00     0.032 C 
BRANCH  14  15
HETATM   15  C   UNK N   1      30.711  23.493  -2.923  0.00  0.00     0.120 C 
BRANCH  15  16
HETATM   16  O   UNK N   1      30.510  23.085  -1.603  0.00  0.00    -0.395 OA
HETATM   17  H   UNK N   1      30.732  23.338  -0.693  0.00  0.00     0.210 HD
ENDBRANCH  15  16
BRANCH  15  18
HETATM   18  C   UNK N   1      31.864  22.720  -3.563  0.00  0.00     0.064 C 
BRANCH  18  19
HETATM   19  C   UNK N   1      31.943  21.257  -3.153  0.00  0.00     0.130 C 
BRANCH  19  20
HETATM   20  O   UNK N   1      32.798  21.082  -2.061  0.00  0.00    -0.395 OA
HETATM   21  H   UNK N   1      33.265  21.748  -1.533  0.00  0.00     0.210 HD
ENDBRANCH  19  20
BRANCH  19  22
HETATM   22  C   UNK N   1      32.460  20.465  -4.344  0.00  0.00     0.141 C 
BRANCH  22  23
HETATM   23  C   UNK N   1      33.674  19.667  -3.999  0.00  0.00     0.141 C 
HETATM   24  O   UNK N   1      34.771  20.196  -4.040  0.00  0.00    -0.650 OA
BRANCH  23  25
HETATM   25  O   UNK N   1      33.568  18.368  -3.658  0.00  0.00    -0.776 OA
HETATM   26  H   UNK N   1      32.731  17.951  -3.595  0.00  0.00     0.167 HD
ENDBRANCH  23  25
ENDBRANCH  22  23
ENDBRANCH  19  22
ENDBRANCH  18  19
ENDBRANCH  15  18
ENDBRANCH  14  15
ENDBRANCH  13  14
ENDBRANCH   6  13
BRANCH   8  27
HETATM   27  O   UNK N   1      28.222  25.951  -6.308  0.00  0.00    -0.315 OA
BRANCH  27  28
HETATM   28  C   UNK N   1      27.732  27.073  -5.685  0.00  0.00     0.263 C 
HETATM   29  O   UNK N   1      27.826  28.170  -6.228  0.00  0.00    -0.265 OA
BRANCH  28  30
HETATM   30  C   UNK N   1      27.073  26.979  -4.327  0.00  0.00     0.081 C 
HETATM   31  C   UNK N   1      27.078  28.346  -3.661  0.00  0.00     0.020 C 
BRANCH  30  32
HETATM   32  C   UNK N   1      25.636  26.456  -4.428  0.00  0.00     0.010 C 
HETATM   33  C   UNK N   1      24.846  27.158  -5.521  0.00  0.00     0.006 C 
ENDBRANCH  30  32
ENDBRANCH  28  30
ENDBRANCH  27  28
ENDBRANCH   8  27
TORSDOF 14
ENDMDL
MODEL 6
REMARK VINA RESULT:      -6.4     14.127     17.506
REMARK  14 active torsions:
REMARK  status: ('A' for Active; 'I' for Inactive)
REMARK    1  A    between atoms: O_1  and  C_11 
REMARK    2  A    between atoms: C_14  and  O_2 
REMARK    3  A    between atoms: C_8  and  O_4 
REMARK    4  A    between atoms: C_16  and  O_5 
REMARK    5  A    between atoms: O_5  and  C_25 
REMARK    6  A    between atoms: C_8  and  C_17 
REMARK    7  A    between atoms: C_8  and  C_18 
REMARK    8  A    between atoms: C_11  and  C_22 
REMARK    9  A    between atoms: C_13  and  C_19 
REMARK   10  A    between atoms: C_14  and  C_18 
REMARK   11  A    between atoms: C_14  and  C_22 
REMARK   12  A    between atoms: C_17  and  C_19 
REMARK   13  A    between atoms: C_25  and  C_26 
REMARK   14  A    between atoms: C_26  and  C_28 
ROOT
HETATM    1  C   UNK N   1      19.596  15.417   9.394  0.00  0.00     0.004 C 
HETATM    2  C   UNK N   1      20.692  14.482   9.081  0.00  0.00    -0.055 C 
HETATM    3  C   UNK N   1      19.236  16.379   8.539  0.00  0.00    -0.022 C 
HETATM    4  C   UNK N   1      21.559  14.699   7.828  0.00  0.00     0.052 C 
HETATM    5  C   UNK N   1      19.876  16.531   7.187  0.00  0.00     0.009 C 
HETATM    6  C   UNK N   1      20.614  15.239   6.713  0.00  0.00     0.004 C 
HETATM    7  C   UNK N   1      20.871  13.445   9.914  0.00  0.00    -0.015 C 
HETATM    8  C   UNK N   1      22.352  13.391   7.477  0.00  0.00     0.141 C 
HETATM    9  C   UNK N   1      23.022  12.914   8.766  0.00  0.00     0.041 C 
HETATM   10  C   UNK N   1      20.789  17.750   7.259  0.00  0.00     0.014 C 
HETATM   11  C   UNK N   1      21.971  12.436   9.757  0.00  0.00     0.007 C 
HETATM   12  C   UNK N   1      22.642  12.206  11.093  0.00  0.00     0.014 C 
ENDROOT
BRANCH   6  13
HETATM   13  C   UNK N   1      21.343  15.585   5.419  0.00  0.00     0.009 C 
BRANCH  13  14
HETATM   14  C   UNK N   1      20.489  15.433   4.177  0.00  0.00     0.032 C 
BRANCH  14  15
HETATM   15  C   UNK N   1      20.374  16.761   3.448  0.00  0.00     0.120 C 
BRANCH  15  16
HETATM   16  O   UNK N   1      19.173  17.364   3.825  0.00  0.00    -0.395 OA
HETATM   17  H   UNK N   1      18.565  18.069   3.554  0.00  0.00     0.210 HD
ENDBRANCH  15  16
BRANCH  15  18
HETATM   18  C   UNK N   1      21.563  17.668   3.767  0.00  0.00     0.064 C 
BRANCH  18  19
HETATM   19  C   UNK N   1      21.393  19.109   3.312  0.00  0.00     0.130 C 
BRANCH  19  20
HETATM   20  O   UNK N   1      20.634  19.844   4.227  0.00  0.00    -0.395 OA
HETATM   21  H   UNK N   1      20.920  20.318   5.023  0.00  0.00     0.210 HD
ENDBRANCH  19  20
BRANCH  19  22
HETATM   22  C   UNK N   1      20.697  19.093   1.961  0.00  0.00     0.141 C 
BRANCH  22  23
HETATM   23  C   UNK N   1      20.895  20.372   1.215  0.00  0.00     0.141 C 
HETATM   24  O   UNK N   1      21.323  21.349   1.805  0.00  0.00    -0.650 OA
BRANCH  23  25
HETATM   25  O   UNK N   1      20.592  20.458  -0.094  0.00  0.00    -0.776 OA
HETATM   26  H   UNK N   1      20.490  21.289  -0.514  0.00  0.00     0.167 HD
ENDBRANCH  23  25
ENDBRANCH  22  23
ENDBRANCH  19  22
ENDBRANCH  18  19
ENDBRANCH  15  18
ENDBRANCH  14  15
ENDBRANCH  13  14
ENDBRANCH   6  13
BRANCH   8  27
HETATM   27  O   UNK N   1      23.319  13.562   6.487  0.00  0.00    -0.315 OA
BRANCH  27  28
HETATM   28  C   UNK N   1      23.422  12.739   5.392  0.00  0.00     0.263 C 
HETATM   29  O   UNK N   1      24.353  12.876   4.604  0.00  0.00    -0.265 OA
BRANCH  28  30
HETATM   30  C   UNK N   1      22.396  11.657   5.137  0.00  0.00     0.081 C 
HETATM   31  C   UNK N   1      21.778  11.852   3.762  0.00  0.00     0.020 C 
BRANCH  30  32
HETATM   32  C   UNK N   1      23.012  10.257   5.235  0.00  0.00     0.010 C 
HETATM   33  C   UNK N   1      23.746  10.044   6.550  0.00  0.00     0.006 C 
ENDBRANCH  30  32
ENDBRANCH  28  30
ENDBRANCH  27  28
ENDBRANCH   8  27
TORSDOF 14
ENDMDL
MODEL 7
REMARK VINA RESULT:      -6.4     13.588     17.230
REMARK  14 active torsions:
REMARK  status: ('A' for Active; 'I' for Inactive)
REMARK    1  A    between atoms: O_1  and  C_11 
REMARK    2  A    between atoms: C_14  and  O_2 
REMARK    3  A    between atoms: C_8  and  O_4 
REMARK    4  A    between atoms: C_16  and  O_5 
REMARK    5  A    between atoms: O_5  and  C_25 
REMARK    6  A    between atoms: C_8  and  C_17 
REMARK    7  A    between atoms: C_8  and  C_18 
REMARK    8  A    between atoms: C_11  and  C_22 
REMARK    9  A    between atoms: C_13  and  C_19 
REMARK   10  A    between atoms: C_14  and  C_18 
REMARK   11  A    between atoms: C_14  and  C_22 
REMARK   12  A    between atoms: C_17  and  C_19 
REMARK   13  A    between atoms: C_25  and  C_26 
REMARK   14  A    between atoms: C_26  and  C_28 
ROOT
HETATM    1  C   UNK N   1      19.893  15.683   9.003  0.00  0.00     0.004 C 
HETATM    2  C   UNK N   1      20.880  14.612   8.775  0.00  0.00    -0.055 C 
HETATM    3  C   UNK N   1      19.586  16.563   8.046  0.00  0.00    -0.022 C 
HETATM    4  C   UNK N   1      21.706  14.586   7.476  0.00  0.00     0.052 C 
HETATM    5  C   UNK N   1      20.175  16.483   6.664  0.00  0.00     0.009 C 
HETATM    6  C   UNK N   1      20.766  15.075   6.334  0.00  0.00     0.004 C 
HETATM    7  C   UNK N   1      20.999  13.673   9.727  0.00  0.00    -0.015 C 
HETATM    8  C   UNK N   1      22.355  13.173   7.268  0.00  0.00     0.141 C 
HETATM    9  C   UNK N   1      23.036  12.794   8.584  0.00  0.00     0.041 C 
HETATM   10  C   UNK N   1      21.201  17.605   6.550  0.00  0.00     0.014 C 
HETATM   11  C   UNK N   1      21.991  12.549   9.662  0.00  0.00     0.007 C 
HETATM   12  C   UNK N   1      22.698  12.421  10.993  0.00  0.00     0.014 C 
ENDROOT
BRANCH   6  13
HETATM   13  C   UNK N   1      21.464  15.186   4.982  0.00  0.00     0.009 C 
BRANCH  13  14
HETATM   14  C   UNK N   1      20.703  14.533   3.847  0.00  0.00     0.032 C 
BRANCH  14  15
HETATM   15  C   UNK N   1      20.619  15.475   2.657  0.00  0.00     0.120 C 
BRANCH  15  16
HETATM   16  O   UNK N   1      19.277  15.794   2.447  0.00  0.00    -0.395 OA
HETATM   17  H   UNK N   1      18.691  16.191   1.783  0.00  0.00     0.210 HD
ENDBRANCH  15  16
BRANCH  15  18
HETATM   18  C   UNK N   1      21.450  16.736   2.895  0.00  0.00     0.064 C 
BRANCH  18  19
HETATM   19  C   UNK N   1      20.666  18.035   2.778  0.00  0.00     0.130 C 
BRANCH  19  20
HETATM   20  O   UNK N   1      20.187  18.223   1.478  0.00  0.00    -0.395 OA
HETATM   21  H   UNK N   1      20.263  18.998   0.901  0.00  0.00     0.210 HD
ENDBRANCH  19  20
BRANCH  19  22
HETATM   22  C   UNK N   1      21.596  19.177   3.154  0.00  0.00     0.141 C 
BRANCH  22  23
HETATM   23  C   UNK N   1      20.999  20.510   2.842  0.00  0.00     0.141 C 
HETATM   24  O   UNK N   1      21.249  21.043   1.775  0.00  0.00    -0.650 OA
BRANCH  23  25
HETATM   25  O   UNK N   1      20.201  21.130   3.732  0.00  0.00    -0.776 OA
HETATM   26  H   UNK N   1      19.394  21.525   3.466  0.00  0.00     0.167 HD
ENDBRANCH  23  25
ENDBRANCH  22  23
ENDBRANCH  19  22
ENDBRANCH  18  19
ENDBRANCH  15  18
ENDBRANCH  14  15
ENDBRANCH  13  14
ENDBRANCH   6  13
BRANCH   8  27
HETATM   27  O   UNK N   1      23.288  13.124   6.232  0.00  0.00    -0.315 OA
BRANCH  27  28
HETATM   28  C   UNK N   1      24.573  13.591   6.360  0.00  0.00     0.263 C 
HETATM   29  O   UNK N   1      25.510  12.802   6.439  0.00  0.00    -0.265 OA
BRANCH  28  30
HETATM   30  C   UNK N   1      24.857  15.076   6.407  0.00  0.00     0.081 C 
HETATM   31  C   UNK N   1      26.112  15.332   7.226  0.00  0.00     0.020 C 
BRANCH  30  32
HETATM   32  C   UNK N   1      25.025  15.667   5.003  0.00  0.00     0.010 C 
HETATM   33  C   UNK N   1      24.604  17.127   4.941  0.00  0.00     0.006 C 
ENDBRANCH  30  32
ENDBRANCH  28  30
ENDBRANCH  27  28
ENDBRANCH   8  27
TORSDOF 14
ENDMDL
MODEL 8
REMARK VINA RESULT:      -6.3      2.394      6.180
REMARK  14 active torsions:
REMARK  status: ('A' for Active; 'I' for Inactive)
REMARK    1  A    between atoms: O_1  and  C_11 
REMARK    2  A    between atoms: C_14  and  O_2 
REMARK    3  A    between atoms: C_8  and  O_4 
REMARK    4  A    between atoms: C_16  and  O_5 
REMARK    5  A    between atoms: O_5  and  C_25 
REMARK    6  A    between atoms: C_8  and  C_17 
REMARK    7  A    between atoms: C_8  and  C_18 
REMARK    8  A    between atoms: C_11  and  C_22 
REMARK    9  A    between atoms: C_13  and  C_19 
REMARK   10  A    between atoms: C_14  and  C_18 
REMARK   11  A    between atoms: C_14  and  C_22 
REMARK   12  A    between atoms: C_17  and  C_19 
REMARK   13  A    between atoms: C_25  and  C_26 
REMARK   14  A    between atoms: C_26  and  C_28 
ROOT
HETATM    1  C   UNK N   1      31.036  20.604  -4.828  0.00  0.00     0.004 C 
HETATM    2  C   UNK N   1      30.193  20.897  -6.002  0.00  0.00    -0.055 C 
HETATM    3  C   UNK N   1      31.319  21.544  -3.921  0.00  0.00    -0.022 C 
HETATM    4  C   UNK N   1      29.757  22.343  -6.297  0.00  0.00     0.052 C 
HETATM    5  C   UNK N   1      30.751  22.934  -4.004  0.00  0.00     0.009 C 
HETATM    6  C   UNK N   1      29.492  23.025  -4.922  0.00  0.00     0.004 C 
HETATM    7  C   UNK N   1      29.819  19.857  -6.764  0.00  0.00    -0.015 C 
HETATM    8  C   UNK N   1      28.557  22.357  -7.309  0.00  0.00     0.141 C 
HETATM    9  C   UNK N   1      28.945  21.448  -8.477  0.00  0.00     0.041 C 
HETATM   10  C   UNK N   1      31.884  23.854  -4.449  0.00  0.00     0.014 C 
HETATM   11  C   UNK N   1      29.003  20.000  -8.016  0.00  0.00     0.007 C 
HETATM   12  C   UNK N   1      29.622  19.171  -9.120  0.00  0.00     0.014 C 
ENDROOT
BRANCH   6  13
HETATM   13  C   UNK N   1      29.125  24.501  -5.040  0.00  0.00     0.009 C 
BRANCH  13  14
HETATM   14  C   UNK N   1      28.310  25.023  -3.875  0.00  0.00     0.032 C 
BRANCH  14  15
HETATM   15  C   UNK N   1      26.838  24.704  -4.075  0.00  0.00     0.120 C 
BRANCH  15  16
HETATM   16  O   UNK N   1      26.378  24.035  -2.940  0.00  0.00    -0.395 OA
HETATM   17  H   UNK N   1      25.559  23.700  -2.542  0.00  0.00     0.210 HD
ENDBRANCH  15  16
BRANCH  15  18
HETATM   18  C   UNK N   1      26.028  25.977  -4.324  0.00  0.00     0.064 C 
BRANCH  18  19
HETATM   19  C   UNK N   1      26.455  27.167  -3.477  0.00  0.00     0.130 C 
BRANCH  19  20
HETATM   20  O   UNK N   1      25.910  27.095  -2.191  0.00  0.00    -0.395 OA
HETATM   21  H   UNK N   1      25.925  27.753  -1.479  0.00  0.00     0.210 HD
ENDBRANCH  19  20
BRANCH  19  22
HETATM   22  C   UNK N   1      25.972  28.431  -4.170  0.00  0.00     0.141 C 
BRANCH  22  23
HETATM   23  C   UNK N   1      26.473  29.665  -3.494  0.00  0.00     0.141 C 
HETATM   24  O   UNK N   1      27.432  29.590  -2.745  0.00  0.00    -0.650 OA
BRANCH  23  25
HETATM   25  O   UNK N   1      25.867  30.851  -3.692  0.00  0.00    -0.776 OA
HETATM   26  H   UNK N   1      25.555  31.362  -2.971  0.00  0.00     0.167 HD
ENDBRANCH  23  25
ENDBRANCH  22  23
ENDBRANCH  19  22
ENDBRANCH  18  19
ENDBRANCH  15  18
ENDBRANCH  14  15
ENDBRANCH  13  14
ENDBRANCH   6  13
BRANCH   8  27
HETATM   27  O   UNK N   1      28.238  23.626  -7.794  0.00  0.00    -0.315 OA
BRANCH  27  28
HETATM   28  C   UNK N   1      26.946  24.071  -7.930  0.00  0.00     0.263 C 
HETATM   29  O   UNK N   1      26.030  23.490  -7.356  0.00  0.00    -0.265 OA
BRANCH  28  30
HETATM   30  C   UNK N   1      26.630  25.277  -8.787  0.00  0.00     0.081 C 
HETATM   31  C   UNK N   1      25.405  24.990  -9.641  0.00  0.00     0.020 C 
BRANCH  30  32
HETATM   32  C   UNK N   1      26.387  26.529  -7.937  0.00  0.00     0.010 C 
HETATM   33  C   UNK N   1      27.686  27.147  -7.442  0.00  0.00     0.006 C 
ENDBRANCH  30  32
ENDBRANCH  28  30
ENDBRANCH  27  28
ENDBRANCH   8  27
TORSDOF 14
ENDMDL
MODEL 9
REMARK VINA RESULT:      -6.3     10.899     13.592
REMARK  14 active torsions:
REMARK  status: ('A' for Active; 'I' for Inactive)
REMARK    1  A    between atoms: O_1  and  C_11 
REMARK    2  A    between atoms: C_14  and  O_2 
REMARK    3  A    between atoms: C_8  and  O_4 
REMARK    4  A    between atoms: C_16  and  O_5 
REMARK    5  A    between atoms: O_5  and  C_25 
REMARK    6  A    between atoms: C_8  and  C_17 
REMARK    7  A    between atoms: C_8  and  C_18 
REMARK    8  A    between atoms: C_11  and  C_22 
REMARK    9  A    between atoms: C_13  and  C_19 
REMARK   10  A    between atoms: C_14  and  C_18 
REMARK   11  A    between atoms: C_14  and  C_22 
REMARK   12  A    between atoms: C_17  and  C_19 
REMARK   13  A    between atoms: C_25  and  C_26 
REMARK   14  A    between atoms: C_26  and  C_28 
ROOT
HETATM    1  C   UNK N   1      24.997  20.840   2.703  0.00  0.00     0.004 C 
HETATM    2  C   UNK N   1      23.920  19.986   3.237  0.00  0.00    -0.055 C 
HETATM    3  C   UNK N   1      26.278  20.622   3.014  0.00  0.00    -0.022 C 
HETATM    4  C   UNK N   1      24.236  18.920   4.302  0.00  0.00     0.052 C 
HETATM    5  C   UNK N   1      26.709  19.463   3.871  0.00  0.00     0.009 C 
HETATM    6  C   UNK N   1      25.635  18.332   3.952  0.00  0.00     0.004 C 
HETATM    7  C   UNK N   1      22.687  20.168   2.738  0.00  0.00    -0.015 C 
HETATM    8  C   UNK N   1      23.064  17.882   4.401  0.00  0.00     0.141 C 
HETATM    9  C   UNK N   1      21.765  18.680   4.517  0.00  0.00     0.041 C 
HETATM   10  C   UNK N   1      27.085  20.032   5.235  0.00  0.00     0.014 C 
HETATM   11  C   UNK N   1      21.482  19.411   3.213  0.00  0.00     0.007 C 
HETATM   12  C   UNK N   1      20.337  20.373   3.442  0.00  0.00     0.014 C 
ENDROOT
BRANCH   6  13
HETATM   13  C   UNK N   1      26.133  17.311   4.969  0.00  0.00     0.009 C 
BRANCH  13  14
HETATM   14  C   UNK N   1      27.111  16.305   4.397  0.00  0.00     0.032 C 
BRANCH  14  15
HETATM   15  C   UNK N   1      28.368  16.245   5.248  0.00  0.00     0.120 C 
BRANCH  15  16
HETATM   16  O   UNK N   1      29.339  17.049   4.649  0.00  0.00    -0.395 OA
HETATM   17  H   UNK N   1      29.902  17.817   4.835  0.00  0.00     0.210 HD
ENDBRANCH  15  16
BRANCH  15  18
HETATM   18  C   UNK N   1      28.085  16.707   6.679  0.00  0.00     0.064 C 
BRANCH  18  19
HETATM   19  C   UNK N   1      29.086  17.715   7.222  0.00  0.00     0.130 C 
BRANCH  19  20
HETATM   20  O   UNK N   1      30.234  17.079   7.704  0.00  0.00    -0.395 OA
HETATM   21  H   UNK N   1      30.343  16.174   8.035  0.00  0.00     0.210 HD
ENDBRANCH  19  20
BRANCH  19  22
HETATM   22  C   UNK N   1      28.411  18.483   8.348  0.00  0.00     0.141 C 
BRANCH  22  23
HETATM   23  C   UNK N   1      28.807  17.966   9.692  0.00  0.00     0.141 C 
HETATM   24  O   UNK N   1      28.283  16.953  10.122  0.00  0.00    -0.650 OA
BRANCH  23  25
HETATM   25  O   UNK N   1      29.723  18.615  10.435  0.00  0.00    -0.776 OA
HETATM   26  H   UNK N   1      30.458  18.163  10.802  0.00  0.00     0.167 HD
ENDBRANCH  23  25
ENDBRANCH  22  23
ENDBRANCH  19  22
ENDBRANCH  18  19
ENDBRANCH  15  18
ENDBRANCH  14  15
ENDBRANCH  13  14
ENDBRANCH   6  13
BRANCH   8  27
HETATM   27  O   UNK N   1      23.170  17.008   5.484  0.00  0.00    -0.315 OA
BRANCH  27  28
HETATM   28  C   UNK N   1      22.863  15.672   5.400  0.00  0.00     0.263 C 
HETATM   29  O   UNK N   1      22.293  15.110   6.331  0.00  0.00    -0.265 OA
BRANCH  28  30
HETATM   30  C   UNK N   1      23.220  14.872   4.167  0.00  0.00     0.081 C 
HETATM   31  C   UNK N   1      23.996  13.629   4.571  0.00  0.00     0.020 C 
BRANCH  30  32
HETATM   32  C   UNK N   1      21.973  14.469   3.371  0.00  0.00     0.010 C 
HETATM   33  C   UNK N   1      21.943  15.106   1.990  0.00  0.00     0.006 C 
ENDBRANCH  30  32
ENDBRANCH  28  30
ENDBRANCH  27  28
ENDBRANCH   8  27
TORSDOF 14
ENDMDL
