MODEL 1
REMARK VINA RESULT:      -5.2      0.000      0.000
REMARK  0 active torsions:
REMARK  status: ('A' for Active; 'I' for Inactive)
ROOT
HETATM    1  C   UNK N   1      36.431  14.049  13.740  0.00  0.00     0.155 A 
HETATM    2  N   UNK N   1      37.102  15.046  14.569  0.00  0.00    -0.417 N 
HETATM    3  C   UNK N   1      37.080  15.251  16.009  0.00  0.00     0.114 A 
HETATM    4  C   UNK N   1      36.315  14.398  16.990  0.00  0.00     0.024 A 
HETATM    5  C   UNK N   1      35.430  13.211  16.726  0.00  0.00     0.041 A 
HETATM    6  C   UNK N   1      35.087  12.562  15.438  0.00  0.00    -0.048 A 
HETATM    7  C   UNK N   1      34.230  11.471  15.600  0.00  0.00     0.009 A 
HETATM    8  C   UNK N   1      33.784  10.723  14.523  0.00  0.00     0.026 A 
HETATM    9  C   UNK N   1      34.189  11.051  13.241  0.00  0.00     0.056 A 
HETATM   10  C   UNK N   1      35.050  12.139  13.035  0.00  0.00     0.064 A 
HETATM   11  C   UNK N   1      35.517  12.918  14.132  0.00  0.00    -0.011 A 
HETATM   12 Cl   UNK N   1      33.600  10.074  11.905  0.00  0.00    -0.083 Cl
HETATM   13 Cl   UNK N   1      35.546  12.526  11.377  0.00  0.00    -0.082 Cl
HETATM   14  H   UNK N   1      37.682  15.708  14.053  0.00  0.00     0.153 HD
ENDROOT
TORSDOF 0
ENDMDL
MODEL 2
REMARK VINA RESULT:      -5.2     26.172     27.009
REMARK  0 active torsions:
REMARK  status: ('A' for Active; 'I' for Inactive)
ROOT
HETATM    1  C   UNK N   1      25.905  28.193  -4.384  0.00  0.00     0.155 A 
HETATM    2  N   UNK N   1      25.948  29.230  -3.358  0.00  0.00    -0.417 N 
HETATM    3  C   UNK N   1      26.765  30.430  -3.259  0.00  0.00     0.114 A 
HETATM    4  C   UNK N   1      27.784  30.868  -4.280  0.00  0.00     0.024 A 
HETATM    5  C   UNK N   1      28.188  30.197  -5.564  0.00  0.00     0.041 A 
HETATM    6  C   UNK N   1      27.684  28.940  -6.166  0.00  0.00    -0.048 A 
HETATM    7  C   UNK N   1      28.307  28.641  -7.381  0.00  0.00     0.009 A 
HETATM    8  C   UNK N   1      27.985  27.509  -8.110  0.00  0.00     0.026 A 
HETATM    9  C   UNK N   1      27.020  26.635  -7.639  0.00  0.00     0.056 A 
HETATM   10  C   UNK N   1      26.371  26.898  -6.424  0.00  0.00     0.064 A 
HETATM   11  C   UNK N   1      26.691  28.058  -5.662  0.00  0.00    -0.011 A 
HETATM   12 Cl   UNK N   1      26.644  25.212  -8.598  0.00  0.00    -0.083 Cl
HETATM   13 Cl   UNK N   1      25.141  25.755  -5.855  0.00  0.00    -0.082 Cl
HETATM   14  H   UNK N   1      25.299  29.091  -2.584  0.00  0.00     0.153 HD
ENDROOT
TORSDOF 0
ENDMDL
MODEL 3
REMARK VINA RESULT:      -5.2      9.841     10.917
REMARK  0 active torsions:
REMARK  status: ('A' for Active; 'I' for Inactive)
ROOT
HETATM    1  C   UNK N   1      28.441  17.318   6.542  0.00  0.00     0.155 A 
HETATM    2  N   UNK N   1      27.646  17.400   7.763  0.00  0.00    -0.417 N 
HETATM    3  C   UNK N   1      28.055  17.498   9.156  0.00  0.00     0.114 A 
HETATM    4  C   UNK N   1      29.485  17.553   9.632  0.00  0.00     0.024 A 
HETATM    5  C   UNK N   1      30.755  17.505   8.829  0.00  0.00     0.041 A 
HETATM    6  C   UNK N   1      30.935  17.404   7.361  0.00  0.00    -0.048 A 
HETATM    7  C   UNK N   1      32.281  17.391   6.987  0.00  0.00     0.009 A 
HETATM    8  C   UNK N   1      32.672  17.301   5.661  0.00  0.00     0.026 A 
HETATM    9  C   UNK N   1      31.716  17.220   4.664  0.00  0.00     0.056 A 
HETATM   10  C   UNK N   1      30.354  17.229   4.997  0.00  0.00     0.064 A 
HETATM   11  C   UNK N   1      29.935  17.321   6.355  0.00  0.00    -0.011 A 
HETATM   12 Cl   UNK N   1      32.258  17.107   2.997  0.00  0.00    -0.083 Cl
HETATM   13 Cl   UNK N   1      29.160  17.123   3.691  0.00  0.00    -0.082 Cl
HETATM   14  H   UNK N   1      26.636  17.387   7.616  0.00  0.00     0.153 HD
ENDROOT
TORSDOF 0
ENDMDL
MODEL 4
REMARK VINA RESULT:      -5.1     13.287     14.277
REMARK  0 active torsions:
REMARK  status: ('A' for Active; 'I' for Inactive)
ROOT
HETATM    1  C   UNK N   1      21.975  14.873   7.920  0.00  0.00     0.155 A 
HETATM    2  N   UNK N   1      22.752  15.477   6.842  0.00  0.00    -0.417 N 
HETATM    3  C   UNK N   1      24.107  15.207   6.385  0.00  0.00     0.114 A 
HETATM    4  C   UNK N   1      25.024  14.165   6.973  0.00  0.00     0.024 A 
HETATM    5  C   UNK N   1      24.777  13.221   8.117  0.00  0.00     0.041 A 
HETATM    6  C   UNK N   1      23.568  13.061   8.958  0.00  0.00    -0.048 A 
HETATM    7  C   UNK N   1      23.718  12.067   9.929  0.00  0.00     0.009 A 
HETATM    8  C   UNK N   1      22.707  11.755  10.822  0.00  0.00     0.026 A 
HETATM    9  C   UNK N   1      21.503  12.436  10.767  0.00  0.00     0.056 A 
HETATM   10  C   UNK N   1      21.311  13.441   9.807  0.00  0.00     0.064 A 
HETATM   11  C   UNK N   1      22.341  13.774   8.882  0.00  0.00    -0.011 A 
HETATM   12 Cl   UNK N   1      20.249  12.007  11.919  0.00  0.00    -0.083 Cl
HETATM   13 Cl   UNK N   1      19.755  14.291   9.769  0.00  0.00    -0.082 Cl
HETATM   14  H   UNK N   1      22.265  16.208   6.323  0.00  0.00     0.153 HD
ENDROOT
TORSDOF 0
ENDMDL
MODEL 5
REMARK VINA RESULT:      -5.1     10.097     11.316
REMARK  0 active torsions:
REMARK  status: ('A' for Active; 'I' for Inactive)
ROOT
HETATM    1  C   UNK N   1      29.794  17.066   4.437  0.00  0.00     0.155 A 
HETATM    2  N   UNK N   1      30.563  16.936   3.203  0.00  0.00    -0.417 N 
HETATM    3  C   UNK N   1      32.001  16.929   2.979  0.00  0.00     0.114 A 
HETATM    4  C   UNK N   1      33.043  17.047   4.063  0.00  0.00     0.024 A 
HETATM    5  C   UNK N   1      32.855  17.209   5.546  0.00  0.00     0.041 A 
HETATM    6  C   UNK N   1      31.601  17.283   6.331  0.00  0.00    -0.048 A 
HETATM    7  C   UNK N   1      31.835  17.431   7.701  0.00  0.00     0.009 A 
HETATM    8  C   UNK N   1      30.800  17.522   8.616  0.00  0.00     0.026 A 
HETATM    9  C   UNK N   1      29.487  17.465   8.181  0.00  0.00     0.056 A 
HETATM   10  C   UNK N   1      29.209  17.316   6.814  0.00  0.00     0.064 A 
HETATM   11  C   UNK N   1      30.262  17.222   5.860  0.00  0.00    -0.011 A 
HETATM   12 Cl   UNK N   1      28.206  17.583   9.376  0.00  0.00    -0.083 Cl
HETATM   13 Cl   UNK N   1      27.514  17.247   6.296  0.00  0.00    -0.082 Cl
HETATM   14  H   UNK N   1      30.000  16.833   2.359  0.00  0.00     0.153 HD
ENDROOT
TORSDOF 0
ENDMDL
MODEL 6
REMARK VINA RESULT:      -5.1      3.369      4.615
REMARK  0 active torsions:
REMARK  status: ('A' for Active; 'I' for Inactive)
ROOT
HETATM    1  C   UNK N   1      35.230  13.173  14.939  0.00  0.00     0.155 A 
HETATM    2  N   UNK N   1      35.108  13.141  13.485  0.00  0.00    -0.417 N 
HETATM    3  C   UNK N   1      34.849  12.031  12.580  0.00  0.00     0.114 A 
HETATM    4  C   UNK N   1      34.625  10.603  13.009  0.00  0.00     0.024 A 
HETATM    5  C   UNK N   1      34.633  10.016  14.393  0.00  0.00     0.041 A 
HETATM    6  C   UNK N   1      34.851  10.686  15.697  0.00  0.00    -0.048 A 
HETATM    7  C   UNK N   1      34.778   9.799  16.774  0.00  0.00     0.009 A 
HETATM    8  C   UNK N   1      34.953  10.219  18.082  0.00  0.00     0.026 A 
HETATM    9  C   UNK N   1      35.208  11.553  18.351  0.00  0.00     0.056 A 
HETATM   10  C   UNK N   1      35.289  12.476  17.298  0.00  0.00     0.064 A 
HETATM   11  C   UNK N   1      35.111  12.060  15.947  0.00  0.00    -0.011 A 
HETATM   12 Cl   UNK N   1      35.423  12.040  20.025  0.00  0.00    -0.083 Cl
HETATM   13 Cl   UNK N   1      35.617  14.175  17.683  0.00  0.00    -0.082 Cl
HETATM   14  H   UNK N   1      35.223  14.045  13.028  0.00  0.00     0.153 HD
ENDROOT
TORSDOF 0
ENDMDL
MODEL 7
REMARK VINA RESULT:      -5.1      9.644     10.758
REMARK  0 active torsions:
REMARK  status: ('A' for Active; 'I' for Inactive)
ROOT
HETATM    1  C   UNK N   1      31.376  17.574   8.136  0.00  0.00     0.155 A 
HETATM    2  N   UNK N   1      30.724  17.711   9.435  0.00  0.00    -0.417 N 
HETATM    3  C   UNK N   1      29.315  17.686   9.795  0.00  0.00     0.114 A 
HETATM    4  C   UNK N   1      28.180  17.484   8.823  0.00  0.00     0.024 A 
HETATM    5  C   UNK N   1      28.230  17.287   7.333  0.00  0.00     0.041 A 
HETATM    6  C   UNK N   1      29.406  17.229   6.433  0.00  0.00    -0.048 A 
HETATM    7  C   UNK N   1      29.048  17.026   5.097  0.00  0.00     0.009 A 
HETATM    8  C   UNK N   1      29.994  16.942   4.090  0.00  0.00     0.026 A 
HETATM    9  C   UNK N   1      31.339  17.059   4.394  0.00  0.00     0.056 A 
HETATM   10  C   UNK N   1      31.741  17.263   5.722  0.00  0.00     0.064 A 
HETATM   11  C   UNK N   1      30.780  17.353   6.770  0.00  0.00    -0.011 A 
HETATM   12 Cl   UNK N   1      32.504  16.946   3.085  0.00  0.00    -0.083 Cl
HETATM   13 Cl   UNK N   1      33.473  17.409   6.072  0.00  0.00    -0.082 Cl
HETATM   14  H   UNK N   1      31.362  17.846  10.219  0.00  0.00     0.153 HD
ENDROOT
TORSDOF 0
ENDMDL
MODEL 8
REMARK VINA RESULT:      -5.0      9.470     10.629
REMARK  0 active torsions:
REMARK  status: ('A' for Active; 'I' for Inactive)
ROOT
HETATM    1  C   UNK N   1      31.124  16.934   7.634  0.00  0.00     0.155 A 
HETATM    2  N   UNK N   1      31.997  17.149   8.783  0.00  0.00    -0.417 N 
HETATM    3  C   UNK N   1      33.415  17.468   8.850  0.00  0.00     0.114 A 
HETATM    4  C   UNK N   1      34.311  17.667   7.653  0.00  0.00     0.024 A 
HETATM    5  C   UNK N   1      33.976  17.572   6.191  0.00  0.00     0.041 A 
HETATM    6  C   UNK N   1      32.678  17.269   5.542  0.00  0.00    -0.048 A 
HETATM    7  C   UNK N   1      32.762  17.274   4.147  0.00  0.00     0.009 A 
HETATM    8  C   UNK N   1      31.663  17.015   3.346  0.00  0.00     0.026 A 
HETATM    9  C   UNK N   1      30.436  16.740   3.925  0.00  0.00     0.056 A 
HETATM   10  C   UNK N   1      30.309  16.724   5.321  0.00  0.00     0.064 A 
HETATM   11  C   UNK N   1      31.429  16.989   6.160  0.00  0.00    -0.011 A 
HETATM   12 Cl   UNK N   1      29.070  16.416   2.869  0.00  0.00    -0.083 Cl
HETATM   13 Cl   UNK N   1      28.721  16.368   6.024  0.00  0.00    -0.082 Cl
HETATM   14  H   UNK N   1      31.537  17.061   9.690  0.00  0.00     0.153 HD
ENDROOT
TORSDOF 0
ENDMDL
MODEL 9
REMARK VINA RESULT:      -5.0     26.510     26.977
REMARK  0 active torsions:
REMARK  status: ('A' for Active; 'I' for Inactive)
ROOT
HETATM    1  C   UNK N   1      28.231  29.182  -6.695  0.00  0.00     0.155 A 
HETATM    2  N   UNK N   1      28.738  30.393  -6.056  0.00  0.00    -0.417 N 
HETATM    3  C   UNK N   1      28.324  31.062  -4.833  0.00  0.00     0.114 A 
HETATM    4  C   UNK N   1      27.223  30.586  -3.919  0.00  0.00     0.024 A 
HETATM    5  C   UNK N   1      26.331  29.384  -4.055  0.00  0.00     0.041 A 
HETATM    6  C   UNK N   1      26.306  28.348  -5.114  0.00  0.00    -0.048 A 
HETATM    7  C   UNK N   1      25.327  27.376  -4.890  0.00  0.00     0.009 A 
HETATM    8  C   UNK N   1      25.133  26.317  -5.760  0.00  0.00     0.026 A 
HETATM    9  C   UNK N   1      25.922  26.199  -6.891  0.00  0.00     0.056 A 
HETATM   10  C   UNK N   1      26.916  27.153  -7.153  0.00  0.00     0.064 A 
HETATM   11  C   UNK N   1      27.128  28.249  -6.269  0.00  0.00    -0.011 A 
HETATM   12 Cl   UNK N   1      25.641  24.839  -7.967  0.00  0.00    -0.083 Cl
HETATM   13 Cl   UNK N   1      27.906  26.968  -8.613  0.00  0.00    -0.082 Cl
HETATM   14  H   UNK N   1      29.509  30.844  -6.549  0.00  0.00     0.153 HD
ENDROOT
TORSDOF 0
ENDMDL
