REMARK  0 active torsions:
REMARK  status: ('A' for Active; 'I' for Inactive)
ROOT
HETATM    1  C   UNK N   1       0.991   1.313   0.001  0.00  0.00     0.155 A 
HETATM    2  N   UNK N   1       2.407   0.959  -0.003  0.00  0.00    -0.417 N 
HETATM    3  C   UNK N   1       3.058  -0.342   0.003  0.00  0.00     0.114 A 
HETATM    4  C   UNK N   1       2.338  -1.667  -0.003  0.00  0.00     0.024 A 
HETATM    5  C   UNK N   1       0.860  -1.943   0.001  0.00  0.00     0.041 A 
HETATM    6  C   UNK N   1      -0.274  -0.989  -0.000  0.00  0.00    -0.048 A 
HETATM    7  C   UNK N   1      -1.515  -1.632  -0.000  0.00  0.00     0.009 A 
HETATM    8  C   UNK N   1      -2.706  -0.926  -0.000  0.00  0.00     0.026 A 
HETATM    9  C   UNK N   1      -2.688   0.458  -0.000  0.00  0.00     0.056 A 
HETATM   10  C   UNK N   1      -1.464   1.142  -0.000  0.00  0.00     0.064 A 
HETATM   11  C   UNK N   1      -0.230   0.431  -0.000  0.00  0.00    -0.011 A 
HETATM   12 Cl   UNK N   1      -4.223   1.312  -0.000  0.00  0.00    -0.083 Cl
HETATM   13 Cl   UNK N   1      -1.483   2.915   0.000  0.00  0.00    -0.082 Cl
HETATM   14  H   UNK N   1       3.045   1.755  -0.011  0.00  0.00     0.153 HD
ENDROOT
TORSDOF 0
