MODEL 1
REMARK VINA RESULT:      -6.6      0.000      0.000
REMARK  8 active torsions:
REMARK  status: ('A' for Active; 'I' for Inactive)
REMARK    1  A    between atoms: C_2  and  O_25 
REMARK    2  A    between atoms: C_3  and  O_24 
REMARK    3  A    between atoms: C_6  and  C_7 
REMARK    4  A    between atoms: C_8  and  C_7 
REMARK    5  A    between atoms: C_12  and  C_14 
REMARK    6  A    between atoms: C_14  and  C_15 
REMARK    7  A    between atoms: C_18  and  O_23 
REMARK    8  A    between atoms: C_19  and  O_21 
ROOT
HETATM    1  C   UNK N   1      26.705  25.686  -7.822  0.00  0.00     0.028 C 
HETATM    2  C   UNK N   1      26.618  25.803  -9.360  0.00  0.00     0.184 C 
HETATM    3  O   UNK N   1      25.618  24.917  -9.703  0.00  0.00    -0.321 OA
HETATM    4  C   UNK N   1      25.405  24.038  -8.722  0.00  0.00     0.263 C 
HETATM    5  C   UNK N   1      26.351  24.210  -7.597  0.00  0.00     0.096 C 
HETATM    6  O   UNK N   1      24.446  23.277  -8.718  0.00  0.00    -0.265 OA
ENDROOT
BRANCH   1   7
HETATM    7  C   UNK N   1      25.654  26.642  -7.228  0.00  0.00     0.046 C 
BRANCH   7   8
HETATM    8  C   UNK N   1      26.095  27.171  -5.898  0.00  0.00    -0.055 A 
HETATM    9  C   UNK N   1      27.454  27.394  -5.675  0.00  0.00     0.046 A 
HETATM   10  C   UNK N   1      27.906  27.945  -4.472  0.00  0.00     0.101 A 
HETATM   11  C   UNK N   1      26.956  28.286  -3.474  0.00  0.00     0.099 A 
HETATM   12  C   UNK N   1      25.596  28.050  -3.699  0.00  0.00     0.040 A 
HETATM   13  C   UNK N   1      25.166  27.493  -4.903  0.00  0.00     0.010 A 
BRANCH  10  14
HETATM   14  O   UNK N   1      29.245  28.130  -4.329  0.00  0.00    -0.353 OA
HETATM   15  C   UNK N   1      30.116  27.235  -3.756  0.00  0.00     0.210 C 
ENDBRANCH  10  14
BRANCH  11  16
HETATM   16  O   UNK N   1      27.329  28.837  -2.306  0.00  0.00    -0.358 OA
HETATM   17  H   UNK N   1      27.008  28.529  -1.481  0.00  0.00     0.217 HD
ENDBRANCH  11  16
ENDBRANCH   7   8
ENDBRANCH   1   7
BRANCH   5  18
HETATM   18  C   UNK N   1      25.853  23.826  -6.192  0.00  0.00     0.053 C 
BRANCH  18  19
HETATM   19  C   UNK N   1      26.941  23.780  -5.147  0.00  0.00    -0.054 A 
HETATM   20  C   UNK N   1      26.699  24.169  -3.822  0.00  0.00     0.010 A 
HETATM   21  C   UNK N   1      27.716  24.133  -2.874  0.00  0.00     0.040 A 
HETATM   22  C   UNK N   1      28.994  23.703  -3.229  0.00  0.00     0.099 A 
HETATM   23  C   UNK N   1      29.257  23.293  -4.562  0.00  0.00     0.101 A 
HETATM   24  C   UNK N   1      28.219  23.340  -5.506  0.00  0.00     0.046 A 
BRANCH  22  25
HETATM   25  O   UNK N   1      29.949  23.689  -2.284  0.00  0.00    -0.358 OA
HETATM   26  H   UNK N   1      30.702  24.241  -2.366  0.00  0.00     0.217 HD
ENDBRANCH  22  25
BRANCH  23  27
HETATM   27  O   UNK N   1      30.474  22.854  -4.983  0.00  0.00    -0.353 OA
HETATM   28  C   UNK N   1      30.783  21.550  -5.297  0.00  0.00     0.210 C 
ENDBRANCH  23  27
ENDBRANCH  18  19
ENDBRANCH   5  18
TORSDOF 8
ENDMDL
MODEL 2
REMARK VINA RESULT:      -6.4      1.304      5.153
REMARK  8 active torsions:
REMARK  status: ('A' for Active; 'I' for Inactive)
REMARK    1  A    between atoms: C_2  and  O_25 
REMARK    2  A    between atoms: C_3  and  O_24 
REMARK    3  A    between atoms: C_6  and  C_7 
REMARK    4  A    between atoms: C_8  and  C_7 
REMARK    5  A    between atoms: C_12  and  C_14 
REMARK    6  A    between atoms: C_14  and  C_15 
REMARK    7  A    between atoms: C_18  and  O_23 
REMARK    8  A    between atoms: C_19  and  O_21 
ROOT
HETATM    1  C   UNK N   1      26.203  23.534  -6.567  0.00  0.00     0.028 C 
HETATM    2  C   UNK N   1      25.567  22.198  -7.009  0.00  0.00     0.184 C 
HETATM    3  O   UNK N   1      25.410  22.341  -8.373  0.00  0.00    -0.321 OA
HETATM    4  C   UNK N   1      25.454  23.628  -8.723  0.00  0.00     0.263 C 
HETATM    5  C   UNK N   1      25.570  24.527  -7.553  0.00  0.00     0.096 C 
HETATM    6  O   UNK N   1      25.525  23.989  -9.890  0.00  0.00    -0.265 OA
ENDROOT
BRANCH   1   7
HETATM    7  C   UNK N   1      27.725  23.404  -6.757  0.00  0.00     0.046 C 
BRANCH   7   8
HETATM    8  C   UNK N   1      28.425  23.276  -5.439  0.00  0.00    -0.055 A 
HETATM    9  C   UNK N   1      29.540  22.442  -5.343  0.00  0.00     0.046 A 
HETATM   10  C   UNK N   1      30.261  22.338  -4.150  0.00  0.00     0.101 A 
HETATM   11  C   UNK N   1      29.849  23.105  -3.029  0.00  0.00     0.099 A 
HETATM   12  C   UNK N   1      28.725  23.931  -3.128  0.00  0.00     0.040 A 
HETATM   13  C   UNK N   1      28.014  24.016  -4.325  0.00  0.00     0.010 A 
BRANCH  10  14
HETATM   14  O   UNK N   1      31.334  21.502  -4.135  0.00  0.00    -0.353 OA
HETATM   15  C   UNK N   1      31.419  20.304  -4.804  0.00  0.00     0.210 C 
ENDBRANCH  10  14
BRANCH  11  16
HETATM   16  O   UNK N   1      30.516  23.062  -1.864  0.00  0.00    -0.358 OA
HETATM   17  H   UNK N   1      30.085  22.911  -1.045  0.00  0.00     0.217 HD
ENDBRANCH  11  16
ENDBRANCH   7   8
ENDBRANCH   1   7
BRANCH   5  18
HETATM   18  C   UNK N   1      26.309  25.860  -7.759  0.00  0.00     0.053 C 
BRANCH  18  19
HETATM   19  C   UNK N   1      26.229  26.796  -6.577  0.00  0.00    -0.054 A 
HETATM   20  C   UNK N   1      25.110  26.812  -5.733  0.00  0.00     0.010 A 
HETATM   21  C   UNK N   1      25.046  27.690  -4.655  0.00  0.00     0.040 A 
HETATM   22  C   UNK N   1      26.100  28.564  -4.397  0.00  0.00     0.099 A 
HETATM   23  C   UNK N   1      27.248  28.555  -5.233  0.00  0.00     0.101 A 
HETATM   24  C   UNK N   1      27.292  27.666  -6.317  0.00  0.00     0.046 A 
BRANCH  22  25
HETATM   25  O   UNK N   1      25.996  29.400  -3.349  0.00  0.00    -0.358 OA
HETATM   26  H   UNK N   1      25.527  30.207  -3.435  0.00  0.00     0.217 HD
ENDBRANCH  22  25
BRANCH  23  27
HETATM   27  O   UNK N   1      28.318  29.372  -5.040  0.00  0.00    -0.353 OA
HETATM   28  C   UNK N   1      28.496  30.602  -5.633  0.00  0.00     0.210 C 
ENDBRANCH  23  27
ENDBRANCH  18  19
ENDBRANCH   5  18
TORSDOF 8
ENDMDL
MODEL 3
REMARK VINA RESULT:      -6.3     14.710     17.564
REMARK  8 active torsions:
REMARK  status: ('A' for Active; 'I' for Inactive)
REMARK    1  A    between atoms: C_2  and  O_25 
REMARK    2  A    between atoms: C_3  and  O_24 
REMARK    3  A    between atoms: C_6  and  C_7 
REMARK    4  A    between atoms: C_8  and  C_7 
REMARK    5  A    between atoms: C_12  and  C_14 
REMARK    6  A    between atoms: C_14  and  C_15 
REMARK    7  A    between atoms: C_18  and  O_23 
REMARK    8  A    between atoms: C_19  and  O_21 
ROOT
HETATM    1  C   UNK N   1      21.409  15.905   7.545  0.00  0.00     0.028 C 
HETATM    2  C   UNK N   1      20.339  16.001   8.655  0.00  0.00     0.184 C 
HETATM    3  O   UNK N   1      19.144  15.901   7.974  0.00  0.00    -0.321 OA
HETATM    4  C   UNK N   1      19.312  16.172   6.678  0.00  0.00     0.263 C 
HETATM    5  C   UNK N   1      20.699  16.582   6.363  0.00  0.00     0.096 C 
HETATM    6  O   UNK N   1      18.440  15.967   5.845  0.00  0.00    -0.265 OA
ENDROOT
BRANCH   1   7
HETATM    7  C   UNK N   1      21.677  14.411   7.292  0.00  0.00     0.046 C 
BRANCH   7   8
HETATM    8  C   UNK N   1      22.615  13.849   8.316  0.00  0.00    -0.055 A 
HETATM    9  C   UNK N   1      22.090  13.284   9.478  0.00  0.00     0.046 A 
HETATM   10  C   UNK N   1      22.923  12.693  10.433  0.00  0.00     0.101 A 
HETATM   11  C   UNK N   1      24.323  12.666  10.199  0.00  0.00     0.099 A 
HETATM   12  C   UNK N   1      24.845  13.243   9.038  0.00  0.00     0.040 A 
HETATM   13  C   UNK N   1      23.998  13.835   8.101  0.00  0.00     0.010 A 
BRANCH  10  14
HETATM   14  O   UNK N   1      22.336  12.165  11.539  0.00  0.00    -0.353 OA
HETATM   15  C   UNK N   1      20.981  12.029  11.734  0.00  0.00     0.210 C 
ENDBRANCH  10  14
BRANCH  11  16
HETATM   16  O   UNK N   1      25.170  12.093  11.071  0.00  0.00    -0.358 OA
HETATM   17  H   UNK N   1      26.093  12.258  11.055  0.00  0.00     0.217 HD
ENDBRANCH  11  16
ENDBRANCH   7   8
ENDBRANCH   1   7
BRANCH   5  18
HETATM   18  C   UNK N   1      21.231  16.252   4.958  0.00  0.00     0.053 C 
BRANCH  18  19
HETATM   19  C   UNK N   1      21.011  17.350   3.945  0.00  0.00    -0.054 A 
HETATM   20  C   UNK N   1      19.990  17.267   2.988  0.00  0.00     0.010 A 
HETATM   21  C   UNK N   1      19.809  18.281   2.053  0.00  0.00     0.040 A 
HETATM   22  C   UNK N   1      20.641  19.400   2.059  0.00  0.00     0.099 A 
HETATM   23  C   UNK N   1      21.673  19.509   3.027  0.00  0.00     0.101 A 
HETATM   24  C   UNK N   1      21.842  18.474   3.960  0.00  0.00     0.046 A 
BRANCH  22  25
HETATM   25  O   UNK N   1      20.436  20.354   1.134  0.00  0.00    -0.358 OA
HETATM   26  H   UNK N   1      21.146  20.897   0.851  0.00  0.00     0.217 HD
ENDBRANCH  22  25
BRANCH  23  27
HETATM   27  O   UNK N   1      22.518  20.571   3.102  0.00  0.00    -0.353 OA
HETATM   28  C   UNK N   1      23.891  20.501   3.038  0.00  0.00     0.210 C 
ENDBRANCH  23  27
ENDBRANCH  18  19
ENDBRANCH   5  18
TORSDOF 8
ENDMDL
MODEL 4
REMARK VINA RESULT:      -6.3     14.552     17.235
REMARK  8 active torsions:
REMARK  status: ('A' for Active; 'I' for Inactive)
REMARK    1  A    between atoms: C_2  and  O_25 
REMARK    2  A    between atoms: C_3  and  O_24 
REMARK    3  A    between atoms: C_6  and  C_7 
REMARK    4  A    between atoms: C_8  and  C_7 
REMARK    5  A    between atoms: C_12  and  C_14 
REMARK    6  A    between atoms: C_14  and  C_15 
REMARK    7  A    between atoms: C_18  and  O_23 
REMARK    8  A    between atoms: C_19  and  O_21 
ROOT
HETATM    1  C   UNK N   1      32.541  14.275   4.940  0.00  0.00     0.028 C 
HETATM    2  C   UNK N   1      32.412  13.223   3.817  0.00  0.00     0.184 C 
HETATM    3  O   UNK N   1      33.028  13.817   2.735  0.00  0.00    -0.321 OA
HETATM    4  C   UNK N   1      33.119  15.138   2.905  0.00  0.00     0.263 C 
HETATM    5  C   UNK N   1      32.463  15.591   4.153  0.00  0.00     0.096 C 
HETATM    6  O   UNK N   1      33.789  15.851   2.172  0.00  0.00    -0.265 OA
ENDROOT
BRANCH   1   7
HETATM    7  C   UNK N   1      33.913  14.069   5.608  0.00  0.00     0.046 C 
BRANCH   7   8
HETATM    8  C   UNK N   1      33.824  14.245   7.093  0.00  0.00    -0.055 A 
HETATM    9  C   UNK N   1      34.963  14.632   7.799  0.00  0.00     0.046 A 
HETATM   10  C   UNK N   1      34.913  14.868   9.176  0.00  0.00     0.101 A 
HETATM   11  C   UNK N   1      33.674  14.717   9.853  0.00  0.00     0.099 A 
HETATM   12  C   UNK N   1      32.538  14.319   9.142  0.00  0.00     0.040 A 
HETATM   13  C   UNK N   1      32.610  14.081   7.770  0.00  0.00     0.010 A 
BRANCH  10  14
HETATM   14  O   UNK N   1      36.066  15.240   9.792  0.00  0.00    -0.353 OA
HETATM   15  C   UNK N   1      37.012  14.380  10.298  0.00  0.00     0.210 C 
ENDBRANCH  10  14
BRANCH  11  16
HETATM   16  O   UNK N   1      33.561  14.950  11.172  0.00  0.00    -0.358 OA
HETATM   17  H   UNK N   1      34.306  15.106  11.718  0.00  0.00     0.217 HD
ENDBRANCH  11  16
ENDBRANCH   7   8
ENDBRANCH   1   7
BRANCH   5  18
HETATM   18  C   UNK N   1      33.039  16.841   4.839  0.00  0.00     0.053 C 
BRANCH  18  19
HETATM   19  C   UNK N   1      32.333  17.219   6.119  0.00  0.00    -0.054 A 
HETATM   20  C   UNK N   1      33.041  17.708   7.226  0.00  0.00     0.010 A 
HETATM   21  C   UNK N   1      32.377  18.039   8.403  0.00  0.00     0.040 A 
HETATM   22  C   UNK N   1      30.994  17.893   8.496  0.00  0.00     0.099 A 
HETATM   23  C   UNK N   1      30.257  17.411   7.382  0.00  0.00     0.101 A 
HETATM   24  C   UNK N   1      30.945  17.078   6.205  0.00  0.00     0.046 A 
BRANCH  22  25
HETATM   25  O   UNK N   1      30.393  18.218   9.653  0.00  0.00    -0.358 OA
HETATM   26  H   UNK N   1      29.634  17.748   9.939  0.00  0.00     0.217 HD
ENDBRANCH  22  25
BRANCH  23  27
HETATM   27  O   UNK N   1      28.907  17.249   7.393  0.00  0.00    -0.353 OA
HETATM   28  C   UNK N   1      28.189  16.503   6.486  0.00  0.00     0.210 C 
ENDBRANCH  23  27
ENDBRANCH  18  19
ENDBRANCH   5  18
TORSDOF 8
ENDMDL
MODEL 5
REMARK VINA RESULT:      -6.3     14.043     16.030
REMARK  8 active torsions:
REMARK  status: ('A' for Active; 'I' for Inactive)
REMARK    1  A    between atoms: C_2  and  O_25 
REMARK    2  A    between atoms: C_3  and  O_24 
REMARK    3  A    between atoms: C_6  and  C_7 
REMARK    4  A    between atoms: C_8  and  C_7 
REMARK    5  A    between atoms: C_12  and  C_14 
REMARK    6  A    between atoms: C_14  and  C_15 
REMARK    7  A    between atoms: C_18  and  O_23 
REMARK    8  A    between atoms: C_19  and  O_21 
ROOT
HETATM    1  C   UNK N   1      21.212  16.205   5.139  0.00  0.00     0.028 C 
HETATM    2  C   UNK N   1      20.598  16.115   3.725  0.00  0.00     0.184 C 
HETATM    3  O   UNK N   1      19.239  16.055   3.957  0.00  0.00    -0.321 OA
HETATM    4  C   UNK N   1      18.988  15.689   5.216  0.00  0.00     0.263 C 
HETATM    5  C   UNK N   1      20.224  15.372   5.967  0.00  0.00     0.096 C 
HETATM    6  O   UNK N   1      17.869  15.748   5.707  0.00  0.00    -0.265 OA
ENDROOT
BRANCH   1   7
HETATM    7  C   UNK N   1      21.216  17.690   5.545  0.00  0.00     0.046 C 
BRANCH   7   8
HETATM    8  C   UNK N   1      22.104  18.494   4.647  0.00  0.00    -0.055 A 
HETATM    9  C   UNK N   1      21.526  19.398   3.756  0.00  0.00     0.046 A 
HETATM   10  C   UNK N   1      22.317  20.215   2.942  0.00  0.00     0.101 A 
HETATM   11  C   UNK N   1      23.730  20.119   3.041  0.00  0.00     0.099 A 
HETATM   12  C   UNK N   1      24.304  19.204   3.928  0.00  0.00     0.040 A 
HETATM   13  C   UNK N   1      23.498  18.393   4.726  0.00  0.00     0.010 A 
BRANCH  10  14
HETATM   14  O   UNK N   1      21.679  21.068   2.098  0.00  0.00    -0.353 OA
HETATM   15  C   UNK N   1      20.684  20.720   1.216  0.00  0.00     0.210 C 
ENDBRANCH  10  14
BRANCH  11  16
HETATM   16  O   UNK N   1      24.541  20.893   2.299  0.00  0.00    -0.358 OA
HETATM   17  H   UNK N   1      25.364  20.587   1.972  0.00  0.00     0.217 HD
ENDBRANCH  11  16
ENDBRANCH   7   8
ENDBRANCH   1   7
BRANCH   5  18
HETATM   18  C   UNK N   1      20.210  15.624   7.485  0.00  0.00     0.053 C 
BRANCH  18  19
HETATM   19  C   UNK N   1      20.772  14.485   8.301  0.00  0.00    -0.054 A 
HETATM   20  C   UNK N   1      20.331  14.236   9.608  0.00  0.00     0.010 A 
HETATM   21  C   UNK N   1      20.869  13.190  10.352  0.00  0.00     0.040 A 
HETATM   22  C   UNK N   1      21.853  12.370   9.803  0.00  0.00     0.099 A 
HETATM   23  C   UNK N   1      22.305  12.598   8.477  0.00  0.00     0.101 A 
HETATM   24  C   UNK N   1      21.754  13.660   7.744  0.00  0.00     0.046 A 
BRANCH  22  25
HETATM   25  O   UNK N   1      22.350  11.375  10.557  0.00  0.00    -0.358 OA
HETATM   26  H   UNK N   1      23.142  11.501  11.043  0.00  0.00     0.217 HD
ENDBRANCH  22  25
BRANCH  23  27
HETATM   27  O   UNK N   1      23.255  11.837   7.870  0.00  0.00    -0.353 OA
HETATM   28  C   UNK N   1      24.352  12.324   7.195  0.00  0.00     0.210 C 
ENDBRANCH  23  27
ENDBRANCH  18  19
ENDBRANCH   5  18
TORSDOF 8
ENDMDL
MODEL 6
REMARK VINA RESULT:      -6.2     14.724     17.453
REMARK  8 active torsions:
REMARK  status: ('A' for Active; 'I' for Inactive)
REMARK    1  A    between atoms: C_2  and  O_25 
REMARK    2  A    between atoms: C_3  and  O_24 
REMARK    3  A    between atoms: C_6  and  C_7 
REMARK    4  A    between atoms: C_8  and  C_7 
REMARK    5  A    between atoms: C_12  and  C_14 
REMARK    6  A    between atoms: C_14  and  C_15 
REMARK    7  A    between atoms: C_18  and  O_23 
REMARK    8  A    between atoms: C_19  and  O_21 
ROOT
HETATM    1  C   UNK N   1      20.708  15.654   7.393  0.00  0.00     0.028 C 
HETATM    2  C   UNK N   1      19.892  16.420   8.457  0.00  0.00     0.184 C 
HETATM    3  O   UNK N   1      18.606  16.412   7.957  0.00  0.00    -0.321 OA
HETATM    4  C   UNK N   1      18.607  16.152   6.647  0.00  0.00     0.263 C 
HETATM    5  C   UNK N   1      19.977  16.034   6.098  0.00  0.00     0.096 C 
HETATM    6  O   UNK N   1      17.583  15.909   6.025  0.00  0.00    -0.265 OA
ENDROOT
BRANCH   1   7
HETATM    7  C   UNK N   1      20.592  14.153   7.717  0.00  0.00     0.046 C 
BRANCH   7   8
HETATM    8  C   UNK N   1      21.770  13.677   8.508  0.00  0.00    -0.055 A 
HETATM    9  C   UNK N   1      23.049  13.806   7.963  0.00  0.00     0.046 A 
HETATM   10  C   UNK N   1      24.183  13.432   8.690  0.00  0.00     0.101 A 
HETATM   11  C   UNK N   1      24.019  12.925  10.006  0.00  0.00     0.099 A 
HETATM   12  C   UNK N   1      22.735  12.788  10.543  0.00  0.00     0.040 A 
HETATM   13  C   UNK N   1      21.615  13.159   9.799  0.00  0.00     0.010 A 
BRANCH  10  14
HETATM   14  O   UNK N   1      25.393  13.585   8.089  0.00  0.00    -0.353 OA
HETATM   15  C   UNK N   1      25.719  14.580   7.197  0.00  0.00     0.210 C 
ENDBRANCH  10  14
BRANCH  11  16
HETATM   16  O   UNK N   1      25.074  12.569  10.759  0.00  0.00    -0.358 OA
HETATM   17  H   UNK N   1      25.381  11.685  10.805  0.00  0.00     0.217 HD
ENDBRANCH  11  16
ENDBRANCH   7   8
ENDBRANCH   1   7
BRANCH   5  18
HETATM   18  C   UNK N   1      20.175  15.098   4.893  0.00  0.00     0.053 C 
BRANCH  18  19
HETATM   19  C   UNK N   1      20.194  15.808   3.561  0.00  0.00    -0.054 A 
HETATM   20  C   UNK N   1      20.455  15.118   2.369  0.00  0.00     0.010 A 
HETATM   21  C   UNK N   1      20.482  15.790   1.151  0.00  0.00     0.040 A 
HETATM   22  C   UNK N   1      20.243  17.162   1.099  0.00  0.00     0.099 A 
HETATM   23  C   UNK N   1      19.964  17.877   2.293  0.00  0.00     0.101 A 
HETATM   24  C   UNK N   1      19.946  17.183   3.513  0.00  0.00     0.046 A 
BRANCH  22  25
HETATM   25  O   UNK N   1      20.284  17.774  -0.097  0.00  0.00    -0.358 OA
HETATM   26  H   UNK N   1      20.594  17.313  -0.852  0.00  0.00     0.217 HD
ENDBRANCH  22  25
BRANCH  23  27
HETATM   27  O   UNK N   1      19.714  19.213   2.323  0.00  0.00    -0.353 OA
HETATM   28  C   UNK N   1      20.660  20.196   2.509  0.00  0.00     0.210 C 
ENDBRANCH  23  27
ENDBRANCH  18  19
ENDBRANCH   5  18
TORSDOF 8
ENDMDL
MODEL 7
REMARK VINA RESULT:      -6.2     12.822     15.980
REMARK  8 active torsions:
REMARK  status: ('A' for Active; 'I' for Inactive)
REMARK    1  A    between atoms: C_2  and  O_25 
REMARK    2  A    between atoms: C_3  and  O_24 
REMARK    3  A    between atoms: C_6  and  C_7 
REMARK    4  A    between atoms: C_8  and  C_7 
REMARK    5  A    between atoms: C_12  and  C_14 
REMARK    6  A    between atoms: C_14  and  C_15 
REMARK    7  A    between atoms: C_18  and  O_23 
REMARK    8  A    between atoms: C_19  and  O_21 
ROOT
HETATM    1  C   UNK N   1      32.184  17.110   4.633  0.00  0.00     0.028 C 
HETATM    2  C   UNK N   1      32.011  17.555   3.164  0.00  0.00     0.184 C 
HETATM    3  O   UNK N   1      32.481  16.482   2.436  0.00  0.00    -0.321 OA
HETATM    4  C   UNK N   1      33.251  15.696   3.191  0.00  0.00     0.263 C 
HETATM    5  C   UNK N   1      33.447  16.240   4.553  0.00  0.00     0.096 C 
HETATM    6  O   UNK N   1      33.627  14.592   2.820  0.00  0.00    -0.265 OA
ENDROOT
BRANCH   1   7
HETATM    7  C   UNK N   1      30.934  16.299   5.019  0.00  0.00     0.046 C 
BRANCH   7   8
HETATM    8  C   UNK N   1      30.131  17.008   6.066  0.00  0.00    -0.055 A 
HETATM    9  C   UNK N   1      29.073  17.826   5.668  0.00  0.00     0.046 A 
HETATM   10  C   UNK N   1      28.258  18.459   6.611  0.00  0.00     0.101 A 
HETATM   11  C   UNK N   1      28.515  18.250   7.992  0.00  0.00     0.099 A 
HETATM   12  C   UNK N   1      29.583  17.437   8.384  0.00  0.00     0.040 A 
HETATM   13  C   UNK N   1      30.390  16.821   7.428  0.00  0.00     0.010 A 
BRANCH  10  14
HETATM   14  O   UNK N   1      27.249  19.242   6.145  0.00  0.00    -0.353 OA
HETATM   15  C   UNK N   1      27.387  20.532   5.689  0.00  0.00     0.210 C 
ENDBRANCH  10  14
BRANCH  11  16
HETATM   16  O   UNK N   1      27.752  18.815   8.943  0.00  0.00    -0.358 OA
HETATM   17  H   UNK N   1      27.136  18.322   9.449  0.00  0.00     0.217 HD
ENDBRANCH  11  16
ENDBRANCH   7   8
ENDBRANCH   1   7
BRANCH   5  18
HETATM   18  C   UNK N   1      33.662  15.229   5.693  0.00  0.00     0.053 C 
BRANCH  18  19
HETATM   19  C   UNK N   1      34.126  15.853   6.987  0.00  0.00    -0.054 A 
HETATM   20  C   UNK N   1      34.129  17.243   7.169  0.00  0.00     0.010 A 
HETATM   21  C   UNK N   1      34.572  17.802   8.364  0.00  0.00     0.040 A 
HETATM   22  C   UNK N   1      35.014  16.984   9.402  0.00  0.00     0.099 A 
HETATM   23  C   UNK N   1      35.008  15.573   9.242  0.00  0.00     0.101 A 
HETATM   24  C   UNK N   1      34.561  15.028   8.029  0.00  0.00     0.046 A 
BRANCH  22  25
HETATM   25  O   UNK N   1      35.439  17.565  10.537  0.00  0.00    -0.358 OA
HETATM   26  H   UNK N   1      36.126  17.171  11.040  0.00  0.00     0.217 HD
ENDBRANCH  22  25
BRANCH  23  27
HETATM   27  O   UNK N   1      35.416  14.710  10.211  0.00  0.00    -0.353 OA
HETATM   28  C   UNK N   1      34.610  14.174  11.189  0.00  0.00     0.210 C 
ENDBRANCH  23  27
ENDBRANCH  18  19
ENDBRANCH   5  18
TORSDOF 8
ENDMDL
MODEL 8
REMARK VINA RESULT:      -6.1      2.343      7.112
REMARK  8 active torsions:
REMARK  status: ('A' for Active; 'I' for Inactive)
REMARK    1  A    between atoms: C_2  and  O_25 
REMARK    2  A    between atoms: C_3  and  O_24 
REMARK    3  A    between atoms: C_6  and  C_7 
REMARK    4  A    between atoms: C_8  and  C_7 
REMARK    5  A    between atoms: C_12  and  C_14 
REMARK    6  A    between atoms: C_14  and  C_15 
REMARK    7  A    between atoms: C_18  and  O_23 
REMARK    8  A    between atoms: C_19  and  O_21 
ROOT
HETATM    1  C   UNK N   1      30.140  23.173  -4.856  0.00  0.00     0.028 C 
HETATM    2  C   UNK N   1      31.662  23.202  -4.592  0.00  0.00     0.184 C 
HETATM    3  O   UNK N   1      31.763  23.074  -3.222  0.00  0.00    -0.321 OA
HETATM    4  C   UNK N   1      30.607  23.383  -2.629  0.00  0.00     0.263 C 
HETATM    5  C   UNK N   1      29.587  23.851  -3.594  0.00  0.00     0.096 C 
HETATM    6  O   UNK N   1      30.398  23.165  -1.444  0.00  0.00    -0.265 OA
ENDROOT
BRANCH   1   7
HETATM    7  C   UNK N   1      29.720  21.696  -4.962  0.00  0.00     0.046 C 
BRANCH   7   8
HETATM    8  C   UNK N   1      29.373  21.333  -6.373  0.00  0.00    -0.055 A 
HETATM    9  C   UNK N   1      28.494  22.149  -7.086  0.00  0.00     0.046 A 
HETATM   10  C   UNK N   1      28.189  21.884  -8.425  0.00  0.00     0.101 A 
HETATM   11  C   UNK N   1      28.798  20.770  -9.059  0.00  0.00     0.099 A 
HETATM   12  C   UNK N   1      29.669  19.949  -8.337  0.00  0.00     0.040 A 
HETATM   13  C   UNK N   1      29.955  20.225  -7.001  0.00  0.00     0.010 A 
BRANCH  10  14
HETATM   14  O   UNK N   1      27.323  22.724  -9.050  0.00  0.00    -0.353 OA
HETATM   15  C   UNK N   1      26.004  22.908  -8.707  0.00  0.00     0.210 C 
ENDBRANCH  10  14
BRANCH  11  16
HETATM   16  O   UNK N   1      28.559  20.479 -10.350  0.00  0.00    -0.358 OA
HETATM   17  H   UNK N   1      28.111  21.071 -10.922  0.00  0.00     0.217 HD
ENDBRANCH  11  16
ENDBRANCH   7   8
ENDBRANCH   1   7
BRANCH   5  18
HETATM   18  C   UNK N   1      28.113  23.575  -3.252  0.00  0.00     0.053 C 
BRANCH  18  19
HETATM   19  C   UNK N   1      27.143  24.537  -3.894  0.00  0.00    -0.054 A 
HETATM   20  C   UNK N   1      26.482  24.221  -5.089  0.00  0.00     0.010 A 
HETATM   21  C   UNK N   1      25.601  25.124  -5.674  0.00  0.00     0.040 A 
HETATM   22  C   UNK N   1      25.359  26.359  -5.075  0.00  0.00     0.099 A 
HETATM   23  C   UNK N   1      26.008  26.695  -3.858  0.00  0.00     0.101 A 
HETATM   24  C   UNK N   1      26.897  25.772  -3.285  0.00  0.00     0.046 A 
BRANCH  22  25
HETATM   25  O   UNK N   1      24.505  27.205  -5.677  0.00  0.00    -0.358 OA
HETATM   26  H   UNK N   1      24.108  27.901  -5.189  0.00  0.00     0.217 HD
ENDBRANCH  22  25
BRANCH  23  27
HETATM   27  O   UNK N   1      25.817  27.875  -3.210  0.00  0.00    -0.353 OA
HETATM   28  C   UNK N   1      26.618  28.988  -3.333  0.00  0.00     0.210 C 
ENDBRANCH  23  27
ENDBRANCH  18  19
ENDBRANCH   5  18
TORSDOF 8
ENDMDL
MODEL 9
REMARK VINA RESULT:      -6.0     10.798     13.670
REMARK  8 active torsions:
REMARK  status: ('A' for Active; 'I' for Inactive)
REMARK    1  A    between atoms: C_2  and  O_25 
REMARK    2  A    between atoms: C_3  and  O_24 
REMARK    3  A    between atoms: C_6  and  C_7 
REMARK    4  A    between atoms: C_8  and  C_7 
REMARK    5  A    between atoms: C_12  and  C_14 
REMARK    6  A    between atoms: C_14  and  C_15 
REMARK    7  A    between atoms: C_18  and  O_23 
REMARK    8  A    between atoms: C_19  and  O_21 
ROOT
HETATM    1  C   UNK N   1      27.198  17.020   3.486  0.00  0.00     0.028 C 
HETATM    2  C   UNK N   1      26.784  15.754   2.704  0.00  0.00     0.184 C 
HETATM    3  O   UNK N   1      27.212  14.715   3.504  0.00  0.00    -0.321 OA
HETATM    4  C   UNK N   1      28.133  15.134   4.375  0.00  0.00     0.263 C 
HETATM    5  C   UNK N   1      28.489  16.557   4.176  0.00  0.00     0.096 C 
HETATM    6  O   UNK N   1      28.521  14.442   5.305  0.00  0.00    -0.265 OA
ENDROOT
BRANCH   1   7
HETATM    7  C   UNK N   1      26.072  17.329   4.490  0.00  0.00     0.046 C 
BRANCH   7   8
HETATM    8  C   UNK N   1      25.147  18.380   3.958  0.00  0.00    -0.055 A 
HETATM    9  C   UNK N   1      23.774  18.244   4.169  0.00  0.00     0.046 A 
HETATM   10  C   UNK N   1      22.879  19.230   3.745  0.00  0.00     0.101 A 
HETATM   11  C   UNK N   1      23.388  20.388   3.101  0.00  0.00     0.099 A 
HETATM   12  C   UNK N   1      24.763  20.514   2.883  0.00  0.00     0.040 A 
HETATM   13  C   UNK N   1      25.640  19.516   3.306  0.00  0.00     0.010 A 
BRANCH  10  14
HETATM   14  O   UNK N   1      21.557  19.024   3.985  0.00  0.00    -0.353 OA
HETATM   15  C   UNK N   1      20.684  18.384   3.137  0.00  0.00     0.210 C 
ENDBRANCH  10  14
BRANCH  11  16
HETATM   16  O   UNK N   1      22.577  21.379   2.691  0.00  0.00    -0.358 OA
HETATM   17  H   UNK N   1      22.374  21.518   1.786  0.00  0.00     0.217 HD
ENDBRANCH  11  16
ENDBRANCH   7   8
ENDBRANCH   1   7
BRANCH   5  18
HETATM   18  C   UNK N   1      28.932  17.353   5.415  0.00  0.00     0.053 C 
BRANCH  18  19
HETATM   19  C   UNK N   1      30.428  17.382   5.624  0.00  0.00    -0.054 A 
HETATM   20  C   UNK N   1      31.312  17.533   4.547  0.00  0.00     0.010 A 
HETATM   21  C   UNK N   1      32.688  17.545   4.755  0.00  0.00     0.040 A 
HETATM   22  C   UNK N   1      33.206  17.411   6.042  0.00  0.00     0.099 A 
HETATM   23  C   UNK N   1      32.327  17.269   7.147  0.00  0.00     0.101 A 
HETATM   24  C   UNK N   1      30.943  17.256   6.917  0.00  0.00     0.046 A 
BRANCH  22  25
HETATM   25  O   UNK N   1      34.541  17.422   6.197  0.00  0.00    -0.358 OA
HETATM   26  H   UNK N   1      35.027  16.620   6.164  0.00  0.00     0.217 HD
ENDBRANCH  22  25
BRANCH  23  27
HETATM   27  O   UNK N   1      32.756  17.142   8.431  0.00  0.00    -0.353 OA
HETATM   28  C   UNK N   1      33.048  15.951   9.057  0.00  0.00     0.210 C 
ENDBRANCH  23  27
ENDBRANCH  18  19
ENDBRANCH   5  18
TORSDOF 8
ENDMDL
