MODEL 1
REMARK VINA RESULT:      -6.3      0.000      0.000
REMARK  4 active torsions:
REMARK  status: ('A' for Active; 'I' for Inactive)
REMARK       I    between atoms: C_1  and  N_13 
REMARK    1  A    between atoms: C_4  and  C_7 
REMARK    2  A    between atoms: C_4  and  C_18 
REMARK    3  A    between atoms: C_16  and  O_17 
REMARK    4  A    between atoms: O_17  and  C_18 
ROOT
HETATM    1  C   UNK N   1      20.617  20.337   1.463  0.00  0.00     0.679 A 
HETATM    2  C   UNK N   1      20.035  18.505   2.784  0.00  0.00     0.153 A 
HETATM    3  C   UNK N   1      21.165  18.621   3.510  0.00  0.00     0.130 A 
HETATM    4  N   UNK N   1      19.303  17.475   3.225  0.00  0.00    -0.336 N 
ATOM      5  HN  UNK N   1      18.405  17.146   2.873  1.00  0.00     0.168 HD
HETATM    6  N   UNK N   1      19.732  19.338   1.762  0.00  0.00    -0.174 N 
ATOM      7  HN  UNK N   1      18.869  19.225   1.230  1.00  0.00     0.186 HD
HETATM    8  N   UNK N   1      20.343  21.228   0.408  0.00  0.00    -0.234 N 
HETATM    9  N   UNK N   1      21.773  20.478   2.186  0.00  0.00    -0.168 N 
ATOM     10  HN  UNK N   1      22.420  21.228   1.948  1.00  0.00     0.186 HD
HETATM   11  C   UNK N   1      22.080  19.637   3.217  0.00  0.00     0.188 A 
HETATM   12  N   UNK N   1      21.194  17.663   4.448  0.00  0.00    -0.346 N 
HETATM   13  C   UNK N   1      20.037  16.969   4.254  0.00  0.00     0.182 A 
HETATM   14  H   UNK N   1      19.514  21.132  -0.115  0.00  0.00     0.174 HD
HETATM   15  H   UNK N   1      20.979  21.947   0.192  0.00  0.00     0.174 HD
HETATM   16  H   UNK N   1      21.891  17.498   5.123  0.00  0.00     0.167 HD
ENDROOT
BRANCH  11  17
HETATM   17  O   UNK N   1      23.237  19.833   3.888  0.00  0.00    -0.326 OA
BRANCH  17  18
HETATM   18  C   UNK N   1      24.431  19.192   3.678  0.00  0.00     0.256 C 
BRANCH  18  19
HETATM   19  C   UNK N   1      25.562  20.183   3.527  0.00  0.00     0.154 C 
HETATM   20  O   UNK N   1      25.611  20.842   2.501  0.00  0.00    -0.295 OA
BRANCH  19  21
HETATM   21  C   UNK N   1      26.635  20.401   4.584  0.00  0.00     0.049 C 
HETATM   22  C   UNK N   1      28.005  19.779   4.390  0.00  0.00     0.017 C 
HETATM   23  C   UNK N   1      26.434  21.214   5.852  0.00  0.00     0.017 C 
ENDBRANCH  19  21
ENDBRANCH  18  19
ENDBRANCH  17  18
ENDBRANCH  11  17
TORSDOF 4
ENDMDL
MODEL 2
REMARK VINA RESULT:      -6.0     15.051     17.592
REMARK  4 active torsions:
REMARK  status: ('A' for Active; 'I' for Inactive)
REMARK       I    between atoms: C_1  and  N_13 
REMARK    1  A    between atoms: C_4  and  C_7 
REMARK    2  A    between atoms: C_4  and  C_18 
REMARK    3  A    between atoms: C_16  and  O_17 
REMARK    4  A    between atoms: O_17  and  C_18 
ROOT
HETATM    1  C   UNK N   1      37.591  13.806  10.774  0.00  0.00     0.679 A 
HETATM    2  C   UNK N   1      35.535  14.514   9.931  0.00  0.00     0.153 A 
HETATM    3  C   UNK N   1      34.993  14.538  11.166  0.00  0.00     0.130 A 
HETATM    4  N   UNK N   1      34.629  14.886   9.020  0.00  0.00    -0.336 N 
ATOM      5  HN  UNK N   1      34.748  14.963   8.010  1.00  0.00     0.168 HD
HETATM    6  N   UNK N   1      36.819  14.156   9.701  0.00  0.00    -0.174 N 
ATOM      7  HN  UNK N   1      37.200  14.148   8.755  1.00  0.00     0.186 HD
HETATM    8  N   UNK N   1      38.933  13.427  10.582  0.00  0.00    -0.234 N 
HETATM    9  N   UNK N   1      37.065  13.822  12.040  0.00  0.00    -0.168 N 
ATOM     10  HN  UNK N   1      37.656  13.558  12.828  1.00  0.00     0.186 HD
HETATM   11  C   UNK N   1      35.769  14.183  12.274  0.00  0.00     0.188 A 
HETATM   12  N   UNK N   1      33.713  14.929  11.085  0.00  0.00    -0.346 N 
HETATM   13  C   UNK N   1      33.510  15.138   9.754  0.00  0.00     0.182 A 
HETATM   14  H   UNK N   1      39.316  13.414   9.675  0.00  0.00     0.174 HD
HETATM   15  H   UNK N   1      39.489  13.175  11.355  0.00  0.00     0.174 HD
HETATM   16  H   UNK N   1      33.067  15.040  11.819  0.00  0.00     0.167 HD
ENDROOT
BRANCH  11  17
HETATM   17  O   UNK N   1      35.316  14.176  13.547  0.00  0.00    -0.326 OA
BRANCH  17  18
HETATM   18  C   UNK N   1      35.954  13.664  14.647  0.00  0.00     0.256 C 
BRANCH  18  19
HETATM   19  C   UNK N   1      34.991  12.905  15.531  0.00  0.00     0.154 C 
HETATM   20  O   UNK N   1      34.005  12.410  15.009  0.00  0.00    -0.295 OA
BRANCH  19  21
HETATM   21  C   UNK N   1      35.186  12.727  17.030  0.00  0.00     0.049 C 
HETATM   22  C   UNK N   1      35.313  11.329  17.602  0.00  0.00     0.017 C 
HETATM   23  C   UNK N   1      35.263  13.875  18.024  0.00  0.00     0.017 C 
ENDBRANCH  19  21
ENDBRANCH  18  19
ENDBRANCH  17  18
ENDBRANCH  11  17
TORSDOF 4
ENDMDL
MODEL 3
REMARK VINA RESULT:      -6.0      3.777      5.318
REMARK  4 active torsions:
REMARK  status: ('A' for Active; 'I' for Inactive)
REMARK       I    between atoms: C_1  and  N_13 
REMARK    1  A    between atoms: C_4  and  C_7 
REMARK    2  A    between atoms: C_4  and  C_18 
REMARK    3  A    between atoms: C_16  and  O_17 
REMARK    4  A    between atoms: O_17  and  C_18 
ROOT
HETATM    1  C   UNK N   1      19.618  16.762   1.223  0.00  0.00     0.679 A 
HETATM    2  C   UNK N   1      20.334  18.913   1.765  0.00  0.00     0.153 A 
HETATM    3  C   UNK N   1      20.311  18.631   3.083  0.00  0.00     0.130 A 
HETATM    4  N   UNK N   1      20.728  20.177   1.568  0.00  0.00    -0.336 N 
ATOM      5  HN  UNK N   1      20.840  20.670   0.683  1.00  0.00     0.168 HD
HETATM    6  N   UNK N   1      19.997  18.011   0.816  0.00  0.00    -0.174 N 
ATOM      7  HN  UNK N   1      20.024  18.255  -0.174  1.00  0.00     0.186 HD
HETATM    8  N   UNK N   1      19.258  15.790   0.270  0.00  0.00    -0.234 N 
HETATM    9  N   UNK N   1      19.586  16.448   2.557  0.00  0.00    -0.168 N 
ATOM     10  HN  UNK N   1      19.301  15.511   2.841  1.00  0.00     0.186 HD
HETATM   11  C   UNK N   1      19.926  17.358   3.516  0.00  0.00     0.188 A 
HETATM   12  N   UNK N   1      20.693  19.712   3.779  0.00  0.00    -0.346 N 
HETATM   13  C   UNK N   1      20.944  20.652   2.826  0.00  0.00     0.182 A 
HETATM   14  H   UNK N   1      19.280  16.010  -0.690  0.00  0.00     0.174 HD
HETATM   15  H   UNK N   1      18.986  14.890   0.563  0.00  0.00     0.174 HD
HETATM   16  H   UNK N   1      20.773  19.806   4.755  0.00  0.00     0.167 HD
ENDROOT
BRANCH  11  17
HETATM   17  O   UNK N   1      19.873  16.981   4.813  0.00  0.00    -0.326 OA
BRANCH  17  18
HETATM   18  C   UNK N   1      20.934  16.784   5.659  0.00  0.00     0.256 C 
BRANCH  18  19
HETATM   19  C   UNK N   1      20.782  17.600   6.922  0.00  0.00     0.154 C 
HETATM   20  O   UNK N   1      21.095  18.779   6.882  0.00  0.00    -0.295 OA
BRANCH  19  21
HETATM   21  C   UNK N   1      20.260  17.031   8.234  0.00  0.00     0.049 C 
HETATM   22  C   UNK N   1      19.304  17.856   9.074  0.00  0.00     0.017 C 
HETATM   23  C   UNK N   1      20.636  15.664   8.782  0.00  0.00     0.017 C 
ENDBRANCH  19  21
ENDBRANCH  18  19
ENDBRANCH  17  18
ENDBRANCH  11  17
TORSDOF 4
ENDMDL
MODEL 4
REMARK VINA RESULT:      -5.9     14.063     16.881
REMARK  4 active torsions:
REMARK  status: ('A' for Active; 'I' for Inactive)
REMARK       I    between atoms: C_1  and  N_13 
REMARK    1  A    between atoms: C_4  and  C_7 
REMARK    2  A    between atoms: C_4  and  C_18 
REMARK    3  A    between atoms: C_16  and  O_17 
REMARK    4  A    between atoms: O_17  and  C_18 
ROOT
HETATM    1  C   UNK N   1      34.555  11.798  13.125  0.00  0.00     0.679 A 
HETATM    2  C   UNK N   1      35.867  13.070  14.574  0.00  0.00     0.153 A 
HETATM    3  C   UNK N   1      36.024  14.036  13.647  0.00  0.00     0.130 A 
HETATM    4  N   UNK N   1      36.515  13.397  15.699  0.00  0.00    -0.336 N 
ATOM      5  HN  UNK N   1      36.576  12.865  16.567  1.00  0.00     0.168 HD
HETATM    6  N   UNK N   1      35.146  11.948  14.349  0.00  0.00    -0.174 N 
ATOM      7  HN  UNK N   1      35.045  11.235  15.072  1.00  0.00     0.186 HD
HETATM    8  N   UNK N   1      33.795  10.647  12.846  0.00  0.00    -0.234 N 
HETATM    9  N   UNK N   1      34.699  12.766  12.164  0.00  0.00    -0.168 N 
ATOM     10  HN  UNK N   1      34.251  12.636  11.257  1.00  0.00     0.186 HD
HETATM   11  C   UNK N   1      35.426  13.898  12.390  0.00  0.00     0.188 A 
HETATM   12  N   UNK N   1      36.783  15.020  14.150  0.00  0.00    -0.346 N 
HETATM   13  C   UNK N   1      37.074  14.605  15.415  0.00  0.00     0.182 A 
HETATM   14  H   UNK N   1      33.689   9.949  13.533  0.00  0.00     0.174 HD
HETATM   15  H   UNK N   1      33.370  10.539  11.965  0.00  0.00     0.174 HD
HETATM   16  H   UNK N   1      37.065  15.853  13.708  0.00  0.00     0.167 HD
ENDROOT
BRANCH  11  17
HETATM   17  O   UNK N   1      35.526  14.811  11.398  0.00  0.00    -0.326 OA
BRANCH  17  18
HETATM   18  C   UNK N   1      34.534  15.207  10.538  0.00  0.00     0.256 C 
BRANCH  18  19
HETATM   19  C   UNK N   1      34.795  16.599  10.011  0.00  0.00     0.154 C 
HETATM   20  O   UNK N   1      35.698  17.243  10.519  0.00  0.00    -0.295 OA
BRANCH  19  21
HETATM   21  C   UNK N   1      33.994  17.235   8.883  0.00  0.00     0.049 C 
HETATM   22  C   UNK N   1      32.646  16.651   8.508  0.00  0.00     0.017 C 
HETATM   23  C   UNK N   1      34.456  18.442   8.082  0.00  0.00     0.017 C 
ENDBRANCH  19  21
ENDBRANCH  18  19
ENDBRANCH  17  18
ENDBRANCH  11  17
TORSDOF 4
ENDMDL
MODEL 5
REMARK VINA RESULT:      -5.8     15.456     18.096
REMARK  4 active torsions:
REMARK  status: ('A' for Active; 'I' for Inactive)
REMARK       I    between atoms: C_1  and  N_13 
REMARK    1  A    between atoms: C_4  and  C_7 
REMARK    2  A    between atoms: C_4  and  C_18 
REMARK    3  A    between atoms: C_16  and  O_17 
REMARK    4  A    between atoms: O_17  and  C_18 
ROOT
HETATM    1  C   UNK N   1      34.967  14.962  10.867  0.00  0.00     0.679 A 
HETATM    2  C   UNK N   1      37.035  14.207  10.096  0.00  0.00     0.153 A 
HETATM    3  C   UNK N   1      37.297  13.605  11.273  0.00  0.00     0.130 A 
HETATM    4  N   UNK N   1      38.051  14.024   9.244  0.00  0.00    -0.336 N 
ATOM      5  HN  UNK N   1      38.136  14.361   8.285  1.00  0.00     0.168 HD
HETATM    6  N   UNK N   1      35.890  14.888   9.860  0.00  0.00    -0.174 N 
ATOM      7  HN  UNK N   1      35.720  15.334   8.958  1.00  0.00     0.186 HD
HETATM    8  N   UNK N   1      33.761  15.660  10.667  0.00  0.00    -0.234 N 
HETATM    9  N   UNK N   1      35.209  14.358  12.074  0.00  0.00    -0.168 N 
ATOM     10  HN  UNK N   1      34.509  14.424  12.812  1.00  0.00     0.186 HD
HETATM   11  C   UNK N   1      36.364  13.671  12.313  0.00  0.00     0.188 A 
HETATM   12  N   UNK N   1      38.499  13.012  11.214  0.00  0.00    -0.346 N 
HETATM   13  C   UNK N   1      38.944  13.283   9.955  0.00  0.00     0.182 A 
HETATM   14  H   UNK N   1      33.582  16.096   9.802  0.00  0.00     0.174 HD
HETATM   15  H   UNK N   1      33.097  15.713  11.391  0.00  0.00     0.174 HD
HETATM   16  H   UNK N   1      38.955  12.498  11.918  0.00  0.00     0.167 HD
ENDROOT
BRANCH  11  17
HETATM   17  O   UNK N   1      36.538  13.100  13.525  0.00  0.00    -0.326 OA
BRANCH  17  18
HETATM   18  C   UNK N   1      36.385  13.701  14.749  0.00  0.00     0.256 C 
BRANCH  18  19
HETATM   19  C   UNK N   1      35.244  13.078  15.522  0.00  0.00     0.154 C 
HETATM   20  O   UNK N   1      34.229  12.792  14.909  0.00  0.00    -0.295 OA
BRANCH  19  21
HETATM   21  C   UNK N   1      35.299  12.791  17.015  0.00  0.00     0.049 C 
HETATM   22  C   UNK N   1      35.257  13.947  17.996  0.00  0.00     0.017 C 
HETATM   23  C   UNK N   1      35.396  11.398  17.615  0.00  0.00     0.017 C 
ENDBRANCH  19  21
ENDBRANCH  18  19
ENDBRANCH  17  18
ENDBRANCH  11  17
TORSDOF 4
ENDMDL
MODEL 6
REMARK VINA RESULT:      -5.8     10.200     10.750
REMARK  4 active torsions:
REMARK  status: ('A' for Active; 'I' for Inactive)
REMARK       I    between atoms: C_1  and  N_13 
REMARK    1  A    between atoms: C_4  and  C_7 
REMARK    2  A    between atoms: C_4  and  C_18 
REMARK    3  A    between atoms: C_16  and  O_17 
REMARK    4  A    between atoms: O_17  and  C_18 
ROOT
HETATM    1  C   UNK N   1      25.864  24.106  -6.214  0.00  0.00     0.679 A 
HETATM    2  C   UNK N   1      25.639  26.117  -5.056  0.00  0.00     0.153 A 
HETATM    3  C   UNK N   1      26.533  25.726  -4.126  0.00  0.00     0.130 A 
HETATM    4  N   UNK N   1      25.186  27.345  -4.777  0.00  0.00    -0.336 N 
ATOM      5  HN  UNK N   1      24.507  27.898  -5.299  1.00  0.00     0.168 HD
HETATM    6  N   UNK N   1      25.285  25.340  -6.104  0.00  0.00    -0.174 N 
ATOM      7  HN  UNK N   1      24.605  25.664  -6.792  1.00  0.00     0.186 HD
HETATM    8  N   UNK N   1      25.525  23.262  -7.289  0.00  0.00    -0.234 N 
HETATM    9  N   UNK N   1      26.776  23.683  -5.282  0.00  0.00    -0.168 N 
ATOM     10  HN  UNK N   1      27.197  22.760  -5.381  1.00  0.00     0.186 HD
HETATM   11  C   UNK N   1      27.135  24.467  -4.224  0.00  0.00     0.188 A 
HETATM   12  N   UNK N   1      26.683  26.698  -3.214  0.00  0.00    -0.346 N 
HETATM   13  C   UNK N   1      25.844  27.685  -3.635  0.00  0.00     0.182 A 
HETATM   14  H   UNK N   1      24.871  23.560  -7.962  0.00  0.00     0.174 HD
HETATM   15  H   UNK N   1      25.942  22.374  -7.369  0.00  0.00     0.174 HD
HETATM   16  H   UNK N   1      27.266  26.698  -2.421  0.00  0.00     0.167 HD
ENDROOT
BRANCH  11  17
HETATM   17  O   UNK N   1      28.040  23.988  -3.341  0.00  0.00    -0.326 OA
BRANCH  17  18
HETATM   18  C   UNK N   1      29.387  24.243  -3.322  0.00  0.00     0.256 C 
BRANCH  18  19
HETATM   19  C   UNK N   1      30.143  23.122  -2.645  0.00  0.00     0.154 C 
HETATM   20  O   UNK N   1      30.189  23.119  -1.426  0.00  0.00    -0.295 OA
BRANCH  19  21
HETATM   21  C   UNK N   1      30.845  22.004  -3.402  0.00  0.00     0.049 C 
HETATM   22  C   UNK N   1      32.211  21.536  -2.938  0.00  0.00     0.017 C 
HETATM   23  C   UNK N   1      30.268  21.305  -4.622  0.00  0.00     0.017 C 
ENDBRANCH  19  21
ENDBRANCH  18  19
ENDBRANCH  17  18
ENDBRANCH  11  17
TORSDOF 4
ENDMDL
MODEL 7
REMARK VINA RESULT:      -5.6      3.428      4.637
REMARK  4 active torsions:
REMARK  status: ('A' for Active; 'I' for Inactive)
REMARK       I    between atoms: C_1  and  N_13 
REMARK    1  A    between atoms: C_4  and  C_7 
REMARK    2  A    between atoms: C_4  and  C_18 
REMARK    3  A    between atoms: C_16  and  O_17 
REMARK    4  A    between atoms: O_17  and  C_18 
ROOT
HETATM    1  C   UNK N   1      20.770  19.771   2.659  0.00  0.00     0.679 A 
HETATM    2  C   UNK N   1      20.082  17.843   1.541  0.00  0.00     0.153 A 
HETATM    3  C   UNK N   1      20.644  17.053   2.478  0.00  0.00     0.130 A 
HETATM    4  N   UNK N   1      19.504  17.099   0.591  0.00  0.00    -0.336 N 
ATOM      5  HN  UNK N   1      19.004  17.416  -0.239  1.00  0.00     0.168 HD
HETATM    6  N   UNK N   1      20.126  19.194   1.599  0.00  0.00    -0.174 N 
ATOM      7  HN  UNK N   1      19.692  19.765   0.874  1.00  0.00     0.186 HD
HETATM    8  N   UNK N   1      20.840  21.173   2.761  0.00  0.00    -0.234 N 
HETATM    9  N   UNK N   1      21.349  18.990   3.626  0.00  0.00    -0.168 N 
ATOM     10  HN  UNK N   1      21.824  19.439   4.408  1.00  0.00     0.186 HD
HETATM   11  C   UNK N   1      21.306  17.627   3.567  0.00  0.00     0.188 A 
HETATM   12  N   UNK N   1      20.442  15.767   2.157  0.00  0.00    -0.346 N 
HETATM   13  C   UNK N   1      19.738  15.819   0.991  0.00  0.00     0.182 A 
HETATM   14  H   UNK N   1      20.426  21.739   2.070  0.00  0.00     0.174 HD
HETATM   15  H   UNK N   1      21.303  21.589   3.524  0.00  0.00     0.174 HD
HETATM   16  H   UNK N   1      20.735  14.967   2.650  0.00  0.00     0.167 HD
ENDROOT
BRANCH  11  17
HETATM   17  O   UNK N   1      21.898  16.919   4.555  0.00  0.00    -0.326 OA
BRANCH  17  18
HETATM   18  C   UNK N   1      22.419  17.411   5.724  0.00  0.00     0.256 C 
BRANCH  18  19
HETATM   19  C   UNK N   1      21.330  17.661   6.742  0.00  0.00     0.154 C 
HETATM   20  O   UNK N   1      20.976  18.813   6.929  0.00  0.00    -0.295 OA
BRANCH  19  21
HETATM   21  C   UNK N   1      20.657  16.554   7.542  0.00  0.00     0.049 C 
HETATM   22  C   UNK N   1      21.376  15.233   7.734  0.00  0.00     0.017 C 
HETATM   23  C   UNK N   1      19.281  16.675   8.177  0.00  0.00     0.017 C 
ENDBRANCH  19  21
ENDBRANCH  18  19
ENDBRANCH  17  18
ENDBRANCH  11  17
TORSDOF 4
ENDMDL
MODEL 8
REMARK VINA RESULT:      -5.6     13.453     15.627
REMARK  4 active torsions:
REMARK  status: ('A' for Active; 'I' for Inactive)
REMARK       I    between atoms: C_1  and  N_13 
REMARK    1  A    between atoms: C_4  and  C_7 
REMARK    2  A    between atoms: C_4  and  C_18 
REMARK    3  A    between atoms: C_16  and  O_17 
REMARK    4  A    between atoms: O_17  and  C_18 
ROOT
HETATM    1  C   UNK N   1      33.423  13.389   9.006  0.00  0.00     0.679 A 
HETATM    2  C   UNK N   1      33.883  15.622   8.514  0.00  0.00     0.153 A 
HETATM    3  C   UNK N   1      34.264  15.863   9.784  0.00  0.00     0.130 A 
HETATM    4  N   UNK N   1      33.989  16.734   7.778  0.00  0.00    -0.336 N 
ATOM      5  HN  UNK N   1      33.774  16.857   6.788  1.00  0.00     0.168 HD
HETATM    6  N   UNK N   1      33.461  14.407   8.094  0.00  0.00    -0.174 N 
ATOM      7  HN  UNK N   1      33.179  14.255   7.125  1.00  0.00     0.186 HD
HETATM    8  N   UNK N   1      32.990  12.108   8.614  0.00  0.00    -0.234 N 
HETATM    9  N   UNK N   1      33.805  13.608  10.304  0.00  0.00    -0.168 N 
ATOM     10  HN  UNK N   1      33.770  12.836  10.970  1.00  0.00     0.186 HD
HETATM   11  C   UNK N   1      34.231  14.833  10.729  0.00  0.00     0.188 A 
HETATM   12  N   UNK N   1      34.629  17.148   9.904  0.00  0.00    -0.346 N 
HETATM   13  C   UNK N   1      34.452  17.665   8.656  0.00  0.00     0.182 A 
HETATM   14  H   UNK N   1      32.715  11.945   7.682  0.00  0.00     0.174 HD
HETATM   15  H   UNK N   1      32.963  11.375   9.270  0.00  0.00     0.174 HD
HETATM   16  H   UNK N   1      34.952  17.612  10.710  0.00  0.00     0.167 HD
ENDROOT
BRANCH  11  17
HETATM   17  O   UNK N   1      34.593  14.979  12.023  0.00  0.00    -0.326 OA
BRANCH  17  18
HETATM   18  C   UNK N   1      35.731  14.500  12.620  0.00  0.00     0.256 C 
BRANCH  18  19
HETATM   19  C   UNK N   1      35.397  13.504  13.708  0.00  0.00     0.154 C 
HETATM   20  O   UNK N   1      34.578  12.636  13.456  0.00  0.00    -0.295 OA
BRANCH  19  21
HETATM   21  C   UNK N   1      36.027  13.529  15.093  0.00  0.00     0.049 C 
HETATM   22  C   UNK N   1      35.558  12.538  16.140  0.00  0.00     0.017 C 
HETATM   23  C   UNK N   1      37.116  14.500  15.519  0.00  0.00     0.017 C 
ENDBRANCH  19  21
ENDBRANCH  18  19
ENDBRANCH  17  18
ENDBRANCH  11  17
TORSDOF 4
ENDMDL
MODEL 9
REMARK VINA RESULT:      -5.4     13.556     16.219
REMARK  4 active torsions:
REMARK  status: ('A' for Active; 'I' for Inactive)
REMARK       I    between atoms: C_1  and  N_13 
REMARK    1  A    between atoms: C_4  and  C_7 
REMARK    2  A    between atoms: C_4  and  C_18 
REMARK    3  A    between atoms: C_16  and  O_17 
REMARK    4  A    between atoms: O_17  and  C_18 
ROOT
HETATM    1  C   UNK N   1      38.213  13.610   9.715  0.00  0.00     0.679 A 
HETATM    2  C   UNK N   1      37.129  13.646  11.779  0.00  0.00     0.153 A 
HETATM    3  C   UNK N   1      36.185  14.488  11.312  0.00  0.00     0.130 A 
HETATM    4  N   UNK N   1      36.895  13.353  13.064  0.00  0.00    -0.336 N 
ATOM      5  HN  UNK N   1      37.436  12.746  13.679  1.00  0.00     0.168 HD
HETATM    6  N   UNK N   1      38.148  13.192  11.015  0.00  0.00    -0.174 N 
ATOM      7  HN  UNK N   1      38.847  12.555  11.397  1.00  0.00     0.186 HD
HETATM    8  N   UNK N   1      39.256  13.163   8.882  0.00  0.00    -0.234 N 
HETATM    9  N   UNK N   1      37.266  14.467   9.215  0.00  0.00    -0.168 N 
ATOM     10  HN  UNK N   1      37.332  14.768   8.243  1.00  0.00     0.186 HD
HETATM   11  C   UNK N   1      36.238  14.926   9.985  0.00  0.00     0.188 A 
HETATM   12  N   UNK N   1      35.310  14.765  12.290  0.00  0.00    -0.346 N 
HETATM   13  C   UNK N   1      35.766  14.055  13.359  0.00  0.00     0.182 A 
HETATM   14  H   UNK N   1      39.939  12.548   9.236  0.00  0.00     0.174 HD
HETATM   15  H   UNK N   1      39.304  13.464   7.946  0.00  0.00     0.174 HD
HETATM   16  H   UNK N   1      34.518  15.347  12.245  0.00  0.00     0.167 HD
ENDROOT
BRANCH  11  17
HETATM   17  O   UNK N   1      35.339  15.768   9.428  0.00  0.00    -0.326 OA
BRANCH  17  18
HETATM   18  C   UNK N   1      35.058  17.052   9.821  0.00  0.00     0.256 C 
BRANCH  18  19
HETATM   19  C   UNK N   1      34.630  17.899   8.644  0.00  0.00     0.154 C 
HETATM   20  O   UNK N   1      35.180  18.977   8.486  0.00  0.00    -0.295 OA
BRANCH  19  21
HETATM   21  C   UNK N   1      33.556  17.479   7.651  0.00  0.00     0.049 C 
HETATM   22  C   UNK N   1      32.175  17.117   8.161  0.00  0.00     0.017 C 
HETATM   23  C   UNK N   1      33.769  17.390   6.149  0.00  0.00     0.017 C 
ENDBRANCH  19  21
ENDBRANCH  18  19
ENDBRANCH  17  18
ENDBRANCH  11  17
TORSDOF 4
ENDMDL
