REMARK  4 active torsions:
REMARK  status: ('A' for Active; 'I' for Inactive)
REMARK       I    between atoms: C_1  and  N_13 
REMARK    1  A    between atoms: C_4  and  C_7 
REMARK    2  A    between atoms: C_4  and  C_18 
REMARK    3  A    between atoms: C_16  and  O_17 
REMARK    4  A    between atoms: O_17  and  C_18 
ROOT
HETATM    1  C   UNK N   1       2.765   1.907   0.000  0.00  0.00     0.679 A 
HETATM    2  C   UNK N   1       3.494  -0.308  -0.000  0.00  0.00     0.153 A 
HETATM    3  C   UNK N   1       2.226  -0.766   0.000  0.00  0.00     0.130 A 
HETATM    4  N   UNK N   1       4.357  -1.331  -0.000  0.00  0.00    -0.336 N 
ATOM      5  HN  UNK N   1       5.376  -1.294  -0.000  1.00  0.00     0.168 HD
HETATM    6  N   UNK N   1       3.797   1.010  -0.000  0.00  0.00    -0.174 N 
ATOM      7  HN  UNK N   1       4.767   1.326  -0.000  1.00  0.00     0.186 HD
HETATM    8  N   UNK N   1       3.033   3.289   0.000  0.00  0.00    -0.234 N 
HETATM    9  N   UNK N   1       1.466   1.468   0.000  0.00  0.00    -0.168 N 
ATOM     10  HN  UNK N   1       0.710   2.152   0.000  1.00  0.00     0.186 HD
HETATM   11  C   UNK N   1       1.159   0.138   0.000  0.00  0.00     0.188 A 
HETATM   12  N   UNK N   1       2.235  -2.107   0.000  0.00  0.00    -0.346 N 
HETATM   13  C   UNK N   1       3.558  -2.433  -0.000  0.00  0.00     0.182 A 
HETATM   14  H   UNK N   1       3.964   3.610   0.000  0.00  0.00     0.174 HD
HETATM   15  H   UNK N   1       2.290   3.935   0.000  0.00  0.00     0.174 HD
HETATM   16  H   UNK N   1       1.463  -2.717   0.000  0.00  0.00     0.167 HD
ENDROOT
BRANCH  11  17
HETATM   17  O   UNK N   1      -0.143  -0.225   0.000  0.00  0.00    -0.326 OA
BRANCH  17  18
HETATM   18  C   UNK N   1      -0.643  -1.502  -0.000  0.00  0.00     0.256 C 
BRANCH  18  19
HETATM   19  C   UNK N   1      -2.155  -1.494   0.000  0.00  0.00     0.154 C 
HETATM   20  O   UNK N   1      -2.732  -2.569  -0.000  0.00  0.00    -0.295 OA
BRANCH  19  21
HETATM   21  C   UNK N   1      -2.989  -0.221   0.001  0.00  0.00     0.049 C 
HETATM   22  C   UNK N   1      -4.502  -0.324  -0.000  0.00  0.00     0.017 C 
HETATM   23  C   UNK N   1      -2.406   1.183  -0.000  0.00  0.00     0.017 C 
ENDBRANCH  19  21
ENDBRANCH  18  19
ENDBRANCH  17  18
ENDBRANCH  11  17
TORSDOF 4
