MODEL 1
REMARK VINA RESULT:      -5.1      0.000      0.000
REMARK  10 active torsions:
REMARK  status: ('A' for Active; 'I' for Inactive)
REMARK    1  A    between atoms: C_6  and  C_7 
REMARK    2  A    between atoms: C_6  and  N_14 
REMARK    3  A    between atoms: C_7  and  C_8 
REMARK    4  A    between atoms: C_8  and  C_9 
REMARK    5  A    between atoms: C_9  and  C_10 
REMARK    6  A    between atoms: C_10  and  C_11 
REMARK    7  A    between atoms: C_11  and  C_12 
REMARK    8  A    between atoms: C_12  and  C_13 
REMARK    9  A    between atoms: C_13  and  N_17 
REMARK   10  A    between atoms: N_17  and  C_18 
ROOT
HETATM    1  C   UNK N   1      29.879  17.293   4.379  0.00  0.00     0.030 C 
ENDROOT
BRANCH   1   2
HETATM    2  C   UNK N   1      28.571  17.515   5.117  0.00  0.00     0.272 C 
BRANCH   2   3
HETATM    3  N   UNK N   1      28.158  18.910   5.078  0.00  0.00     0.093 N 
HETATM    4  C   UNK N   1      27.401  19.171   6.304  0.00  0.00     0.303 C 
HETATM    5  C   UNK N   1      26.693  20.529   6.242  0.00  0.00     0.146 C 
HETATM    6  O   UNK N   1      25.846  20.620   5.107  0.00  0.00    -0.378 OA
HETATM    7  C   UNK N   1      27.675  21.693   6.314  0.00  0.00     0.041 C 
HETATM    8  C   UNK N   1      26.561  20.372   3.909  0.00  0.00     0.146 C 
HETATM    9  C   UNK N   1      25.581  20.370   2.755  0.00  0.00     0.041 C 
HETATM   10  C   UNK N   1      27.241  19.003   3.947  0.00  0.00     0.303 C 
ENDBRANCH   2   3
ENDBRANCH   1   2
BRANCH   1  11
HETATM   11  C   UNK N   1      31.019  17.409   5.371  0.00  0.00     0.002 C 
BRANCH  11  12
HETATM   12  C   UNK N   1      31.419  16.028   5.855  0.00  0.00     0.000 C 
BRANCH  12  13
HETATM   13  C   UNK N   1      32.516  16.172   6.890  0.00  0.00     0.000 C 
BRANCH  13  14
HETATM   14  C   UNK N   1      33.178  17.528   6.757  0.00  0.00     0.002 C 
BRANCH  14  15
HETATM   15  C   UNK N   1      33.539  18.075   8.127  0.00  0.00     0.020 C 
BRANCH  15  16
HETATM   16  C   UNK N   1      34.675  17.273   8.739  0.00  0.00     0.122 C 
BRANCH  16  17
HETATM   17  N   UNK N   1      34.443  17.088  10.144  0.00  0.00    -0.368 N 
HETATM   18  H   UNK N   1      33.644  17.479  10.567  0.00  0.00     0.161 HD
BRANCH  17  19
HETATM   19  C   UNK N   1      35.319  16.378  10.884  0.00  0.00     0.348 C 
HETATM   20  O   UNK N   1      36.513  16.476  10.676  0.00  0.00    -0.284 OA
ENDBRANCH  17  19
ENDBRANCH  16  17
ENDBRANCH  15  16
ENDBRANCH  14  15
ENDBRANCH  13  14
ENDBRANCH  12  13
ENDBRANCH  11  12
ENDBRANCH   1  11
TORSDOF 10
ENDMDL
MODEL 2
REMARK VINA RESULT:      -5.0      4.417      6.615
REMARK  10 active torsions:
REMARK  status: ('A' for Active; 'I' for Inactive)
REMARK    1  A    between atoms: C_6  and  C_7 
REMARK    2  A    between atoms: C_6  and  N_14 
REMARK    3  A    between atoms: C_7  and  C_8 
REMARK    4  A    between atoms: C_8  and  C_9 
REMARK    5  A    between atoms: C_9  and  C_10 
REMARK    6  A    between atoms: C_10  and  C_11 
REMARK    7  A    between atoms: C_11  and  C_12 
REMARK    8  A    between atoms: C_12  and  C_13 
REMARK    9  A    between atoms: C_13  and  N_17 
REMARK   10  A    between atoms: N_17  and  C_18 
ROOT
HETATM    1  C   UNK N   1      24.539  19.389   3.864  0.00  0.00     0.030 C 
ENDROOT
BRANCH   1   2
HETATM    2  C   UNK N   1      23.767  18.411   4.731  0.00  0.00     0.272 C 
BRANCH   2   3
HETATM    3  N   UNK N   1      22.363  18.345   4.353  0.00  0.00     0.093 N 
HETATM    4  C   UNK N   1      22.169  17.088   3.628  0.00  0.00     0.303 C 
HETATM    5  C   UNK N   1      20.793  17.041   2.953  0.00  0.00     0.146 C 
HETATM    6  O   UNK N   1      20.604  18.147   2.087  0.00  0.00    -0.378 OA
HETATM    7  C   UNK N   1      19.662  16.910   3.966  0.00  0.00     0.041 C 
HETATM    8  C   UNK N   1      20.785  19.375   2.770  0.00  0.00     0.146 C 
HETATM    9  C   UNK N   1      20.683  20.505   1.767  0.00  0.00     0.041 C 
HETATM   10  C   UNK N   1      22.169  19.447   3.416  0.00  0.00     0.303 C 
ENDBRANCH   2   3
ENDBRANCH   1   2
BRANCH   1  11
HETATM   11  C   UNK N   1      25.979  18.925   3.778  0.00  0.00     0.002 C 
BRANCH  11  12
HETATM   12  C   UNK N   1      26.893  20.122   3.589  0.00  0.00     0.000 C 
BRANCH  12  13
HETATM   13  C   UNK N   1      27.871  20.177   4.745  0.00  0.00     0.000 C 
BRANCH  13  14
HETATM   14  C   UNK N   1      27.266  20.954   5.897  0.00  0.00     0.002 C 
BRANCH  14  15
HETATM   15  C   UNK N   1      27.495  20.217   7.206  0.00  0.00     0.020 C 
BRANCH  15  16
HETATM   16  C   UNK N   1      28.069  18.835   6.947  0.00  0.00     0.122 C 
BRANCH  16  17
HETATM   17  N   UNK N   1      28.982  18.479   7.997  0.00  0.00    -0.368 N 
HETATM   18  H   UNK N   1      29.837  18.960   8.091  0.00  0.00     0.161 HD
BRANCH  17  19
HETATM   19  C   UNK N   1      28.669  17.487   8.855  0.00  0.00     0.348 C 
HETATM   20  O   UNK N   1      27.633  17.536   9.491  0.00  0.00    -0.284 OA
ENDBRANCH  17  19
ENDBRANCH  16  17
ENDBRANCH  15  16
ENDBRANCH  14  15
ENDBRANCH  13  14
ENDBRANCH  12  13
ENDBRANCH  11  12
ENDBRANCH   1  11
TORSDOF 10
ENDMDL
MODEL 3
REMARK VINA RESULT:      -5.0      2.283      8.355
REMARK  10 active torsions:
REMARK  status: ('A' for Active; 'I' for Inactive)
REMARK    1  A    between atoms: C_6  and  C_7 
REMARK    2  A    between atoms: C_6  and  N_14 
REMARK    3  A    between atoms: C_7  and  C_8 
REMARK    4  A    between atoms: C_8  and  C_9 
REMARK    5  A    between atoms: C_9  and  C_10 
REMARK    6  A    between atoms: C_10  and  C_11 
REMARK    7  A    between atoms: C_11  and  C_12 
REMARK    8  A    between atoms: C_12  and  C_13 
REMARK    9  A    between atoms: C_13  and  N_17 
REMARK   10  A    between atoms: N_17  and  C_18 
ROOT
HETATM    1  C   UNK N   1      29.904  18.325   8.481  0.00  0.00     0.030 C 
ENDROOT
BRANCH   1   2
HETATM    2  C   UNK N   1      30.341  16.926   8.083  0.00  0.00     0.272 C 
BRANCH   2   3
HETATM    3  N   UNK N   1      31.786  16.830   7.943  0.00  0.00     0.093 N 
HETATM    4  C   UNK N   1      32.348  18.116   8.362  0.00  0.00     0.303 C 
HETATM    5  C   UNK N   1      33.834  18.219   8.002  0.00  0.00     0.146 C 
HETATM    6  O   UNK N   1      34.046  18.014   6.615  0.00  0.00    -0.378 OA
HETATM    7  C   UNK N   1      34.696  17.292   8.853  0.00  0.00     0.041 C 
HETATM    8  C   UNK N   1      33.512  16.772   6.189  0.00  0.00     0.146 C 
HETATM    9  C   UNK N   1      33.668  16.671   4.686  0.00  0.00     0.041 C 
HETATM   10  C   UNK N   1      32.020  16.676   6.511  0.00  0.00     0.303 C 
ENDBRANCH   2   3
ENDBRANCH   1   2
BRANCH   1  11
HETATM   11  C   UNK N   1      28.577  18.624   7.812  0.00  0.00     0.002 C 
BRANCH  11  12
HETATM   12  C   UNK N   1      28.692  18.389   6.317  0.00  0.00     0.000 C 
BRANCH  12  13
HETATM   13  C   UNK N   1      27.373  17.848   5.805  0.00  0.00     0.000 C 
BRANCH  13  14
HETATM   14  C   UNK N   1      27.161  18.280   4.368  0.00  0.00     0.002 C 
BRANCH  14  15
HETATM   15  C   UNK N   1      27.349  19.782   4.236  0.00  0.00     0.020 C 
BRANCH  15  16
HETATM   16  C   UNK N   1      26.088  20.516   4.657  0.00  0.00     0.122 C 
BRANCH  16  17
HETATM   17  N   UNK N   1      24.947  19.949   3.995  0.00  0.00    -0.368 N 
HETATM   18  H   UNK N   1      24.528  19.132   4.349  0.00  0.00     0.161 HD
BRANCH  17  19
HETATM   19  C   UNK N   1      24.449  20.538   2.888  0.00  0.00     0.348 C 
HETATM   20  O   UNK N   1      23.416  21.178   2.950  0.00  0.00    -0.284 OA
ENDBRANCH  17  19
ENDBRANCH  16  17
ENDBRANCH  15  16
ENDBRANCH  14  15
ENDBRANCH  13  14
ENDBRANCH  12  13
ENDBRANCH  11  12
ENDBRANCH   1  11
TORSDOF 10
ENDMDL
MODEL 4
REMARK VINA RESULT:      -4.9      3.078      4.121
REMARK  10 active torsions:
REMARK  status: ('A' for Active; 'I' for Inactive)
REMARK    1  A    between atoms: C_6  and  C_7 
REMARK    2  A    between atoms: C_6  and  N_14 
REMARK    3  A    between atoms: C_7  and  C_8 
REMARK    4  A    between atoms: C_8  and  C_9 
REMARK    5  A    between atoms: C_9  and  C_10 
REMARK    6  A    between atoms: C_10  and  C_11 
REMARK    7  A    between atoms: C_11  and  C_12 
REMARK    8  A    between atoms: C_12  and  C_13 
REMARK    9  A    between atoms: C_13  and  N_17 
REMARK   10  A    between atoms: N_17  and  C_18 
ROOT
HETATM    1  C   UNK N   1      33.058  17.378   5.806  0.00  0.00     0.030 C 
ENDROOT
BRANCH   1   2
HETATM    2  C   UNK N   1      31.928  16.500   6.315  0.00  0.00     0.272 C 
BRANCH   2   3
HETATM    3  N   UNK N   1      30.936  17.269   7.053  0.00  0.00     0.093 N 
HETATM    4  C   UNK N   1      30.936  16.767   8.429  0.00  0.00     0.303 C 
HETATM    5  C   UNK N   1      29.746  17.318   9.222  0.00  0.00     0.146 C 
HETATM    6  O   UNK N   1      28.516  17.019   8.585  0.00  0.00    -0.378 OA
HETATM    7  C   UNK N   1      29.890  18.808   9.511  0.00  0.00     0.041 C 
HETATM    8  C   UNK N   1      28.494  17.498   7.251  0.00  0.00     0.146 C 
HETATM    9  C   UNK N   1      27.206  17.046   6.597  0.00  0.00     0.041 C 
HETATM   10  C   UNK N   1      29.657  16.924   6.442  0.00  0.00     0.303 C 
ENDBRANCH   2   3
ENDBRANCH   1   2
BRANCH   1  11
HETATM   11  C   UNK N   1      34.290  17.115   6.648  0.00  0.00     0.002 C 
BRANCH  11  12
HETATM   12  C   UNK N   1      34.357  18.116   7.786  0.00  0.00     0.000 C 
BRANCH  12  13
HETATM   13  C   UNK N   1      34.583  17.368   9.083  0.00  0.00     0.000 C 
BRANCH  13  14
HETATM   14  C   UNK N   1      34.824  15.899   8.797  0.00  0.00     0.002 C 
BRANCH  14  15
HETATM   15  C   UNK N   1      35.729  15.298   9.859  0.00  0.00     0.020 C 
BRANCH  15  16
HETATM   16  C   UNK N   1      35.427  15.900  11.220  0.00  0.00     0.122 C 
BRANCH  16  17
HETATM   17  N   UNK N   1      36.333  15.373  12.202  0.00  0.00    -0.368 N 
HETATM   18  H   UNK N   1      37.191  15.824  12.373  0.00  0.00     0.161 HD
BRANCH  17  19
HETATM   19  C   UNK N   1      36.008  14.260  12.890  0.00  0.00     0.348 C 
HETATM   20  O   UNK N   1      34.860  13.856  12.890  0.00  0.00    -0.284 OA
ENDBRANCH  17  19
ENDBRANCH  16  17
ENDBRANCH  15  16
ENDBRANCH  14  15
ENDBRANCH  13  14
ENDBRANCH  12  13
ENDBRANCH  11  12
ENDBRANCH   1  11
TORSDOF 10
ENDMDL
MODEL 5
REMARK VINA RESULT:      -4.9      4.651     11.132
REMARK  10 active torsions:
REMARK  status: ('A' for Active; 'I' for Inactive)
REMARK    1  A    between atoms: C_6  and  C_7 
REMARK    2  A    between atoms: C_6  and  N_14 
REMARK    3  A    between atoms: C_7  and  C_8 
REMARK    4  A    between atoms: C_8  and  C_9 
REMARK    5  A    between atoms: C_9  and  C_10 
REMARK    6  A    between atoms: C_10  and  C_11 
REMARK    7  A    between atoms: C_11  and  C_12 
REMARK    8  A    between atoms: C_12  and  C_13 
REMARK    9  A    between atoms: C_13  and  N_17 
REMARK   10  A    between atoms: N_17  and  C_18 
ROOT
HETATM    1  C   UNK N   1      35.991  13.598  11.737  0.00  0.00     0.030 C 
ENDROOT
BRANCH   1   2
HETATM    2  C   UNK N   1      36.423  14.223  13.052  0.00  0.00     0.272 C 
BRANCH   2   3
HETATM    3  N   UNK N   1      35.663  13.697  14.176  0.00  0.00     0.093 N 
HETATM    4  C   UNK N   1      36.631  13.240  15.176  0.00  0.00     0.303 C 
HETATM    5  C   UNK N   1      35.947  12.426  16.281  0.00  0.00     0.146 C 
HETATM    6  O   UNK N   1      35.231  11.325  15.744  0.00  0.00    -0.378 OA
HETATM    7  C   UNK N   1      35.071  13.295  17.175  0.00  0.00     0.041 C 
HETATM    8  C   UNK N   1      34.286  11.747  14.775  0.00  0.00     0.146 C 
HETATM    9  C   UNK N   1      33.643  10.520  14.164  0.00  0.00     0.041 C 
HETATM   10  C   UNK N   1      34.965  12.529  13.650  0.00  0.00     0.303 C 
ENDBRANCH   2   3
ENDBRANCH   1   2
BRANCH   1  11
HETATM   11  C   UNK N   1      35.908  14.689  10.689  0.00  0.00     0.002 C 
BRANCH  11  12
HETATM   12  C   UNK N   1      35.511  15.999  11.343  0.00  0.00     0.000 C 
BRANCH  12  13
HETATM   13  C   UNK N   1      35.366  17.058  10.269  0.00  0.00     0.000 C 
BRANCH  13  14
HETATM   14  C   UNK N   1      34.273  16.661   9.297  0.00  0.00     0.002 C 
BRANCH  14  15
HETATM   15  C   UNK N   1      34.185  17.671   8.165  0.00  0.00     0.020 C 
BRANCH  15  16
HETATM   16  C   UNK N   1      32.742  17.863   7.733  0.00  0.00     0.122 C 
BRANCH  16  17
HETATM   17  N   UNK N   1      31.859  17.557   8.824  0.00  0.00    -0.368 N 
HETATM   18  H   UNK N   1      32.188  17.035   9.592  0.00  0.00     0.161 HD
BRANCH  17  19
HETATM   19  C   UNK N   1      30.581  17.986   8.797  0.00  0.00     0.348 C 
HETATM   20  O   UNK N   1      30.223  18.884   9.535  0.00  0.00    -0.284 OA
ENDBRANCH  17  19
ENDBRANCH  16  17
ENDBRANCH  15  16
ENDBRANCH  14  15
ENDBRANCH  13  14
ENDBRANCH  12  13
ENDBRANCH  11  12
ENDBRANCH   1  11
TORSDOF 10
ENDMDL
MODEL 6
REMARK VINA RESULT:      -4.9      8.312      9.698
REMARK  10 active torsions:
REMARK  status: ('A' for Active; 'I' for Inactive)
REMARK    1  A    between atoms: C_6  and  C_7 
REMARK    2  A    between atoms: C_6  and  N_14 
REMARK    3  A    between atoms: C_7  and  C_8 
REMARK    4  A    between atoms: C_8  and  C_9 
REMARK    5  A    between atoms: C_9  and  C_10 
REMARK    6  A    between atoms: C_10  and  C_11 
REMARK    7  A    between atoms: C_11  and  C_12 
REMARK    8  A    between atoms: C_12  and  C_13 
REMARK    9  A    between atoms: C_13  and  N_17 
REMARK   10  A    between atoms: N_17  and  C_18 
ROOT
HETATM    1  C   UNK N   1      20.711  14.929   7.982  0.00  0.00     0.030 C 
ENDROOT
BRANCH   1   2
HETATM    2  C   UNK N   1      20.869  16.425   7.776  0.00  0.00     0.272 C 
BRANCH   2   3
HETATM    3  N   UNK N   1      21.443  16.734   6.475  0.00  0.00     0.093 N 
HETATM    4  C   UNK N   1      21.262  18.170   6.252  0.00  0.00     0.303 C 
HETATM    5  C   UNK N   1      21.588  18.554   4.804  0.00  0.00     0.146 C 
HETATM    6  O   UNK N   1      20.809  17.807   3.884  0.00  0.00    -0.378 OA
HETATM    7  C   UNK N   1      23.079  18.450   4.504  0.00  0.00     0.041 C 
HETATM    8  C   UNK N   1      20.972  16.413   4.081  0.00  0.00     0.146 C 
HETATM    9  C   UNK N   1      20.030  15.682   3.148  0.00  0.00     0.041 C 
HETATM   10  C   UNK N   1      20.614  16.015   5.513  0.00  0.00     0.303 C 
ENDBRANCH   2   3
ENDBRANCH   1   2
BRANCH   1  11
HETATM   11  C   UNK N   1      20.963  14.614   9.444  0.00  0.00     0.002 C 
BRANCH  11  12
HETATM   12  C   UNK N   1      21.127  13.117   9.625  0.00  0.00     0.000 C 
BRANCH  12  13
HETATM   13  C   UNK N   1      21.513  12.504   8.295  0.00  0.00     0.000 C 
BRANCH  13  14
HETATM   14  C   UNK N   1      22.997  12.195   8.279  0.00  0.00     0.002 C 
BRANCH  14  15
HETATM   15  C   UNK N   1      23.433  11.637   9.623  0.00  0.00     0.020 C 
BRANCH  15  16
HETATM   16  C   UNK N   1      24.663  12.369  10.130  0.00  0.00     0.122 C 
BRANCH  16  17
HETATM   17  N   UNK N   1      24.702  12.324  11.566  0.00  0.00    -0.368 N 
HETATM   18  H   UNK N   1      25.538  12.533  12.042  0.00  0.00     0.161 HD
BRANCH  17  19
HETATM   19  C   UNK N   1      23.594  11.997  12.260  0.00  0.00     0.348 C 
HETATM   20  O   UNK N   1      23.597  12.051  13.475  0.00  0.00    -0.284 OA
ENDBRANCH  17  19
ENDBRANCH  16  17
ENDBRANCH  15  16
ENDBRANCH  14  15
ENDBRANCH  13  14
ENDBRANCH  12  13
ENDBRANCH  11  12
ENDBRANCH   1  11
TORSDOF 10
ENDMDL
MODEL 7
REMARK VINA RESULT:      -4.9     11.192     14.716
REMARK  10 active torsions:
REMARK  status: ('A' for Active; 'I' for Inactive)
REMARK    1  A    between atoms: C_6  and  C_7 
REMARK    2  A    between atoms: C_6  and  N_14 
REMARK    3  A    between atoms: C_7  and  C_8 
REMARK    4  A    between atoms: C_8  and  C_9 
REMARK    5  A    between atoms: C_9  and  C_10 
REMARK    6  A    between atoms: C_10  and  C_11 
REMARK    7  A    between atoms: C_11  and  C_12 
REMARK    8  A    between atoms: C_12  and  C_13 
REMARK    9  A    between atoms: C_13  and  N_17 
REMARK   10  A    between atoms: N_17  and  C_18 
ROOT
HETATM    1  C   UNK N   1      26.487  25.717  -4.144  0.00  0.00     0.030 C 
ENDROOT
BRANCH   1   2
HETATM    2  C   UNK N   1      26.687  24.278  -3.703  0.00  0.00     0.272 C 
BRANCH   2   3
HETATM    3  N   UNK N   1      28.087  23.885  -3.760  0.00  0.00     0.093 N 
HETATM    4  C   UNK N   1      28.420  23.284  -2.466  0.00  0.00     0.303 C 
HETATM    5  C   UNK N   1      29.932  23.080  -2.320  0.00  0.00     0.146 C 
HETATM    6  O   UNK N   1      30.638  24.297  -2.498  0.00  0.00    -0.378 OA
HETATM    7  C   UNK N   1      30.454  21.979  -3.237  0.00  0.00     0.041 C 
HETATM    8  C   UNK N   1      30.332  24.894  -3.746  0.00  0.00     0.146 C 
HETATM    9  C   UNK N   1      31.025  26.237  -3.821  0.00  0.00     0.041 C 
HETATM   10  C   UNK N   1      28.828  25.135  -3.886  0.00  0.00     0.303 C 
ENDBRANCH   2   3
ENDBRANCH   1   2
BRANCH   1  11
HETATM   11  C   UNK N   1      25.576  25.728  -5.355  0.00  0.00     0.002 C 
BRANCH  11  12
HETATM   12  C   UNK N   1      25.620  27.093  -6.017  0.00  0.00     0.000 C 
BRANCH  12  13
HETATM   13  C   UNK N   1      26.636  27.059  -7.139  0.00  0.00     0.000 C 
BRANCH  13  14
HETATM   14  C   UNK N   1      27.851  27.882  -6.762  0.00  0.00     0.002 C 
BRANCH  14  15
HETATM   15  C   UNK N   1      27.447  29.033  -5.856  0.00  0.00     0.020 C 
BRANCH  15  16
HETATM   16  C   UNK N   1      28.549  29.336  -4.855  0.00  0.00     0.122 C 
BRANCH  16  17
HETATM   17  N   UNK N   1      28.245  28.725  -3.591  0.00  0.00    -0.368 N 
HETATM   18  H   UNK N   1      27.854  27.821  -3.563  0.00  0.00     0.161 HD
BRANCH  17  19
HETATM   19  C   UNK N   1      28.495  29.389  -2.445  0.00  0.00     0.348 C 
HETATM   20  O   UNK N   1      27.685  29.368  -1.538  0.00  0.00    -0.284 OA
ENDBRANCH  17  19
ENDBRANCH  16  17
ENDBRANCH  15  16
ENDBRANCH  14  15
ENDBRANCH  13  14
ENDBRANCH  12  13
ENDBRANCH  11  12
ENDBRANCH   1  11
TORSDOF 10
ENDMDL
MODEL 8
REMARK VINA RESULT:      -4.8      3.444      9.650
REMARK  10 active torsions:
REMARK  status: ('A' for Active; 'I' for Inactive)
REMARK    1  A    between atoms: C_6  and  C_7 
REMARK    2  A    between atoms: C_6  and  N_14 
REMARK    3  A    between atoms: C_7  and  C_8 
REMARK    4  A    between atoms: C_8  and  C_9 
REMARK    5  A    between atoms: C_9  and  C_10 
REMARK    6  A    between atoms: C_10  and  C_11 
REMARK    7  A    between atoms: C_11  and  C_12 
REMARK    8  A    between atoms: C_12  and  C_13 
REMARK    9  A    between atoms: C_13  and  N_17 
REMARK   10  A    between atoms: N_17  and  C_18 
ROOT
HETATM    1  C   UNK N   1      34.621  16.539   9.207  0.00  0.00     0.030 C 
ENDROOT
BRANCH   1   2
HETATM    2  C   UNK N   1      35.398  16.833  10.478  0.00  0.00     0.272 C 
BRANCH   2   3
HETATM    3  N   UNK N   1      36.248  15.715  10.862  0.00  0.00     0.093 N 
HETATM    4  C   UNK N   1      36.068  14.668   9.854  0.00  0.00     0.303 C 
HETATM    5  C   UNK N   1      36.707  13.349  10.302  0.00  0.00     0.146 C 
HETATM    6  O   UNK N   1      36.195  12.925  11.555  0.00  0.00    -0.378 OA
HETATM    7  C   UNK N   1      38.230  13.420  10.303  0.00  0.00     0.041 C 
HETATM    8  C   UNK N   1      36.362  13.924  12.546  0.00  0.00     0.146 C 
HETATM    9  C   UNK N   1      35.695  13.455  13.821  0.00  0.00     0.041 C 
HETATM   10  C   UNK N   1      35.696  15.234  12.124  0.00  0.00     0.303 C 
ENDBRANCH   2   3
ENDBRANCH   1   2
BRANCH   1  11
HETATM   11  C   UNK N   1      34.376  17.846   8.479  0.00  0.00     0.002 C 
BRANCH  11  12
HETATM   12  C   UNK N   1      33.009  17.819   7.823  0.00  0.00     0.000 C 
BRANCH  12  13
HETATM   13  C   UNK N   1      32.218  16.658   8.390  0.00  0.00     0.000 C 
BRANCH  13  14
HETATM   14  C   UNK N   1      31.304  16.086   7.325  0.00  0.00     0.002 C 
BRANCH  14  15
HETATM   15  C   UNK N   1      30.469  17.191   6.699  0.00  0.00     0.020 C 
BRANCH  15  16
HETATM   16  C   UNK N   1      29.070  17.202   7.290  0.00  0.00     0.122 C 
BRANCH  16  17
HETATM   17  N   UNK N   1      28.846  18.432   7.997  0.00  0.00    -0.368 N 
HETATM   18  H   UNK N   1      28.667  19.261   7.497  0.00  0.00     0.161 HD
BRANCH  17  19
HETATM   19  C   UNK N   1      28.881  18.450   9.345  0.00  0.00     0.348 C 
HETATM   20  O   UNK N   1      29.882  18.824   9.925  0.00  0.00    -0.284 OA
ENDBRANCH  17  19
ENDBRANCH  16  17
ENDBRANCH  15  16
ENDBRANCH  14  15
ENDBRANCH  13  14
ENDBRANCH  12  13
ENDBRANCH  11  12
ENDBRANCH   1  11
TORSDOF 10
ENDMDL
MODEL 9
REMARK VINA RESULT:      -4.8      2.553      8.900
REMARK  10 active torsions:
REMARK  status: ('A' for Active; 'I' for Inactive)
REMARK    1  A    between atoms: C_6  and  C_7 
REMARK    2  A    between atoms: C_6  and  N_14 
REMARK    3  A    between atoms: C_7  and  C_8 
REMARK    4  A    between atoms: C_8  and  C_9 
REMARK    5  A    between atoms: C_9  and  C_10 
REMARK    6  A    between atoms: C_10  and  C_11 
REMARK    7  A    between atoms: C_11  and  C_12 
REMARK    8  A    between atoms: C_12  and  C_13 
REMARK    9  A    between atoms: C_13  and  N_17 
REMARK   10  A    between atoms: N_17  and  C_18 
ROOT
HETATM    1  C   UNK N   1      29.175  17.460   8.060  0.00  0.00     0.030 C 
ENDROOT
BRANCH   1   2
HETATM    2  C   UNK N   1      30.518  17.794   8.683  0.00  0.00     0.272 C 
BRANCH   2   3
HETATM    3  N   UNK N   1      31.609  17.642   7.731  0.00  0.00     0.093 N 
HETATM    4  C   UNK N   1      31.141  16.738   6.678  0.00  0.00     0.303 C 
HETATM    5  C   UNK N   1      32.294  16.297   5.770  0.00  0.00     0.146 C 
HETATM    6  O   UNK N   1      33.338  15.692   6.516  0.00  0.00    -0.378 OA
HETATM    7  C   UNK N   1      32.805  17.437   4.897  0.00  0.00     0.041 C 
HETATM    8  C   UNK N   1      33.807  16.553   7.539  0.00  0.00     0.146 C 
HETATM    9  C   UNK N   1      34.833  15.805   8.364  0.00  0.00     0.041 C 
HETATM   10  C   UNK N   1      32.670  16.969   8.473  0.00  0.00     0.303 C 
ENDBRANCH   2   3
ENDBRANCH   1   2
BRANCH   1  11
HETATM   11  C   UNK N   1      28.368  18.737   7.938  0.00  0.00     0.002 C 
BRANCH  11  12
HETATM   12  C   UNK N   1      28.072  19.018   6.476  0.00  0.00     0.000 C 
BRANCH  12  13
HETATM   13  C   UNK N   1      26.996  20.080   6.391  0.00  0.00     0.000 C 
BRANCH  13  14
HETATM   14  C   UNK N   1      27.229  20.955   5.175  0.00  0.00     0.002 C 
BRANCH  14  15
HETATM   15  C   UNK N   1      26.793  20.229   3.914  0.00  0.00     0.020 C 
BRANCH  15  16
HETATM   16  C   UNK N   1      25.338  19.806   4.017  0.00  0.00     0.122 C 
BRANCH  16  17
HETATM   17  N   UNK N   1      24.522  20.651   3.191  0.00  0.00    -0.368 N 
HETATM   18  H   UNK N   1      24.906  21.462   2.785  0.00  0.00     0.161 HD
BRANCH  17  19
HETATM   19  C   UNK N   1      23.230  20.333   2.970  0.00  0.00     0.348 C 
HETATM   20  O   UNK N   1      22.415  21.208   2.748  0.00  0.00    -0.284 OA
ENDBRANCH  17  19
ENDBRANCH  16  17
ENDBRANCH  15  16
ENDBRANCH  14  15
ENDBRANCH  13  14
ENDBRANCH  12  13
ENDBRANCH  11  12
ENDBRANCH   1  11
TORSDOF 10
ENDMDL
