REMARK  10 active torsions:
REMARK  status: ('A' for Active; 'I' for Inactive)
REMARK    1  A    between atoms: C_6  and  C_7 
REMARK    2  A    between atoms: C_6  and  N_14 
REMARK    3  A    between atoms: C_7  and  C_8 
REMARK    4  A    between atoms: C_8  and  C_9 
REMARK    5  A    between atoms: C_9  and  C_10 
REMARK    6  A    between atoms: C_10  and  C_11 
REMARK    7  A    between atoms: C_11  and  C_12 
REMARK    8  A    between atoms: C_12  and  C_13 
REMARK    9  A    between atoms: C_13  and  N_17 
REMARK   10  A    between atoms: N_17  and  C_18 
ROOT
HETATM    1  C   UNK N   1      -0.487   1.550   0.888  0.00  0.00     0.030 C 
ENDROOT
BRANCH   1   2
HETATM    2  C   UNK N   1      -1.826   1.703   0.189  0.00  0.00     0.272 C 
BRANCH   2   3
HETATM    3  N   UNK N   1      -2.713   0.583   0.468  0.00  0.00     0.093 N 
HETATM    4  C   UNK N   1      -2.225  -0.559  -0.308  0.00  0.00     0.303 C 
HETATM    5  C   UNK N   1      -3.236  -1.711  -0.299  0.00  0.00     0.146 C 
HETATM    6  O   UNK N   1      -4.503  -1.291  -0.778  0.00  0.00    -0.378 OA
HETATM    7  C   UNK N   1      -3.336  -2.376   1.069  0.00  0.00     0.041 C 
HETATM    8  C   UNK N   1      -4.995  -0.187  -0.038  0.00  0.00     0.146 C 
HETATM    9  C   UNK N   1      -6.288   0.280  -0.672  0.00  0.00     0.041 C 
HETATM   10  C   UNK N   1      -4.009   0.981  -0.072  0.00  0.00     0.303 C 
ENDBRANCH   2   3
ENDBRANCH   1   2
BRANCH   1  11
HETATM   11  C   UNK N   1       0.598   2.084  -0.026  0.00  0.00     0.002 C 
BRANCH  11  12
HETATM   12  C   UNK N   1       1.245   0.936  -0.778  0.00  0.00     0.000 C 
BRANCH  12  13
HETATM   13  C   UNK N   1       2.634   0.707  -0.219  0.00  0.00     0.000 C 
BRANCH  13  14
HETATM   14  C   UNK N   1       2.806  -0.751   0.157  0.00  0.00     0.002 C 
BRANCH  14  15
HETATM   15  C   UNK N   1       4.173  -0.976   0.781  0.00  0.00     0.020 C 
BRANCH  15  16
HETATM   16  C   UNK N   1       5.249  -1.010  -0.290  0.00  0.00     0.122 C 
BRANCH  16  17
HETATM   17  N   UNK N   1       6.085   0.153  -0.182  0.00  0.00    -0.368 N 
HETATM   18  H   UNK N   1       5.688   1.052  -0.244  0.00  0.00     0.161 HD
BRANCH  17  19
HETATM   19  C   UNK N   1       7.413   0.013   0.006  0.00  0.00     0.348 C 
HETATM   20  O   UNK N   1       8.124   0.996   0.092  0.00  0.00    -0.284 OA
ENDBRANCH  17  19
ENDBRANCH  16  17
ENDBRANCH  15  16
ENDBRANCH  14  15
ENDBRANCH  13  14
ENDBRANCH  12  13
ENDBRANCH  11  12
ENDBRANCH   1  11
TORSDOF 10
