MODEL 1
REMARK VINA RESULT:      -6.0      0.000      0.000
REMARK  3 active torsions:
REMARK  status: ('A' for Active; 'I' for Inactive)
REMARK    1  A    between atoms: S_1  and  C_2 
REMARK    2  A    between atoms: C_2  and  C_3 
REMARK    3  A    between atoms: C_3  and  C_4 
REMARK       I    between atoms: C_4  and  N_6 
ROOT
HETATM    1  C   UNK N   1      36.645  13.484  12.938  0.00  0.00     0.220 C 
HETATM    2  O   UNK N   1      37.157  12.372  12.997  0.00  0.00    -0.273 OA
HETATM    3  N   UNK N   1      36.221  13.984  11.739  0.00  0.00    -0.346 N 
HETATM    4  C   UNK N   1      36.392  13.163  10.532  0.00  0.00     0.131 A 
HETATM    5  C   UNK N   1      35.913  13.726   9.176  0.00  0.00     0.061 A 
HETATM    6  C   UNK N   1      35.316  15.080   9.261  0.00  0.00    -0.020 A 
HETATM    7  C   UNK N   1      35.185  15.795  10.419  0.00  0.00     0.035 A 
HETATM    8  C   UNK N   1      35.620  15.316  11.742  0.00  0.00     0.183 A 
HETATM    9  N   UNK N   1      34.605  16.997  10.193  0.00  0.00    -0.357 N 
HETATM   10  C   UNK N   1      34.794  15.871   8.266  0.00  0.00    -0.001 A 
HETATM   11  C   UNK N   1      34.371  17.028   8.868  0.00  0.00     0.043 A 
HETATM   12  C   UNK N   1      33.785  18.063   8.149  0.00  0.00     0.030 A 
HETATM   13  C   UNK N   1      34.660  15.666   6.896  0.00  0.00     0.014 A 
HETATM   14  C   UNK N   1      34.069  16.695   6.137  0.00  0.00     0.001 A 
HETATM   15  C   UNK N   1      33.634  17.889   6.761  0.00  0.00     0.002 A 
HETATM   16  H   UNK N   1      34.398  17.697  10.854  0.00  0.00     0.166 HD
ENDROOT
BRANCH   1  17
HETATM   17  C   UNK N   1      36.483  14.306  14.196  0.00  0.00     0.113 C 
BRANCH  17  18
HETATM   18  C   UNK N   1      36.591  13.525  15.489  0.00  0.00     0.080 C 
BRANCH  18  19
HETATM   19  S   UNK N   1      34.931  12.949  15.938  0.00  0.00    -0.182 SA
HETATM   20  H   UNK N   1      33.855  13.330  15.198  0.00  0.00     0.101 HD
ENDBRANCH  18  19
ENDBRANCH  17  18
ENDBRANCH   1  17
TORSDOF 3
ENDMDL
MODEL 2
REMARK VINA RESULT:      -5.9     11.555     14.421
REMARK  3 active torsions:
REMARK  status: ('A' for Active; 'I' for Inactive)
REMARK    1  A    between atoms: S_1  and  C_2 
REMARK    2  A    between atoms: C_2  and  C_3 
REMARK    3  A    between atoms: C_3  and  C_4 
REMARK       I    between atoms: C_4  and  N_6 
ROOT
HETATM    1  C   UNK N   1      21.894  20.183   3.028  0.00  0.00     0.220 C 
HETATM    2  O   UNK N   1      21.689  21.118   2.262  0.00  0.00    -0.273 OA
HETATM    3  N   UNK N   1      23.172  19.832   3.362  0.00  0.00    -0.346 N 
HETATM    4  C   UNK N   1      24.287  20.597   2.785  0.00  0.00     0.131 A 
HETATM    5  C   UNK N   1      25.732  20.203   3.161  0.00  0.00     0.061 A 
HETATM    6  C   UNK N   1      25.821  19.056   4.095  0.00  0.00    -0.020 A 
HETATM    7  C   UNK N   1      24.743  18.384   4.599  0.00  0.00     0.035 A 
HETATM    8  C   UNK N   1      23.342  18.709   4.281  0.00  0.00     0.183 A 
HETATM    9  N   UNK N   1      25.127  17.383   5.426  0.00  0.00    -0.357 N 
HETATM   10  C   UNK N   1      26.930  18.448   4.631  0.00  0.00    -0.001 A 
HETATM   11  C   UNK N   1      26.471  17.436   5.435  0.00  0.00     0.043 A 
HETATM   12  C   UNK N   1      27.333  16.606   6.142  0.00  0.00     0.030 A 
HETATM   13  C   UNK N   1      28.290  18.703   4.478  0.00  0.00     0.014 A 
HETATM   14  C   UNK N   1      29.191  17.879   5.181  0.00  0.00     0.001 A 
HETATM   15  C   UNK N   1      28.715  16.835   6.009  0.00  0.00     0.002 A 
HETATM   16  H   UNK N   1      24.548  16.753   5.914  0.00  0.00     0.166 HD
ENDROOT
BRANCH   1  17
HETATM   17  C   UNK N   1      20.728  19.415   3.606  0.00  0.00     0.113 C 
BRANCH  17  18
HETATM   18  C   UNK N   1      19.649  19.043   2.610  0.00  0.00     0.080 C 
BRANCH  18  19
HETATM   19  S   UNK N   1      20.148  17.504   1.789  0.00  0.00    -0.182 SA
HETATM   20  H   UNK N   1      21.399  17.005   1.984  0.00  0.00     0.101 HD
ENDBRANCH  18  19
ENDBRANCH  17  18
ENDBRANCH   1  17
TORSDOF 3
ENDMDL
MODEL 3
REMARK VINA RESULT:      -5.8      2.476      4.143
REMARK  3 active torsions:
REMARK  status: ('A' for Active; 'I' for Inactive)
REMARK    1  A    between atoms: S_1  and  C_2 
REMARK    2  A    between atoms: C_2  and  C_3 
REMARK    3  A    between atoms: C_3  and  C_4 
REMARK       I    between atoms: C_4  and  N_6 
ROOT
HETATM    1  C   UNK N   1      35.472  16.173  10.502  0.00  0.00     0.220 C 
HETATM    2  O   UNK N   1      35.377  17.046  11.358  0.00  0.00    -0.273 OA
HETATM    3  N   UNK N   1      34.980  16.385   9.245  0.00  0.00    -0.346 N 
HETATM    4  C   UNK N   1      34.339  17.674   8.945  0.00  0.00     0.131 A 
HETATM    5  C   UNK N   1      33.782  17.915   7.525  0.00  0.00     0.061 A 
HETATM    6  C   UNK N   1      33.970  16.771   6.601  0.00  0.00    -0.020 A 
HETATM    7  C   UNK N   1      34.576  15.595   6.940  0.00  0.00     0.035 A 
HETATM    8  C   UNK N   1      35.128  15.302   8.275  0.00  0.00     0.183 A 
HETATM    9  N   UNK N   1      34.606  14.735   5.895  0.00  0.00    -0.357 N 
HETATM   10  C   UNK N   1      33.603  16.642   5.283  0.00  0.00    -0.001 A 
HETATM   11  C   UNK N   1      34.005  15.393   4.887  0.00  0.00     0.043 A 
HETATM   12  C   UNK N   1      33.790  14.923   3.596  0.00  0.00     0.030 A 
HETATM   13  C   UNK N   1      32.955  17.515   4.413  0.00  0.00     0.014 A 
HETATM   14  C   UNK N   1      32.722  17.069   3.097  0.00  0.00     0.001 A 
HETATM   15  C   UNK N   1      33.138  15.779   2.691  0.00  0.00     0.002 A 
HETATM   16  H   UNK N   1      34.984  13.827   5.877  0.00  0.00     0.166 HD
ENDROOT
BRANCH   1  17
HETATM   17  C   UNK N   1      36.136  14.858  10.838  0.00  0.00     0.113 C 
BRANCH  17  18
HETATM   18  C   UNK N   1      35.377  13.991  11.822  0.00  0.00     0.080 C 
BRANCH  18  19
HETATM   19  S   UNK N   1      36.158  14.174  13.449  0.00  0.00    -0.182 SA
HETATM   20  H   UNK N   1      37.431  13.738  13.646  0.00  0.00     0.101 HD
ENDBRANCH  18  19
ENDBRANCH  17  18
ENDBRANCH   1  17
TORSDOF 3
ENDMDL
MODEL 4
REMARK VINA RESULT:      -5.6      3.378      7.194
REMARK  3 active torsions:
REMARK  status: ('A' for Active; 'I' for Inactive)
REMARK    1  A    between atoms: S_1  and  C_2 
REMARK    2  A    between atoms: C_2  and  C_3 
REMARK    3  A    between atoms: C_3  and  C_4 
REMARK       I    between atoms: C_4  and  N_6 
ROOT
HETATM    1  C   UNK N   1      35.126  16.116  10.465  0.00  0.00     0.220 C 
HETATM    2  O   UNK N   1      35.663  17.216  10.520  0.00  0.00    -0.273 OA
HETATM    3  N   UNK N   1      35.312  15.206  11.468  0.00  0.00    -0.346 N 
HETATM    4  C   UNK N   1      36.165  15.577  12.607  0.00  0.00     0.131 A 
HETATM    5  C   UNK N   1      36.377  14.551  13.741  0.00  0.00     0.061 A 
HETATM    6  C   UNK N   1      35.665  13.267  13.535  0.00  0.00    -0.020 A 
HETATM    7  C   UNK N   1      34.884  12.983  12.451  0.00  0.00     0.035 A 
HETATM    8  C   UNK N   1      34.642  13.915  11.337  0.00  0.00     0.183 A 
HETATM    9  N   UNK N   1      34.362  11.736  12.532  0.00  0.00    -0.357 N 
HETATM   10  C   UNK N   1      35.631  12.148  14.332  0.00  0.00    -0.001 A 
HETATM   11  C   UNK N   1      34.830  11.238  13.692  0.00  0.00     0.043 A 
HETATM   12  C   UNK N   1      34.572   9.980  14.223  0.00  0.00     0.030 A 
HETATM   13  C   UNK N   1      36.234  11.863  15.554  0.00  0.00     0.014 A 
HETATM   14  C   UNK N   1      35.993  10.596  16.119  0.00  0.00     0.001 A 
HETATM   15  C   UNK N   1      35.166   9.658  15.457  0.00  0.00     0.002 A 
HETATM   16  H   UNK N   1      33.769  11.291  11.885  0.00  0.00     0.166 HD
ENDROOT
BRANCH   1  17
HETATM   17  C   UNK N   1      34.254  15.763   9.282  0.00  0.00     0.113 C 
BRANCH  17  18
HETATM   18  C   UNK N   1      34.428  16.654   8.069  0.00  0.00     0.080 C 
BRANCH  18  19
HETATM   19  S   UNK N   1      33.048  17.831   8.036  0.00  0.00    -0.182 SA
HETATM   20  H   UNK N   1      33.126  18.991   8.742  0.00  0.00     0.101 HD
ENDBRANCH  18  19
ENDBRANCH  17  18
ENDBRANCH   1  17
TORSDOF 3
ENDMDL
MODEL 5
REMARK VINA RESULT:      -5.6      5.720      7.608
REMARK  3 active torsions:
REMARK  status: ('A' for Active; 'I' for Inactive)
REMARK    1  A    between atoms: S_1  and  C_2 
REMARK    2  A    between atoms: C_2  and  C_3 
REMARK    3  A    between atoms: C_3  and  C_4 
REMARK       I    between atoms: C_4  and  N_6 
ROOT
HETATM    1  C   UNK N   1      31.902  15.264   7.500  0.00  0.00     0.220 C 
HETATM    2  O   UNK N   1      32.539  14.457   6.833  0.00  0.00    -0.273 OA
HETATM    3  N   UNK N   1      31.020  16.115   6.895  0.00  0.00    -0.346 N 
HETATM    4  C   UNK N   1      30.854  16.040   5.436  0.00  0.00     0.131 A 
HETATM    5  C   UNK N   1      29.858  17.000   4.751  0.00  0.00     0.061 A 
HETATM    6  C   UNK N   1      29.163  17.917   5.685  0.00  0.00    -0.020 A 
HETATM    7  C   UNK N   1      29.361  17.939   7.037  0.00  0.00     0.035 A 
HETATM    8  C   UNK N   1      30.295  17.051   7.752  0.00  0.00     0.183 A 
HETATM    9  N   UNK N   1      28.591  18.878   7.634  0.00  0.00    -0.357 N 
HETATM   10  C   UNK N   1      28.226  18.888   5.424  0.00  0.00    -0.001 A 
HETATM   11  C   UNK N   1      27.901  19.451   6.631  0.00  0.00     0.043 A 
HETATM   12  C   UNK N   1      26.971  20.479   6.739  0.00  0.00     0.030 A 
HETATM   13  C   UNK N   1      27.642  19.314   4.234  0.00  0.00     0.014 A 
HETATM   14  C   UNK N   1      26.695  20.354   4.309  0.00  0.00     0.001 A 
HETATM   15  C   UNK N   1      26.361  20.933   5.556  0.00  0.00     0.002 A 
HETATM   16  H   UNK N   1      28.545  19.095   8.593  0.00  0.00     0.166 HD
ENDROOT
BRANCH   1  17
HETATM   17  C   UNK N   1      32.092  15.319   8.998  0.00  0.00     0.113 C 
BRANCH  17  18
HETATM   18  C   UNK N   1      33.534  15.397   9.458  0.00  0.00     0.080 C 
BRANCH  18  19
HETATM   19  S   UNK N   1      34.193  17.014   8.966  0.00  0.00    -0.182 SA
HETATM   20  H   UNK N   1      35.469  17.357   9.293  0.00  0.00     0.101 HD
ENDBRANCH  18  19
ENDBRANCH  17  18
ENDBRANCH   1  17
TORSDOF 3
ENDMDL
MODEL 6
REMARK VINA RESULT:      -5.6     15.716     18.087
REMARK  3 active torsions:
REMARK  status: ('A' for Active; 'I' for Inactive)
REMARK    1  A    between atoms: S_1  and  C_2 
REMARK    2  A    between atoms: C_2  and  C_3 
REMARK    3  A    between atoms: C_3  and  C_4 
REMARK       I    between atoms: C_4  and  N_6 
ROOT
HETATM    1  C   UNK N   1      32.284  21.459  -3.173  0.00  0.00     0.220 C 
HETATM    2  O   UNK N   1      32.699  21.405  -2.021  0.00  0.00    -0.273 OA
HETATM    3  N   UNK N   1      31.126  22.128  -3.456  0.00  0.00    -0.346 N 
HETATM    4  C   UNK N   1      30.397  22.775  -2.355  0.00  0.00     0.131 A 
HETATM    5  C   UNK N   1      29.088  23.530  -2.673  0.00  0.00     0.061 A 
HETATM    6  C   UNK N   1      28.712  23.510  -4.107  0.00  0.00    -0.020 A 
HETATM    7  C   UNK N   1      29.435  22.888  -5.086  0.00  0.00     0.035 A 
HETATM    8  C   UNK N   1      30.689  22.152  -4.850  0.00  0.00     0.183 A 
HETATM    9  N   UNK N   1      28.852  23.036  -6.299  0.00  0.00    -0.357 N 
HETATM   10  C   UNK N   1      27.627  24.072  -4.735  0.00  0.00    -0.001 A 
HETATM   11  C   UNK N   1      27.744  23.764  -6.066  0.00  0.00     0.043 A 
HETATM   12  C   UNK N   1      26.807  24.180  -7.005  0.00  0.00     0.030 A 
HETATM   13  C   UNK N   1      26.560  24.821  -4.247  0.00  0.00     0.014 A 
HETATM   14  C   UNK N   1      25.592  25.257  -5.172  0.00  0.00     0.001 A 
HETATM   15  C   UNK N   1      25.716  24.938  -6.545  0.00  0.00     0.002 A 
HETATM   16  H   UNK N   1      29.168  22.686  -7.163  0.00  0.00     0.166 HD
ENDROOT
BRANCH   1  17
HETATM   17  C   UNK N   1      33.054  20.785  -4.284  0.00  0.00     0.113 C 
BRANCH  17  18
HETATM   18  C   UNK N   1      34.382  20.184  -3.869  0.00  0.00     0.080 C 
BRANCH  18  19
HETATM   19  S   UNK N   1      34.387  18.439  -4.366  0.00  0.00    -0.182 SA
HETATM   20  H   UNK N   1      34.014  18.090  -5.627  0.00  0.00     0.101 HD
ENDBRANCH  18  19
ENDBRANCH  17  18
ENDBRANCH   1  17
TORSDOF 3
ENDMDL
MODEL 7
REMARK VINA RESULT:      -5.6      5.952      8.034
REMARK  3 active torsions:
REMARK  status: ('A' for Active; 'I' for Inactive)
REMARK    1  A    between atoms: S_1  and  C_2 
REMARK    2  A    between atoms: C_2  and  C_3 
REMARK    3  A    between atoms: C_3  and  C_4 
REMARK       I    between atoms: C_4  and  N_6 
ROOT
HETATM    1  C   UNK N   1      31.788  15.534   8.169  0.00  0.00     0.220 C 
HETATM    2  O   UNK N   1      32.128  15.401   9.339  0.00  0.00    -0.273 OA
HETATM    3  N   UNK N   1      30.862  16.479   7.824  0.00  0.00    -0.346 N 
HETATM    4  C   UNK N   1      30.289  17.324   8.881  0.00  0.00     0.131 A 
HETATM    5  C   UNK N   1      29.243  18.392   8.494  0.00  0.00     0.061 A 
HETATM    6  C   UNK N   1      28.932  18.435   7.045  0.00  0.00    -0.020 A 
HETATM    7  C   UNK N   1      29.502  17.620   6.108  0.00  0.00     0.035 A 
HETATM    8  C   UNK N   1      30.503  16.583   6.411  0.00  0.00     0.183 A 
HETATM    9  N   UNK N   1      29.028  17.886   4.868  0.00  0.00    -0.357 N 
HETATM   10  C   UNK N   1      28.063  19.249   6.361  0.00  0.00    -0.001 A 
HETATM   11  C   UNK N   1      28.146  18.888   5.041  0.00  0.00     0.043 A 
HETATM   12  C   UNK N   1      27.392  19.513   4.055  0.00  0.00     0.030 A 
HETATM   13  C   UNK N   1      27.215  20.267   6.790  0.00  0.00     0.014 A 
HETATM   14  C   UNK N   1      26.436  20.921   5.815  0.00  0.00     0.001 A 
HETATM   15  C   UNK N   1      26.525  20.546   4.454  0.00  0.00     0.002 A 
HETATM   16  H   UNK N   1      29.274  17.443   4.024  0.00  0.00     0.166 HD
ENDROOT
BRANCH   1  17
HETATM   17  C   UNK N   1      32.394  14.651   7.103  0.00  0.00     0.113 C 
BRANCH  17  18
HETATM   18  C   UNK N   1      33.892  14.797   6.927  0.00  0.00     0.080 C 
BRANCH  18  19
HETATM   19  S   UNK N   1      34.190  15.717   5.392  0.00  0.00    -0.182 SA
HETATM   20  H   UNK N   1      34.154  17.077   5.397  0.00  0.00     0.101 HD
ENDBRANCH  18  19
ENDBRANCH  17  18
ENDBRANCH   1  17
TORSDOF 3
ENDMDL
MODEL 8
REMARK VINA RESULT:      -5.5     12.212     14.975
REMARK  3 active torsions:
REMARK  status: ('A' for Active; 'I' for Inactive)
REMARK    1  A    between atoms: S_1  and  C_2 
REMARK    2  A    between atoms: C_2  and  C_3 
REMARK    3  A    between atoms: C_3  and  C_4 
REMARK       I    between atoms: C_4  and  N_6 
ROOT
HETATM    1  C   UNK N   1      20.424  18.612   3.121  0.00  0.00     0.220 C 
HETATM    2  O   UNK N   1      19.725  19.363   2.449  0.00  0.00    -0.273 OA
HETATM    3  N   UNK N   1      21.736  18.915   3.352  0.00  0.00    -0.346 N 
HETATM    4  C   UNK N   1      22.286  20.153   2.779  0.00  0.00     0.131 A 
HETATM    5  C   UNK N   1      23.769  20.497   3.039  0.00  0.00     0.061 A 
HETATM    6  C   UNK N   1      24.485  19.497   3.867  0.00  0.00    -0.020 A 
HETATM    7  C   UNK N   1      23.916  18.362   4.371  0.00  0.00     0.035 A 
HETATM    8  C   UNK N   1      22.510  17.976   4.161  0.00  0.00     0.183 A 
HETATM    9  N   UNK N   1      24.808  17.639   5.088  0.00  0.00    -0.357 N 
HETATM   10  C   UNK N   1      25.793  19.484   4.286  0.00  0.00    -0.001 A 
HETATM   11  C   UNK N   1      25.955  18.341   5.026  0.00  0.00     0.043 A 
HETATM   12  C   UNK N   1      27.170  18.005   5.610  0.00  0.00     0.030 A 
HETATM   13  C   UNK N   1      26.841  20.377   4.078  0.00  0.00     0.014 A 
HETATM   14  C   UNK N   1      28.087  20.066   4.658  0.00  0.00     0.001 A 
HETATM   15  C   UNK N   1      28.250  18.886   5.420  0.00  0.00     0.002 A 
HETATM   16  H   UNK N   1      24.653  16.785   5.553  0.00  0.00     0.166 HD
ENDROOT
BRANCH   1  17
HETATM   17  C   UNK N   1      19.832  17.347   3.696  0.00  0.00     0.113 C 
BRANCH  17  18
HETATM   18  C   UNK N   1      19.931  16.129   2.801  0.00  0.00     0.080 C 
BRANCH  18  19
HETATM   19  S   UNK N   1      19.554  14.664   3.803  0.00  0.00    -0.182 SA
HETATM   20  H   UNK N   1      19.885  14.639   5.122  0.00  0.00     0.101 HD
ENDBRANCH  18  19
ENDBRANCH  17  18
ENDBRANCH   1  17
TORSDOF 3
ENDMDL
MODEL 9
REMARK VINA RESULT:      -5.5     13.206     14.965
REMARK  3 active torsions:
REMARK  status: ('A' for Active; 'I' for Inactive)
REMARK    1  A    between atoms: S_1  and  C_2 
REMARK    2  A    between atoms: C_2  and  C_3 
REMARK    3  A    between atoms: C_3  and  C_4 
REMARK       I    between atoms: C_4  and  N_6 
ROOT
HETATM    1  C   UNK N   1      21.880  17.912   5.201  0.00  0.00     0.220 C 
HETATM    2  O   UNK N   1      21.087  18.845   5.159  0.00  0.00    -0.273 OA
HETATM    3  N   UNK N   1      21.786  16.971   6.188  0.00  0.00    -0.346 N 
HETATM    4  C   UNK N   1      20.718  17.104   7.189  0.00  0.00     0.131 A 
HETATM    5  C   UNK N   1      20.609  16.042   8.305  0.00  0.00     0.061 A 
HETATM    6  C   UNK N   1      21.636  14.976   8.226  0.00  0.00    -0.020 A 
HETATM    7  C   UNK N   1      22.607  14.908   7.267  0.00  0.00     0.035 A 
HETATM    8  C   UNK N   1      22.765  15.886   6.177  0.00  0.00     0.183 A 
HETATM    9  N   UNK N   1      23.403  13.827   7.445  0.00  0.00    -0.357 N 
HETATM   10  C   UNK N   1      21.833  13.889   9.043  0.00  0.00    -0.001 A 
HETATM   11  C   UNK N   1      22.915  13.213   8.539  0.00  0.00     0.043 A 
HETATM   12  C   UNK N   1      23.397  12.050   9.127  0.00  0.00     0.030 A 
HETATM   13  C   UNK N   1      21.155  13.447  10.175  0.00  0.00     0.014 A 
HETATM   14  C   UNK N   1      21.619  12.270  10.795  0.00  0.00     0.001 A 
HETATM   15  C   UNK N   1      22.735  11.575  10.273  0.00  0.00     0.002 A 
HETATM   16  H   UNK N   1      24.171  13.551   6.895  0.00  0.00     0.166 HD
ENDROOT
BRANCH   1  17
HETATM   17  C   UNK N   1      22.968  17.801   4.158  0.00  0.00     0.113 C 
BRANCH  17  18
HETATM   18  C   UNK N   1      23.682  19.099   3.837  0.00  0.00     0.080 C 
BRANCH  18  19
HETATM   19  S   UNK N   1      25.225  19.141   4.790  0.00  0.00    -0.182 SA
HETATM   20  H   UNK N   1      25.821  20.333   5.067  0.00  0.00     0.101 HD
ENDBRANCH  18  19
ENDBRANCH  17  18
ENDBRANCH   1  17
TORSDOF 3
ENDMDL
