MODEL 1
REMARK VINA RESULT:      -4.5      0.000      0.000
REMARK  6 active torsions:
REMARK  status: ('A' for Active; 'I' for Inactive)
REMARK    1  A    between atoms: C_8  and  O_9 
REMARK    2  A    between atoms: O_9  and  C_11 
REMARK    3  A    between atoms: C_10  and  C_11 
REMARK    4  A    between atoms: C_10  and  C_12 
REMARK    5  A    between atoms: C_12  and  N_13 
REMARK    6  A    between atoms: N_13  and  C_15 
ROOT
HETATM    1  C   UNK N   1      26.751  26.556  -8.489  0.00  0.00     0.364 C 
HETATM    2  C   UNK N   1      27.907  26.623  -7.582  0.00  0.00    -0.087 C 
HETATM    3  C   UNK N   1      28.881  26.684  -6.873  0.00  0.00     0.013 C 
ENDROOT
BRANCH   1   4
HETATM    4  N   UNK N   1      26.851  25.414  -9.395  0.00  0.00     0.095 N 
HETATM    5  C   UNK N   1      25.589  25.286 -10.121  0.00  0.00     0.310 C 
BRANCH   4   6
HETATM    6  C   UNK N   1      27.021  24.235  -8.550  0.00  0.00     0.275 C 
BRANCH   6   7
HETATM    7  C   UNK N   1      25.715  23.837  -7.873  0.00  0.00     0.057 C 
BRANCH   7   8
HETATM    8  C   UNK N   1      26.010  23.400  -6.444  0.00  0.00     0.177 C 
BRANCH   8   9
HETATM    9  O   UNK N   1      25.236  24.055  -5.509  0.00  0.00    -0.349 OA
BRANCH   9  10
HETATM   10  C   UNK N   1      25.493  25.306  -5.053  0.00  0.00     0.090 A 
HETATM   11  C   UNK N   1      24.893  26.434  -5.639  0.00  0.00     0.040 A 
HETATM   12  C   UNK N   1      25.163  27.713  -5.154  0.00  0.00     0.026 A 
HETATM   13  C   UNK N   1      26.028  27.877  -4.072  0.00  0.00     0.035 A 
HETATM   14 Cl   UNK N   1      26.357  29.482  -3.460  0.00  0.00    -0.084 Cl
HETATM   15  C   UNK N   1      26.625  26.762  -3.476  0.00  0.00     0.050 A 
HETATM   16  C   UNK N   1      26.364  25.479  -3.965  0.00  0.00     0.069 A 
HETATM   17 Cl   UNK N   1      27.106  24.094  -3.182  0.00  0.00    -0.081 Cl
ENDBRANCH   9  10
ENDBRANCH   8   9
ENDBRANCH   7   8
ENDBRANCH   6   7
ENDBRANCH   4   6
ENDBRANCH   1   4
TORSDOF 6
ENDMDL
MODEL 2
REMARK VINA RESULT:      -4.3     19.166     20.912
REMARK  6 active torsions:
REMARK  status: ('A' for Active; 'I' for Inactive)
REMARK    1  A    between atoms: C_8  and  O_9 
REMARK    2  A    between atoms: O_9  and  C_11 
REMARK    3  A    between atoms: C_10  and  C_11 
REMARK    4  A    between atoms: C_10  and  C_12 
REMARK    5  A    between atoms: C_12  and  N_13 
REMARK    6  A    between atoms: N_13  and  C_15 
ROOT
HETATM    1  C   UNK N   1      33.778  17.299   5.965  0.00  0.00     0.364 C 
HETATM    2  C   UNK N   1      32.976  17.404   4.737  0.00  0.00    -0.087 C 
HETATM    3  C   UNK N   1      32.300  17.526   3.746  0.00  0.00     0.013 C 
ENDROOT
BRANCH   1   4
HETATM    4  N   UNK N   1      32.933  17.063   7.133  0.00  0.00     0.095 N 
HETATM    5  C   UNK N   1      33.323  18.001   8.184  0.00  0.00     0.310 C 
BRANCH   4   6
HETATM    6  C   UNK N   1      33.232  15.708   7.588  0.00  0.00     0.275 C 
BRANCH   6   7
HETATM    7  C   UNK N   1      34.679  15.325   7.298  0.00  0.00     0.057 C 
BRANCH   7   8
HETATM    8  C   UNK N   1      35.137  14.304   8.331  0.00  0.00     0.177 C 
BRANCH   8   9
HETATM    9  O   UNK N   1      34.440  14.389   9.519  0.00  0.00    -0.349 OA
BRANCH   9  10
HETATM   10  C   UNK N   1      34.973  14.104  10.732  0.00  0.00     0.090 A 
HETATM   11  C   UNK N   1      35.064  12.781  11.198  0.00  0.00     0.040 A 
HETATM   12  C   UNK N   1      35.620  12.505  12.446  0.00  0.00     0.026 A 
HETATM   13  C   UNK N   1      36.102  13.548  13.237  0.00  0.00     0.035 A 
HETATM   14 Cl   UNK N   1      36.810  13.197  14.798  0.00  0.00    -0.084 Cl
HETATM   15  C   UNK N   1      36.026  14.867  12.782  0.00  0.00     0.050 A 
HETATM   16  C   UNK N   1      35.459  15.149  11.535  0.00  0.00     0.069 A 
HETATM   17 Cl   UNK N   1      35.399  16.812  10.976  0.00  0.00    -0.081 Cl
ENDBRANCH   9  10
ENDBRANCH   8   9
ENDBRANCH   7   8
ENDBRANCH   6   7
ENDBRANCH   4   6
ENDBRANCH   1   4
TORSDOF 6
ENDMDL
MODEL 3
REMARK VINA RESULT:      -4.3      2.511      3.656
REMARK  6 active torsions:
REMARK  status: ('A' for Active; 'I' for Inactive)
REMARK    1  A    between atoms: C_8  and  O_9 
REMARK    2  A    between atoms: O_9  and  C_11 
REMARK    3  A    between atoms: C_10  and  C_11 
REMARK    4  A    between atoms: C_10  and  C_12 
REMARK    5  A    between atoms: C_12  and  N_13 
REMARK    6  A    between atoms: N_13  and  C_15 
ROOT
HETATM    1  C   UNK N   1      25.650  21.585  -8.944  0.00  0.00     0.364 C 
HETATM    2  C   UNK N   1      27.000  21.336  -9.473  0.00  0.00    -0.087 C 
HETATM    3  C   UNK N   1      28.109  21.095  -9.882  0.00  0.00     0.013 C 
ENDROOT
BRANCH   1   4
HETATM    4  N   UNK N   1      25.679  21.814  -7.501  0.00  0.00     0.095 N 
HETATM    5  C   UNK N   1      24.427  21.322  -6.929  0.00  0.00     0.310 C 
BRANCH   4   6
HETATM    6  C   UNK N   1      25.734  23.262  -7.318  0.00  0.00     0.275 C 
BRANCH   6   7
HETATM    7  C   UNK N   1      26.443  23.638  -6.023  0.00  0.00     0.057 C 
BRANCH   7   8
HETATM    8  C   UNK N   1      25.520  24.515  -5.188  0.00  0.00     0.177 C 
BRANCH   8   9
HETATM    9  O   UNK N   1      25.196  25.702  -5.812  0.00  0.00    -0.349 OA
BRANCH   9  10
HETATM   10  C   UNK N   1      25.765  26.896  -5.512  0.00  0.00     0.090 A 
HETATM   11  C   UNK N   1      25.483  27.556  -4.303  0.00  0.00     0.040 A 
HETATM   12  C   UNK N   1      26.082  28.780  -4.008  0.00  0.00     0.026 A 
HETATM   13  C   UNK N   1      26.976  29.352  -4.913  0.00  0.00     0.035 A 
HETATM   14 Cl   UNK N   1      27.733  30.882  -4.534  0.00  0.00    -0.084 Cl
HETATM   15  C   UNK N   1      27.270  28.702  -6.115  0.00  0.00     0.050 A 
HETATM   16  C   UNK N   1      26.665  27.479  -6.419  0.00  0.00     0.069 A 
HETATM   17 Cl   UNK N   1      27.072  26.670  -7.924  0.00  0.00    -0.081 Cl
ENDBRANCH   9  10
ENDBRANCH   8   9
ENDBRANCH   7   8
ENDBRANCH   6   7
ENDBRANCH   4   6
ENDBRANCH   1   4
TORSDOF 6
ENDMDL
MODEL 4
REMARK VINA RESULT:      -4.3     16.833     18.776
REMARK  6 active torsions:
REMARK  status: ('A' for Active; 'I' for Inactive)
REMARK    1  A    between atoms: C_8  and  O_9 
REMARK    2  A    between atoms: O_9  and  C_11 
REMARK    3  A    between atoms: C_10  and  C_11 
REMARK    4  A    between atoms: C_10  and  C_12 
REMARK    5  A    between atoms: C_12  and  N_13 
REMARK    6  A    between atoms: N_13  and  C_15 
ROOT
HETATM    1  C   UNK N   1      21.657  12.652  10.674  0.00  0.00     0.364 C 
HETATM    2  C   UNK N   1      22.477  12.191  11.805  0.00  0.00    -0.087 C 
HETATM    3  C   UNK N   1      23.175  11.846  12.725  0.00  0.00     0.013 C 
ENDROOT
BRANCH   1   4
HETATM    4  N   UNK N   1      22.396  12.577   9.416  0.00  0.00     0.095 N 
HETATM    5  C   UNK N   1      23.715  13.174   9.617  0.00  0.00     0.310 C 
BRANCH   4   6
HETATM    6  C   UNK N   1      21.658  13.397   8.459  0.00  0.00     0.275 C 
BRANCH   6   7
HETATM    7  C   UNK N   1      20.666  14.319   9.157  0.00  0.00     0.057 C 
BRANCH   7   8
HETATM    8  C   UNK N   1      20.778  15.714   8.555  0.00  0.00     0.177 C 
BRANCH   8   9
HETATM    9  O   UNK N   1      21.545  15.745   7.408  0.00  0.00    -0.349 OA
BRANCH   9  10
HETATM   10  C   UNK N   1      21.229  16.467   6.304  0.00  0.00     0.090 A 
HETATM   11  C   UNK N   1      21.732  17.765   6.112  0.00  0.00     0.040 A 
HETATM   12  C   UNK N   1      21.403  18.491   4.969  0.00  0.00     0.026 A 
HETATM   13  C   UNK N   1      20.576  17.923   4.000  0.00  0.00     0.035 A 
HETATM   14 Cl   UNK N   1      20.173  18.833   2.561  0.00  0.00    -0.084 Cl
HETATM   15  C   UNK N   1      20.075  16.630   4.175  0.00  0.00     0.050 A 
HETATM   16  C   UNK N   1      20.395  15.902   5.325  0.00  0.00     0.069 A 
HETATM   17 Cl   UNK N   1      19.775  14.270   5.508  0.00  0.00    -0.081 Cl
ENDBRANCH   9  10
ENDBRANCH   8   9
ENDBRANCH   7   8
ENDBRANCH   6   7
ENDBRANCH   4   6
ENDBRANCH   1   4
TORSDOF 6
ENDMDL
MODEL 5
REMARK VINA RESULT:      -4.3      3.077      3.965
REMARK  6 active torsions:
REMARK  status: ('A' for Active; 'I' for Inactive)
REMARK    1  A    between atoms: C_8  and  O_9 
REMARK    2  A    between atoms: O_9  and  C_11 
REMARK    3  A    between atoms: C_10  and  C_11 
REMARK    4  A    between atoms: C_10  and  C_12 
REMARK    5  A    between atoms: C_12  and  N_13 
REMARK    6  A    between atoms: N_13  and  C_15 
ROOT
HETATM    1  C   UNK N   1      28.280  21.290  -8.991  0.00  0.00     0.364 C 
HETATM    2  C   UNK N   1      28.787  20.112  -8.269  0.00  0.00    -0.087 C 
HETATM    3  C   UNK N   1      29.211  19.128  -7.715  0.00  0.00     0.013 C 
ENDROOT
BRANCH   1   4
HETATM    4  N   UNK N   1      27.107  20.956  -9.794  0.00  0.00     0.095 N 
HETATM    5  C   UNK N   1      27.338  21.412 -11.164  0.00  0.00     0.310 C 
BRANCH   4   6
HETATM    6  C   UNK N   1      25.997  21.721  -9.233  0.00  0.00     0.275 C 
BRANCH   6   7
HETATM    7  C   UNK N   1      25.370  21.009  -8.040  0.00  0.00     0.057 C 
BRANCH   7   8
HETATM    8  C   UNK N   1      25.113  22.025  -6.935  0.00  0.00     0.177 C 
BRANCH   8   9
HETATM    9  O   UNK N   1      26.143  22.931  -6.787  0.00  0.00    -0.349 OA
BRANCH   9  10
HETATM   10  C   UNK N   1      26.014  24.130  -6.167  0.00  0.00     0.090 A 
HETATM   11  C   UNK N   1      26.145  24.248  -4.772  0.00  0.00     0.040 A 
HETATM   12  C   UNK N   1      26.016  25.490  -4.151  0.00  0.00     0.026 A 
HETATM   13  C   UNK N   1      25.765  26.627  -4.918  0.00  0.00     0.035 A 
HETATM   14 Cl   UNK N   1      25.614  28.185  -4.136  0.00  0.00    -0.084 Cl
HETATM   15  C   UNK N   1      25.640  26.524  -6.306  0.00  0.00     0.050 A 
HETATM   16  C   UNK N   1      25.759  25.280  -6.932  0.00  0.00     0.069 A 
HETATM   17 Cl   UNK N   1      25.624  25.182  -8.680  0.00  0.00    -0.081 Cl
ENDBRANCH   9  10
ENDBRANCH   8   9
ENDBRANCH   7   8
ENDBRANCH   6   7
ENDBRANCH   4   6
ENDBRANCH   1   4
TORSDOF 6
ENDMDL
MODEL 6
REMARK VINA RESULT:      -4.2      2.993      5.160
REMARK  6 active torsions:
REMARK  status: ('A' for Active; 'I' for Inactive)
REMARK    1  A    between atoms: C_8  and  O_9 
REMARK    2  A    between atoms: O_9  and  C_11 
REMARK    3  A    between atoms: C_10  and  C_11 
REMARK    4  A    between atoms: C_10  and  C_12 
REMARK    5  A    between atoms: C_12  and  N_13 
REMARK    6  A    between atoms: N_13  and  C_15 
ROOT
HETATM    1  C   UNK N   1      26.240  27.021  -3.431  0.00  0.00     0.364 C 
HETATM    2  C   UNK N   1      25.402  27.165  -4.632  0.00  0.00    -0.087 C 
HETATM    3  C   UNK N   1      24.752  27.279  -5.641  0.00  0.00     0.013 C 
ENDROOT
BRANCH   1   4
HETATM    4  N   UNK N   1      27.196  28.119  -3.315  0.00  0.00     0.095 N 
HETATM    5  C   UNK N   1      26.485  29.378  -3.535  0.00  0.00     0.310 C 
BRANCH   4   6
HETATM    6  C   UNK N   1      28.161  27.938  -4.395  0.00  0.00     0.275 C 
BRANCH   6   7
HETATM    7  C   UNK N   1      28.984  26.669  -4.205  0.00  0.00     0.057 C 
BRANCH   7   8
HETATM    8  C   UNK N   1      29.230  26.030  -5.565  0.00  0.00     0.177 C 
BRANCH   8   9
HETATM    9  O   UNK N   1      28.241  25.139  -5.929  0.00  0.00    -0.349 OA
BRANCH   9  10
HETATM   10  C   UNK N   1      27.451  25.288  -7.020  0.00  0.00     0.090 A 
HETATM   11  C   UNK N   1      27.729  26.262  -7.996  0.00  0.00     0.040 A 
HETATM   12  C   UNK N   1      26.910  26.398  -9.115  0.00  0.00     0.026 A 
HETATM   13  C   UNK N   1      25.810  25.556  -9.277  0.00  0.00     0.035 A 
HETATM   14 Cl   UNK N   1      24.790  25.723 -10.688  0.00  0.00    -0.084 Cl
HETATM   15  C   UNK N   1      25.527  24.579  -8.318  0.00  0.00     0.050 A 
HETATM   16  C   UNK N   1      26.340  24.445  -7.189  0.00  0.00     0.069 A 
HETATM   17 Cl   UNK N   1      25.978  23.193  -6.013  0.00  0.00    -0.081 Cl
ENDBRANCH   9  10
ENDBRANCH   8   9
ENDBRANCH   7   8
ENDBRANCH   6   7
ENDBRANCH   4   6
ENDBRANCH   1   4
TORSDOF 6
ENDMDL
MODEL 7
REMARK VINA RESULT:      -4.2     25.342     27.148
REMARK  6 active torsions:
REMARK  status: ('A' for Active; 'I' for Inactive)
REMARK    1  A    between atoms: C_8  and  O_9 
REMARK    2  A    between atoms: O_9  and  C_11 
REMARK    3  A    between atoms: C_10  and  C_11 
REMARK    4  A    between atoms: C_10  and  C_12 
REMARK    5  A    between atoms: C_12  and  N_13 
REMARK    6  A    between atoms: N_13  and  C_15 
ROOT
HETATM    1  C   UNK N   1      34.913  11.893  10.658  0.00  0.00     0.364 C 
HETATM    2  C   UNK N   1      34.309  10.811  11.450  0.00  0.00    -0.087 C 
HETATM    3  C   UNK N   1      33.807   9.952  12.132  0.00  0.00     0.013 C 
ENDROOT
BRANCH   1   4
HETATM    4  N   UNK N   1      36.116  12.415  11.300  0.00  0.00     0.095 N 
HETATM    5  C   UNK N   1      36.961  11.286  11.689  0.00  0.00     0.310 C 
BRANCH   4   6
HETATM    6  C   UNK N   1      35.670  13.098  12.511  0.00  0.00     0.275 C 
BRANCH   6   7
HETATM    7  C   UNK N   1      36.815  13.297  13.497  0.00  0.00     0.057 C 
BRANCH   7   8
HETATM    8  C   UNK N   1      36.276  13.971  14.752  0.00  0.00     0.177 C 
BRANCH   8   9
HETATM    9  O   UNK N   1      35.223  13.285  15.322  0.00  0.00    -0.349 OA
BRANCH   9  10
HETATM   10  C   UNK N   1      35.274  12.693  16.540  0.00  0.00     0.090 A 
HETATM   11  C   UNK N   1      35.137  13.441  17.722  0.00  0.00     0.040 A 
HETATM   12  C   UNK N   1      35.186  12.815  18.967  0.00  0.00     0.026 A 
HETATM   13  C   UNK N   1      35.361  11.433  19.043  0.00  0.00     0.035 A 
HETATM   14 Cl   UNK N   1      35.411  10.650  20.606  0.00  0.00    -0.084 Cl
HETATM   15  C   UNK N   1      35.491  10.677  17.875  0.00  0.00     0.050 A 
HETATM   16  C   UNK N   1      35.452  11.302  16.625  0.00  0.00     0.069 A 
HETATM   17 Cl   UNK N   1      35.591  10.326  15.172  0.00  0.00    -0.081 Cl
ENDBRANCH   9  10
ENDBRANCH   8   9
ENDBRANCH   7   8
ENDBRANCH   6   7
ENDBRANCH   4   6
ENDBRANCH   1   4
TORSDOF 6
ENDMDL
MODEL 8
REMARK VINA RESULT:      -4.1     18.125     19.967
REMARK  6 active torsions:
REMARK  status: ('A' for Active; 'I' for Inactive)
REMARK    1  A    between atoms: C_8  and  O_9 
REMARK    2  A    between atoms: O_9  and  C_11 
REMARK    3  A    between atoms: C_10  and  C_11 
REMARK    4  A    between atoms: C_10  and  C_12 
REMARK    5  A    between atoms: C_12  and  N_13 
REMARK    6  A    between atoms: N_13  and  C_15 
ROOT
HETATM    1  C   UNK N   1      19.892  16.494   8.083  0.00  0.00     0.364 C 
HETATM    2  C   UNK N   1      19.688  17.708   8.889  0.00  0.00    -0.087 C 
HETATM    3  C   UNK N   1      19.508  18.723   9.514  0.00  0.00     0.013 C 
ENDROOT
BRANCH   1   4
HETATM    4  N   UNK N   1      20.928  16.695   7.072  0.00  0.00     0.095 N 
HETATM    5  C   UNK N   1      20.298  16.679   5.753  0.00  0.00     0.310 C 
BRANCH   4   6
HETATM    6  C   UNK N   1      21.824  15.546   7.172  0.00  0.00     0.275 C 
BRANCH   6   7
HETATM    7  C   UNK N   1      21.568  14.536   6.059  0.00  0.00     0.057 C 
BRANCH   7   8
HETATM    8  C   UNK N   1      21.987  13.153   6.539  0.00  0.00     0.177 C 
BRANCH   8   9
HETATM    9  O   UNK N   1      21.196  12.676   7.564  0.00  0.00    -0.349 OA
BRANCH   9  10
HETATM   10  C   UNK N   1      21.637  12.472   8.830  0.00  0.00     0.090 A 
HETATM   11  C   UNK N   1      20.923  12.958   9.939  0.00  0.00     0.040 A 
HETATM   12  C   UNK N   1      21.387  12.734  11.234  0.00  0.00     0.026 A 
HETATM   13  C   UNK N   1      22.563  12.011  11.436  0.00  0.00     0.035 A 
HETATM   14 Cl   UNK N   1      23.136  11.723  13.063  0.00  0.00    -0.084 Cl
HETATM   15  C   UNK N   1      23.277  11.516  10.342  0.00  0.00     0.050 A 
HETATM   16  C   UNK N   1      22.821  11.747   9.040  0.00  0.00     0.069 A 
HETATM   17 Cl   UNK N   1      23.723  11.090   7.685  0.00  0.00    -0.081 Cl
ENDBRANCH   9  10
ENDBRANCH   8   9
ENDBRANCH   7   8
ENDBRANCH   6   7
ENDBRANCH   4   6
ENDBRANCH   1   4
TORSDOF 6
ENDMDL
MODEL 9
REMARK VINA RESULT:      -4.1     15.401     17.105
REMARK  6 active torsions:
REMARK  status: ('A' for Active; 'I' for Inactive)
REMARK    1  A    between atoms: C_8  and  O_9 
REMARK    2  A    between atoms: O_9  and  C_11 
REMARK    3  A    between atoms: C_10  and  C_11 
REMARK    4  A    between atoms: C_10  and  C_12 
REMARK    5  A    between atoms: C_12  and  N_13 
REMARK    6  A    between atoms: N_13  and  C_15 
ROOT
HETATM    1  C   UNK N   1      20.536  17.524   1.707  0.00  0.00     0.364 C 
HETATM    2  C   UNK N   1      19.783  16.766   0.695  0.00  0.00    -0.087 C 
HETATM    3  C   UNK N   1      19.142  16.181  -0.142  0.00  0.00     0.013 C 
ENDROOT
BRANCH   1   4
HETATM    4  N   UNK N   1      19.674  17.937   2.812  0.00  0.00     0.095 N 
HETATM    5  C   UNK N   1      19.679  19.397   2.883  0.00  0.00     0.310 C 
BRANCH   4   6
HETATM    6  C   UNK N   1      20.289  17.412   4.028  0.00  0.00     0.275 C 
BRANCH   6   7
HETATM    7  C   UNK N   1      19.684  16.072   4.429  0.00  0.00     0.057 C 
BRANCH   7   8
HETATM    8  C   UNK N   1      19.473  16.056   5.938  0.00  0.00     0.177 C 
BRANCH   8   9
HETATM    9  O   UNK N   1      20.653  16.130   6.648  0.00  0.00    -0.349 OA
BRANCH   9  10
HETATM   10  C   UNK N   1      20.995  15.275   7.643  0.00  0.00     0.090 A 
HETATM   11  C   UNK N   1      20.162  15.085   8.760  0.00  0.00     0.040 A 
HETATM   12  C   UNK N   1      20.526  14.197   9.771  0.00  0.00     0.026 A 
HETATM   13  C   UNK N   1      21.719  13.481   9.671  0.00  0.00     0.035 A 
HETATM   14 Cl   UNK N   1      22.165  12.359  10.937  0.00  0.00    -0.084 Cl
HETATM   15  C   UNK N   1      22.551  13.655   8.562  0.00  0.00     0.050 A 
HETATM   16  C   UNK N   1      22.195  14.552   7.550  0.00  0.00     0.069 A 
HETATM   17 Cl   UNK N   1      23.246  14.732   6.155  0.00  0.00    -0.081 Cl
ENDBRANCH   9  10
ENDBRANCH   8   9
ENDBRANCH   7   8
ENDBRANCH   6   7
ENDBRANCH   4   6
ENDBRANCH   1   4
TORSDOF 6
ENDMDL
