REMARK  6 active torsions:
REMARK  status: ('A' for Active; 'I' for Inactive)
REMARK    1  A    between atoms: C_8  and  O_9 
REMARK    2  A    between atoms: O_9  and  C_11 
REMARK    3  A    between atoms: C_10  and  C_11 
REMARK    4  A    between atoms: C_10  and  C_12 
REMARK    5  A    between atoms: C_12  and  N_13 
REMARK    6  A    between atoms: N_13  and  C_15 
ROOT
HETATM    1  C   UNK N   1       4.033  -0.495   0.213  0.00  0.00     0.364 C 
HETATM    2  C   UNK N   1       5.196   0.368  -0.046  0.00  0.00    -0.087 C 
HETATM    3  C   UNK N   1       6.132   1.105  -0.232  0.00  0.00     0.013 C 
ENDROOT
BRANCH   1   4
HETATM    4  N   UNK N   1       2.799   0.115  -0.276  0.00  0.00     0.095 N 
HETATM    5  C   UNK N   1       2.592   1.376   0.434  0.00  0.00     0.310 C 
BRANCH   4   6
HETATM    6  C   UNK N   1       1.720  -0.801   0.083  0.00  0.00     0.275 C 
BRANCH   6   7
HETATM    7  C   UNK N   1       0.392  -0.372  -0.530  0.00  0.00     0.057 C 
BRANCH   7   8
HETATM    8  C   UNK N   1      -0.277   0.637   0.394  0.00  0.00     0.177 C 
BRANCH   8   9
HETATM    9  O   UNK N   1      -1.561   0.957   0.003  0.00  0.00    -0.349 OA
BRANCH   9  10
HETATM   10  C   UNK N   1      -2.594   0.079   0.001  0.00  0.00     0.090 A 
HETATM   11  C   UNK N   1      -2.374  -1.307   0.084  0.00  0.00     0.040 A 
HETATM   12  C   UNK N   1      -3.448  -2.196   0.087  0.00  0.00     0.026 A 
HETATM   13  C   UNK N   1      -4.753  -1.709   0.018  0.00  0.00     0.035 A 
HETATM   14 Cl   UNK N   1      -6.098  -2.827   0.033  0.00  0.00    -0.084 Cl
HETATM   15  C   UNK N   1      -4.985  -0.333  -0.057  0.00  0.00     0.050 A 
HETATM   16  C   UNK N   1      -3.911   0.562  -0.070  0.00  0.00     0.069 A 
HETATM   17 Cl   UNK N   1      -4.231   2.287  -0.138  0.00  0.00    -0.081 Cl
ENDBRANCH   9  10
ENDBRANCH   8   9
ENDBRANCH   7   8
ENDBRANCH   6   7
ENDBRANCH   4   6
ENDBRANCH   1   4
TORSDOF 6
