MODEL 1
REMARK VINA RESULT:      -6.5      0.000      0.000
REMARK  4 active torsions:
REMARK  status: ('A' for Active; 'I' for Inactive)
REMARK    1  A    between atoms: C_1  and  O_17 
REMARK    2  A    between atoms: C_4  and  O_20 
REMARK    3  A    between atoms: C_11  and  N_18 
REMARK    4  A    between atoms: C_14  and  N_19 
ROOT
HETATM    1  C   UNK N   1      23.804  12.418  11.087  0.00  0.00     0.081 A 
HETATM    2  C   UNK N   1      23.301  13.044   9.921  0.00  0.00     0.065 A 
HETATM    3  C   UNK N   1      21.902  13.168   9.750  0.00  0.00     0.065 A 
HETATM    4  C   UNK N   1      21.034  12.663  10.749  0.00  0.00     0.081 A 
HETATM    5  C   UNK N   1      21.555  12.051  11.886  0.00  0.00     0.040 A 
HETATM    6  C   UNK N   1      22.929  11.930  12.054  0.00  0.00     0.040 A 
HETATM    7  C   UNK N   1      21.362  13.825   8.528  0.00  0.00     0.199 A 
HETATM    8  C   UNK N   1      22.284  14.355   7.480  0.00  0.00     0.058 A 
HETATM    9  C   UNK N   1      23.686  14.231   7.651  0.00  0.00     0.058 A 
HETATM   10  C   UNK N   1      24.223  13.572   8.877  0.00  0.00     0.199 A 
HETATM   11  C   UNK N   1      24.553  14.738   6.649  0.00  0.00     0.041 A 
HETATM   12  C   UNK N   1      24.031  15.349   5.514  0.00  0.00     0.032 A 
HETATM   13  C   UNK N   1      22.658  15.470   5.346  0.00  0.00     0.032 A 
HETATM   14  C   UNK N   1      21.781  14.983   6.310  0.00  0.00     0.041 A 
HETATM   15  O   UNK N   1      25.432  13.463   9.029  0.00  0.00    -0.286 OA
HETATM   16  O   UNK N   1      20.153  13.930   8.384  0.00  0.00    -0.286 OA
ENDROOT
BRANCH  11  17
HETATM   17  N   UNK N   1      25.956  14.640   6.770  0.00  0.00    -0.398 N 
HETATM   18  H   UNK N   1      26.369  14.557   7.661  0.00  0.00     0.156 HD
HETATM   19  H   UNK N   1      26.523  14.654   5.965  0.00  0.00     0.156 HD
ENDBRANCH  11  17
BRANCH  14  20
HETATM   20  N   UNK N   1      20.394  15.133   6.091  0.00  0.00    -0.398 N 
HETATM   21  H   UNK N   1      19.805  15.405   6.831  0.00  0.00     0.156 HD
HETATM   22  H   UNK N   1      20.018  14.963   5.197  0.00  0.00     0.156 HD
ENDBRANCH  14  20
BRANCH   1  23
HETATM   23  O   UNK N   1      25.126  12.279  11.289  0.00  0.00    -0.360 OA
HETATM   24  H   UNK N   1      25.618  11.667  10.776  0.00  0.00     0.217 HD
ENDBRANCH   1  23
BRANCH   4  25
HETATM   25  O   UNK N   1      19.699  12.760  10.626  0.00  0.00    -0.360 OA
HETATM   26  H   UNK N   1      19.168  11.990  10.663  0.00  0.00     0.217 HD
ENDBRANCH   4  25
TORSDOF 4
ENDMDL
MODEL 2
REMARK VINA RESULT:      -6.5      0.093      3.496
REMARK  4 active torsions:
REMARK  status: ('A' for Active; 'I' for Inactive)
REMARK    1  A    between atoms: C_1  and  O_17 
REMARK    2  A    between atoms: C_4  and  O_20 
REMARK    3  A    between atoms: C_11  and  N_18 
REMARK    4  A    between atoms: C_14  and  N_19 
ROOT
HETATM    1  C   UNK N   1      21.098  12.600  10.798  0.00  0.00     0.081 A 
HETATM    2  C   UNK N   1      21.933  13.118   9.778  0.00  0.00     0.065 A 
HETATM    3  C   UNK N   1      23.338  13.018   9.916  0.00  0.00     0.065 A 
HETATM    4  C   UNK N   1      23.878  12.401  11.070  0.00  0.00     0.081 A 
HETATM    5  C   UNK N   1      23.034  11.900  12.058  0.00  0.00     0.040 A 
HETATM    6  C   UNK N   1      21.655  11.999  11.923  0.00  0.00     0.040 A 
HETATM    7  C   UNK N   1      24.226  13.559   8.850  0.00  0.00     0.199 A 
HETATM    8  C   UNK N   1      23.648  14.207   7.636  0.00  0.00     0.058 A 
HETATM    9  C   UNK N   1      22.240  14.308   7.498  0.00  0.00     0.058 A 
HETATM   10  C   UNK N   1      21.354  13.765   8.568  0.00  0.00     0.199 A 
HETATM   11  C   UNK N   1      21.701  14.927   6.340  0.00  0.00     0.041 A 
HETATM   12  C   UNK N   1      22.546  15.427   5.355  0.00  0.00     0.032 A 
HETATM   13  C   UNK N   1      23.923  15.328   5.490  0.00  0.00     0.032 A 
HETATM   14  C   UNK N   1      24.483  14.727   6.613  0.00  0.00     0.041 A 
HETATM   15  O   UNK N   1      20.139  13.850   8.453  0.00  0.00    -0.286 OA
HETATM   16  O   UNK N   1      25.438  13.470   8.973  0.00  0.00    -0.286 OA
ENDROOT
BRANCH  11  17
HETATM   17  N   UNK N   1      20.307  15.053   6.154  0.00  0.00    -0.398 N 
HETATM   18  H   UNK N   1      19.924  14.995   5.248  0.00  0.00     0.156 HD
HETATM   19  H   UNK N   1      19.717  15.198   6.928  0.00  0.00     0.156 HD
ENDBRANCH  11  17
BRANCH  14  20
HETATM   20  N   UNK N   1      25.891  14.652   6.701  0.00  0.00    -0.398 N 
HETATM   21  H   UNK N   1      26.318  14.390   7.548  0.00  0.00     0.156 HD
HETATM   22  H   UNK N   1      26.444  14.863   5.915  0.00  0.00     0.156 HD
ENDBRANCH  14  20
BRANCH   1  23
HETATM   23  O   UNK N   1      19.758  12.675  10.706  0.00  0.00    -0.360 OA
HETATM   24  H   UNK N   1      19.259  11.909  10.497  0.00  0.00     0.217 HD
ENDBRANCH   1  23
BRANCH   4  25
HETATM   25  O   UNK N   1      25.207  12.285  11.241  0.00  0.00    -0.360 OA
HETATM   26  H   UNK N   1      25.778  12.300  10.499  0.00  0.00     0.217 HD
ENDBRANCH   4  25
TORSDOF 4
ENDMDL
MODEL 3
REMARK VINA RESULT:      -6.2      5.949      8.383
REMARK  4 active torsions:
REMARK  status: ('A' for Active; 'I' for Inactive)
REMARK    1  A    between atoms: C_1  and  O_17 
REMARK    2  A    between atoms: C_4  and  O_20 
REMARK    3  A    between atoms: C_11  and  N_18 
REMARK    4  A    between atoms: C_14  and  N_19 
ROOT
HETATM    1  C   UNK N   1      25.459  20.396   3.160  0.00  0.00     0.081 A 
HETATM    2  C   UNK N   1      24.358  19.568   3.489  0.00  0.00     0.065 A 
HETATM    3  C   UNK N   1      24.537  18.514   4.416  0.00  0.00     0.065 A 
HETATM    4  C   UNK N   1      25.813  18.309   4.995  0.00  0.00     0.081 A 
HETATM    5  C   UNK N   1      26.878  19.138   4.655  0.00  0.00     0.040 A 
HETATM    6  C   UNK N   1      26.703  20.173   3.745  0.00  0.00     0.040 A 
HETATM    7  C   UNK N   1      23.386  17.637   4.768  0.00  0.00     0.199 A 
HETATM    8  C   UNK N   1      22.045  17.859   4.153  0.00  0.00     0.058 A 
HETATM    9  C   UNK N   1      21.866  18.915   3.224  0.00  0.00     0.058 A 
HETATM   10  C   UNK N   1      23.021  19.792   2.873  0.00  0.00     0.199 A 
HETATM   11  C   UNK N   1      20.587  19.118   2.644  0.00  0.00     0.041 A 
HETATM   12  C   UNK N   1      19.523  18.289   2.985  0.00  0.00     0.032 A 
HETATM   13  C   UNK N   1      19.698  17.255   3.895  0.00  0.00     0.032 A 
HETATM   14  C   UNK N   1      20.940  17.030   4.480  0.00  0.00     0.041 A 
HETATM   15  O   UNK N   1      22.871  20.704   2.072  0.00  0.00    -0.286 OA
HETATM   16  O   UNK N   1      23.545  16.728   5.569  0.00  0.00    -0.286 OA
ENDROOT
BRANCH  11  17
HETATM   17  N   UNK N   1      20.355  20.155   1.714  0.00  0.00    -0.398 N 
HETATM   18  H   UNK N   1      20.091  21.050   2.030  0.00  0.00     0.156 HD
HETATM   19  H   UNK N   1      20.456  19.984   0.750  0.00  0.00     0.156 HD
ENDBRANCH  11  17
BRANCH  14  20
HETATM   20  N   UNK N   1      21.065  15.965   5.399  0.00  0.00    -0.398 N 
HETATM   21  H   UNK N   1      21.954  15.606   5.620  0.00  0.00     0.156 HD
HETATM   22  H   UNK N   1      20.260  15.581   5.819  0.00  0.00     0.156 HD
ENDBRANCH  14  20
BRANCH   1  23
HETATM   23  O   UNK N   1      25.333  21.409   2.285  0.00  0.00    -0.360 OA
HETATM   24  H   UNK N   1      26.092  21.757   1.857  0.00  0.00     0.217 HD
ENDBRANCH   1  23
BRANCH   4  25
HETATM   25  O   UNK N   1      26.026  17.320   5.880  0.00  0.00    -0.360 OA
HETATM   26  H   UNK N   1      25.521  17.279   6.668  0.00  0.00     0.217 HD
ENDBRANCH   4  25
TORSDOF 4
ENDMDL
MODEL 4
REMARK VINA RESULT:      -6.2     10.239     11.954
REMARK  4 active torsions:
REMARK  status: ('A' for Active; 'I' for Inactive)
REMARK    1  A    between atoms: C_1  and  O_17 
REMARK    2  A    between atoms: C_4  and  O_20 
REMARK    3  A    between atoms: C_11  and  N_18 
REMARK    4  A    between atoms: C_14  and  N_19 
ROOT
HETATM    1  C   UNK N   1      34.452  12.558  10.825  0.00  0.00     0.081 A 
HETATM    2  C   UNK N   1      34.324  13.788  10.134  0.00  0.00     0.065 A 
HETATM    3  C   UNK N   1      35.057  14.913  10.581  0.00  0.00     0.065 A 
HETATM    4  C   UNK N   1      35.903  14.784  11.710  0.00  0.00     0.081 A 
HETATM    5  C   UNK N   1      36.011  13.564  12.370  0.00  0.00     0.040 A 
HETATM    6  C   UNK N   1      35.291  12.460  11.932  0.00  0.00     0.040 A 
HETATM    7  C   UNK N   1      34.931  16.211   9.863  0.00  0.00     0.199 A 
HETATM    8  C   UNK N   1      34.037  16.338   8.675  0.00  0.00     0.058 A 
HETATM    9  C   UNK N   1      33.302  15.211   8.227  0.00  0.00     0.058 A 
HETATM   10  C   UNK N   1      33.431  13.912   8.949  0.00  0.00     0.199 A 
HETATM   11  C   UNK N   1      32.455  15.342   7.096  0.00  0.00     0.041 A 
HETATM   12  C   UNK N   1      32.349  16.563   6.437  0.00  0.00     0.032 A 
HETATM   13  C   UNK N   1      33.068  17.666   6.875  0.00  0.00     0.032 A 
HETATM   14  C   UNK N   1      33.908  17.570   7.981  0.00  0.00     0.041 A 
HETATM   15  O   UNK N   1      32.800  12.937   8.566  0.00  0.00    -0.286 OA
HETATM   16  O   UNK N   1      35.566  17.179  10.253  0.00  0.00    -0.286 OA
ENDROOT
BRANCH  11  17
HETATM   17  N   UNK N   1      31.702  14.251   6.608  0.00  0.00    -0.398 N 
HETATM   18  H   UNK N   1      30.937  13.910   7.127  0.00  0.00     0.156 HD
HETATM   19  H   UNK N   1      31.940  13.832   5.751  0.00  0.00     0.156 HD
ENDBRANCH  11  17
BRANCH  14  20
HETATM   20  N   UNK N   1      34.617  18.722   8.386  0.00  0.00    -0.398 N 
HETATM   21  H   UNK N   1      34.539  19.049   9.311  0.00  0.00     0.156 HD
HETATM   22  H   UNK N   1      35.189  19.198   7.742  0.00  0.00     0.156 HD
ENDBRANCH  14  20
BRANCH   1  23
HETATM   23  O   UNK N   1      33.773  11.466  10.433  0.00  0.00    -0.360 OA
HETATM   24  H   UNK N   1      33.089  11.120  10.974  0.00  0.00     0.217 HD
ENDBRANCH   1  23
BRANCH   4  25
HETATM   25  O   UNK N   1      36.618  15.828  12.168  0.00  0.00    -0.360 OA
HETATM   26  H   UNK N   1      36.199  16.497  12.672  0.00  0.00     0.217 HD
ENDBRANCH   4  25
TORSDOF 4
ENDMDL
MODEL 5
REMARK VINA RESULT:      -6.2      6.304      8.205
REMARK  4 active torsions:
REMARK  status: ('A' for Active; 'I' for Inactive)
REMARK    1  A    between atoms: C_1  and  O_17 
REMARK    2  A    between atoms: C_4  and  O_20 
REMARK    3  A    between atoms: C_11  and  N_18 
REMARK    4  A    between atoms: C_14  and  N_19 
ROOT
HETATM    1  C   UNK N   1      21.198  20.284   2.898  0.00  0.00     0.081 A 
HETATM    2  C   UNK N   1      22.250  19.397   3.235  0.00  0.00     0.065 A 
HETATM    3  C   UNK N   1      21.952  18.041   3.504  0.00  0.00     0.065 A 
HETATM    4  C   UNK N   1      20.609  17.598   3.431  0.00  0.00     0.081 A 
HETATM    5  C   UNK N   1      19.594  18.490   3.098  0.00  0.00     0.040 A 
HETATM    6  C   UNK N   1      19.886  19.822   2.834  0.00  0.00     0.040 A 
HETATM    7  C   UNK N   1      23.051  17.100   3.859  0.00  0.00     0.199 A 
HETATM    8  C   UNK N   1      24.464  17.574   3.934  0.00  0.00     0.058 A 
HETATM    9  C   UNK N   1      24.762  18.934   3.664  0.00  0.00     0.058 A 
HETATM   10  C   UNK N   1      23.659  19.874   3.309  0.00  0.00     0.199 A 
HETATM   11  C   UNK N   1      26.109  19.375   3.738  0.00  0.00     0.041 A 
HETATM   12  C   UNK N   1      27.122  18.482   4.071  0.00  0.00     0.032 A 
HETATM   13  C   UNK N   1      26.830  17.151   4.335  0.00  0.00     0.032 A 
HETATM   14  C   UNK N   1      25.519  16.687   4.271  0.00  0.00     0.041 A 
HETATM   15  O   UNK N   1      23.911  21.048   3.075  0.00  0.00    -0.286 OA
HETATM   16  O   UNK N   1      22.789  15.929   4.091  0.00  0.00    -0.286 OA
ENDROOT
BRANCH  11  17
HETATM   17  N   UNK N   1      26.459  20.718   3.478  0.00  0.00    -0.398 N 
HETATM   18  H   UNK N   1      27.201  20.923   2.864  0.00  0.00     0.156 HD
HETATM   19  H   UNK N   1      25.963  21.449   3.912  0.00  0.00     0.156 HD
ENDBRANCH  11  17
BRANCH  14  20
HETATM   20  N   UNK N   1      25.277  15.324   4.548  0.00  0.00    -0.398 N 
HETATM   21  H   UNK N   1      25.730  14.626   4.023  0.00  0.00     0.156 HD
HETATM   22  H   UNK N   1      24.655  15.072   5.269  0.00  0.00     0.156 HD
ENDBRANCH  14  20
BRANCH   1  23
HETATM   23  O   UNK N   1      21.437  21.581   2.635  0.00  0.00    -0.360 OA
HETATM   24  H   UNK N   1      22.251  21.969   2.892  0.00  0.00     0.217 HD
ENDBRANCH   1  23
BRANCH   4  25
HETATM   25  O   UNK N   1      20.283  16.317   3.679  0.00  0.00    -0.360 OA
HETATM   26  H   UNK N   1      20.763  15.624   3.271  0.00  0.00     0.217 HD
ENDBRANCH   4  25
TORSDOF 4
ENDMDL
MODEL 6
REMARK VINA RESULT:      -6.2     10.487     11.789
REMARK  4 active torsions:
REMARK  status: ('A' for Active; 'I' for Inactive)
REMARK    1  A    between atoms: C_1  and  O_17 
REMARK    2  A    between atoms: C_4  and  O_20 
REMARK    3  A    between atoms: C_11  and  N_18 
REMARK    4  A    between atoms: C_14  and  N_19 
ROOT
HETATM    1  C   UNK N   1      35.817  14.719  11.810  0.00  0.00     0.081 A 
HETATM    2  C   UNK N   1      35.061  14.907  10.627  0.00  0.00     0.065 A 
HETATM    3  C   UNK N   1      34.331  13.820  10.091  0.00  0.00     0.065 A 
HETATM    4  C   UNK N   1      34.371  12.567  10.749  0.00  0.00     0.081 A 
HETATM    5  C   UNK N   1      35.123  12.408  11.910  0.00  0.00     0.040 A 
HETATM    6  C   UNK N   1      35.839  13.476  12.437  0.00  0.00     0.040 A 
HETATM    7  C   UNK N   1      33.532  14.007   8.848  0.00  0.00     0.199 A 
HETATM    8  C   UNK N   1      33.495  15.331   8.161  0.00  0.00     0.058 A 
HETATM    9  C   UNK N   1      34.226  16.421   8.698  0.00  0.00     0.058 A 
HETATM   10  C   UNK N   1      35.025  16.230   9.944  0.00  0.00     0.199 A 
HETATM   11  C   UNK N   1      34.184  17.676   8.037  0.00  0.00     0.041 A 
HETATM   12  C   UNK N   1      33.432  17.832   6.877  0.00  0.00     0.032 A 
HETATM   13  C   UNK N   1      32.716  16.766   6.351  0.00  0.00     0.032 A 
HETATM   14  C   UNK N   1      32.737  15.522   6.976  0.00  0.00     0.041 A 
HETATM   15  O   UNK N   1      35.658  17.167  10.411  0.00  0.00    -0.286 OA
HETATM   16  O   UNK N   1      32.903  13.065   8.389  0.00  0.00    -0.286 OA
ENDROOT
BRANCH  11  17
HETATM   17  N   UNK N   1      34.894  18.793   8.530  0.00  0.00    -0.398 N 
HETATM   18  H   UNK N   1      35.680  18.660   9.108  0.00  0.00     0.156 HD
HETATM   19  H   UNK N   1      34.603  19.704   8.295  0.00  0.00     0.156 HD
ENDBRANCH  11  17
BRANCH  14  20
HETATM   20  N   UNK N   1      31.991  14.471   6.400  0.00  0.00    -0.398 N 
HETATM   21  H   UNK N   1      31.922  14.395   5.421  0.00  0.00     0.156 HD
HETATM   22  H   UNK N   1      31.540  13.814   6.978  0.00  0.00     0.156 HD
ENDBRANCH  14  20
BRANCH   1  23
HETATM   23  O   UNK N   1      36.525  15.725  12.352  0.00  0.00    -0.360 OA
HETATM   24  H   UNK N   1      36.152  16.244  13.039  0.00  0.00     0.217 HD
ENDBRANCH   1  23
BRANCH   4  25
HETATM   25  O   UNK N   1      33.692  11.508  10.274  0.00  0.00    -0.360 OA
HETATM   26  H   UNK N   1      33.225  11.576   9.465  0.00  0.00     0.217 HD
ENDBRANCH   4  25
TORSDOF 4
ENDMDL
MODEL 7
REMARK VINA RESULT:      -6.1      4.062      5.815
REMARK  4 active torsions:
REMARK  status: ('A' for Active; 'I' for Inactive)
REMARK    1  A    between atoms: C_1  and  O_17 
REMARK    2  A    between atoms: C_4  and  O_20 
REMARK    3  A    between atoms: C_11  and  N_18 
REMARK    4  A    between atoms: C_14  and  N_19 
ROOT
HETATM    1  C   UNK N   1      23.070  15.650   6.316  0.00  0.00     0.081 A 
HETATM    2  C   UNK N   1      22.313  16.475   5.449  0.00  0.00     0.065 A 
HETATM    3  C   UNK N   1      20.957  16.157   5.200  0.00  0.00     0.065 A 
HETATM    4  C   UNK N   1      20.386  15.021   5.823  0.00  0.00     0.081 A 
HETATM    5  C   UNK N   1      21.153  14.226   6.671  0.00  0.00     0.040 A 
HETATM    6  C   UNK N   1      22.484  14.538   6.915  0.00  0.00     0.040 A 
HETATM    7  C   UNK N   1      20.152  17.017   4.290  0.00  0.00     0.199 A 
HETATM    8  C   UNK N   1      20.761  18.213   3.637  0.00  0.00     0.058 A 
HETATM    9  C   UNK N   1      22.121  18.531   3.887  0.00  0.00     0.058 A 
HETATM   10  C   UNK N   1      22.924  17.667   4.799  0.00  0.00     0.199 A 
HETATM   11  C   UNK N   1      22.691  19.671   3.261  0.00  0.00     0.041 A 
HETATM   12  C   UNK N   1      21.923  20.463   2.414  0.00  0.00     0.032 A 
HETATM   13  C   UNK N   1      20.593  20.151   2.170  0.00  0.00     0.032 A 
HETATM   14  C   UNK N   1      20.004  19.041   2.768  0.00  0.00     0.041 A 
HETATM   15  O   UNK N   1      24.097  17.938   5.017  0.00  0.00    -0.286 OA
HETATM   16  O   UNK N   1      18.981  16.739   4.077  0.00  0.00    -0.286 OA
ENDROOT
BRANCH  11  17
HETATM   17  N   UNK N   1      24.039  20.032   3.476  0.00  0.00    -0.398 N 
HETATM   18  H   UNK N   1      24.554  19.603   4.197  0.00  0.00     0.156 HD
HETATM   19  H   UNK N   1      24.463  20.713   2.905  0.00  0.00     0.156 HD
ENDBRANCH  11  17
BRANCH  14  20
HETATM   20  N   UNK N   1      18.648  18.769   2.485  0.00  0.00    -0.398 N 
HETATM   21  H   UNK N   1      18.222  17.959   2.848  0.00  0.00     0.156 HD
HETATM   22  H   UNK N   1      18.128  19.390   1.925  0.00  0.00     0.156 HD
ENDBRANCH  14  20
BRANCH   1  23
HETATM   23  O   UNK N   1      24.362  15.916   6.580  0.00  0.00    -0.360 OA
HETATM   24  H   UNK N   1      25.039  15.443   6.135  0.00  0.00     0.217 HD
ENDBRANCH   1  23
BRANCH   4  25
HETATM   25  O   UNK N   1      19.101  14.683   5.613  0.00  0.00    -0.360 OA
HETATM   26  H   UNK N   1      18.853  13.781   5.580  0.00  0.00     0.217 HD
ENDBRANCH   4  25
TORSDOF 4
ENDMDL
MODEL 8
REMARK VINA RESULT:      -6.1     16.753     17.934
REMARK  4 active torsions:
REMARK  status: ('A' for Active; 'I' for Inactive)
REMARK    1  A    between atoms: C_1  and  O_17 
REMARK    2  A    between atoms: C_4  and  O_20 
REMARK    3  A    between atoms: C_11  and  N_18 
REMARK    4  A    between atoms: C_14  and  N_19 
ROOT
HETATM    1  C   UNK N   1      31.034  20.910  -5.246  0.00  0.00     0.081 A 
HETATM    2  C   UNK N   1      29.987  21.857  -5.134  0.00  0.00     0.065 A 
HETATM    3  C   UNK N   1      29.847  22.596  -3.935  0.00  0.00     0.065 A 
HETATM    4  C   UNK N   1      30.757  22.372  -2.873  0.00  0.00     0.081 A 
HETATM    5  C   UNK N   1      31.777  21.435  -3.010  0.00  0.00     0.040 A 
HETATM    6  C   UNK N   1      31.915  20.710  -4.186  0.00  0.00     0.040 A 
HETATM    7  C   UNK N   1      28.749  23.594  -3.807  0.00  0.00     0.199 A 
HETATM    8  C   UNK N   1      27.795  23.823  -4.931  0.00  0.00     0.058 A 
HETATM    9  C   UNK N   1      27.935  23.083  -6.132  0.00  0.00     0.058 A 
HETATM   10  C   UNK N   1      29.036  22.084  -6.257  0.00  0.00     0.199 A 
HETATM   11  C   UNK N   1      27.022  23.309  -7.195  0.00  0.00     0.041 A 
HETATM   12  C   UNK N   1      26.003  24.245  -7.056  0.00  0.00     0.032 A 
HETATM   13  C   UNK N   1      25.866  24.970  -5.881  0.00  0.00     0.032 A 
HETATM   14  C   UNK N   1      26.745  24.772  -4.820  0.00  0.00     0.041 A 
HETATM   15  O   UNK N   1      29.161  21.443  -7.291  0.00  0.00    -0.286 OA
HETATM   16  O   UNK N   1      28.632  24.230  -2.769  0.00  0.00    -0.286 OA
ENDROOT
BRANCH  11  17
HETATM   17  N   UNK N   1      27.118  22.599  -8.411  0.00  0.00    -0.398 N 
HETATM   18  H   UNK N   1      27.665  21.782  -8.463  0.00  0.00     0.156 HD
HETATM   19  H   UNK N   1      26.637  22.920  -9.208  0.00  0.00     0.156 HD
ENDBRANCH  11  17
BRANCH  14  20
HETATM   20  N   UNK N   1      26.561  25.535  -3.646  0.00  0.00    -0.398 N 
HETATM   21  H   UNK N   1      26.485  26.515  -3.703  0.00  0.00     0.156 HD
HETATM   22  H   UNK N   1      26.508  25.086  -2.772  0.00  0.00     0.156 HD
ENDBRANCH  14  20
BRANCH   1  23
HETATM   23  O   UNK N   1      31.203  20.187  -6.367  0.00  0.00    -0.360 OA
HETATM   24  H   UNK N   1      32.047  19.837  -6.577  0.00  0.00     0.217 HD
ENDBRANCH   1  23
BRANCH   4  25
HETATM   25  O   UNK N   1      30.659  23.053  -1.717  0.00  0.00    -0.360 OA
HETATM   26  H   UNK N   1      29.836  23.413  -1.454  0.00  0.00     0.217 HD
ENDBRANCH   4  25
TORSDOF 4
ENDMDL
MODEL 9
REMARK VINA RESULT:      -6.1     16.787     17.972
REMARK  4 active torsions:
REMARK  status: ('A' for Active; 'I' for Inactive)
REMARK    1  A    between atoms: C_1  and  O_17 
REMARK    2  A    between atoms: C_4  and  O_20 
REMARK    3  A    between atoms: C_11  and  N_18 
REMARK    4  A    between atoms: C_14  and  N_19 
ROOT
HETATM    1  C   UNK N   1      30.863  22.335  -2.906  0.00  0.00     0.081 A 
HETATM    2  C   UNK N   1      29.946  22.543  -3.965  0.00  0.00     0.065 A 
HETATM    3  C   UNK N   1      30.107  21.821  -5.171  0.00  0.00     0.065 A 
HETATM    4  C   UNK N   1      31.181  20.906  -5.294  0.00  0.00     0.081 A 
HETATM    5  C   UNK N   1      32.068  20.721  -4.237  0.00  0.00     0.040 A 
HETATM    6  C   UNK N   1      31.910  21.429  -3.052  0.00  0.00     0.040 A 
HETATM    7  C   UNK N   1      29.149  22.032  -6.292  0.00  0.00     0.199 A 
HETATM    8  C   UNK N   1      28.020  22.999  -6.155  0.00  0.00     0.058 A 
HETATM    9  C   UNK N   1      27.859  23.722  -4.946  0.00  0.00     0.058 A 
HETATM   10  C   UNK N   1      28.821  23.508  -3.825  0.00  0.00     0.199 A 
HETATM   11  C   UNK N   1      26.782  24.638  -4.826  0.00  0.00     0.041 A 
HETATM   12  C   UNK N   1      25.897  24.822  -5.883  0.00  0.00     0.032 A 
HETATM   13  C   UNK N   1      26.054  24.114  -7.066  0.00  0.00     0.032 A 
HETATM   14  C   UNK N   1      27.100  23.208  -7.215  0.00  0.00     0.041 A 
HETATM   15  O   UNK N   1      28.686  24.130  -2.781  0.00  0.00    -0.286 OA
HETATM   16  O   UNK N   1      29.292  21.407  -7.332  0.00  0.00    -0.286 OA
ENDROOT
BRANCH  11  17
HETATM   17  N   UNK N   1      26.577  25.383  -3.644  0.00  0.00    -0.398 N 
HETATM   18  H   UNK N   1      25.935  26.131  -3.638  0.00  0.00     0.156 HD
HETATM   19  H   UNK N   1      27.075  25.156  -2.826  0.00  0.00     0.156 HD
ENDBRANCH  11  17
BRANCH  14  20
HETATM   20  N   UNK N   1      27.215  22.514  -8.440  0.00  0.00    -0.398 N 
HETATM   21  H   UNK N   1      28.003  21.950  -8.614  0.00  0.00     0.156 HD
HETATM   22  H   UNK N   1      26.507  22.595  -9.119  0.00  0.00     0.156 HD
ENDBRANCH  14  20
BRANCH   1  23
HETATM   23  O   UNK N   1      30.747  23.000  -1.743  0.00  0.00    -0.360 OA
HETATM   24  H   UNK N   1      30.602  23.927  -1.745  0.00  0.00     0.217 HD
ENDBRANCH   1  23
BRANCH   4  25
HETATM   25  O   UNK N   1      31.370  20.200  -6.423  0.00  0.00    -0.360 OA
HETATM   26  H   UNK N   1      31.118  20.562  -7.249  0.00  0.00     0.217 HD
ENDBRANCH   4  25
TORSDOF 4
ENDMDL
