MODEL 1
REMARK VINA RESULT:      -6.2      0.000      0.000
REMARK  8 active torsions:
REMARK  status: ('A' for Active; 'I' for Inactive)
REMARK    1  A    between atoms: C_2  and  O_3 
REMARK    2  A    between atoms: C_2  and  C_4 
REMARK    3  A    between atoms: C_4  and  N_5 
REMARK    4  A    between atoms: C_4  and  C_10 
REMARK    5  A    between atoms: N_5  and  O_6 
REMARK    6  A    between atoms: O_6  and  C_7 
REMARK    7  A    between atoms: C_7  and  C_8 
REMARK    8  A    between atoms: C_8  and  S_9 
ROOT
HETATM    1  C   UNK N   1      33.484  17.690   8.909  0.00  0.00     0.238 C 
ENDROOT
BRANCH   1   2
HETATM    2  C   UNK N   1      34.500  18.377   8.017  0.00  0.00     0.170 C 
HETATM    3  O   UNK N   1      34.553  18.140   6.820  0.00  0.00    -0.648 OA
BRANCH   2   4
HETATM    4  O   UNK N   1      35.349  19.280   8.547  0.00  0.00    -0.775 OA
HETATM    5  H   UNK N   1      35.028  20.008   9.041  0.00  0.00     0.167 HD
ENDBRANCH   2   4
ENDBRANCH   1   2
BRANCH   1   6
HETATM    6  N   UNK N   1      34.128  16.592   9.637  0.00  0.00    -0.283 N 
HETATM    7  H   UNK N   1      33.909  15.602   9.527  0.00  0.00     0.189 HD
BRANCH   6   8
HETATM    8  O   UNK N   1      35.061  17.100  10.480  0.00  0.00    -0.283 OA
BRANCH   8   9
HETATM    9  C   UNK N   1      35.620  15.981  11.097  0.00  0.00     0.210 C 
BRANCH   9  10
HETATM   10  C   UNK N   1      34.562  14.912  11.273  0.00  0.00     0.099 C 
BRANCH  10  11
HETATM   11  S   UNK N   1      35.254  13.531  12.225  0.00  0.00    -0.180 SA
HETATM   12  H   UNK N   1      36.602  13.366  12.307  0.00  0.00     0.101 HD
ENDBRANCH  10  11
ENDBRANCH   9  10
ENDBRANCH   8   9
ENDBRANCH   6   8
ENDBRANCH   1   6
BRANCH   1  13
HETATM   13  C   UNK N   1      32.296  17.143   8.145  0.00  0.00     0.004 A 
HETATM   14  C   UNK N   1      32.320  16.098   7.219  0.00  0.00     0.099 A 
HETATM   15  N   UNK N   1      31.071  15.873   6.745  0.00  0.00    -0.365 N 
HETATM   16  C   UNK N   1      30.270  16.765   7.358  0.00  0.00     0.043 A 
HETATM   17  H   UNK N   1      30.802  15.195   6.084  0.00  0.00     0.165 HD
HETATM   18  C   UNK N   1      28.901  16.921   7.172  0.00  0.00     0.030 A 
HETATM   19  C   UNK N   1      30.981  17.551   8.221  0.00  0.00     0.001 A 
HETATM   20  C   UNK N   1      28.252  17.932   7.906  0.00  0.00     0.002 A 
HETATM   21  C   UNK N   1      28.983  18.746   8.800  0.00  0.00     0.001 A 
HETATM   22  C   UNK N   1      30.367  18.556   8.968  0.00  0.00     0.014 A 
ENDBRANCH   1  13
TORSDOF 8
ENDMDL
MODEL 2
REMARK VINA RESULT:      -5.6      4.480      7.958
REMARK  8 active torsions:
REMARK  status: ('A' for Active; 'I' for Inactive)
REMARK    1  A    between atoms: C_2  and  O_3 
REMARK    2  A    between atoms: C_2  and  C_4 
REMARK    3  A    between atoms: C_4  and  N_5 
REMARK    4  A    between atoms: C_4  and  C_10 
REMARK    5  A    between atoms: N_5  and  O_6 
REMARK    6  A    between atoms: O_6  and  C_7 
REMARK    7  A    between atoms: C_7  and  C_8 
REMARK    8  A    between atoms: C_8  and  S_9 
ROOT
HETATM    1  C   UNK N   1      35.963  14.165  11.987  0.00  0.00     0.238 C 
ENDROOT
BRANCH   1   2
HETATM    2  C   UNK N   1      36.869  13.338  11.094  0.00  0.00     0.170 C 
HETATM    3  O   UNK N   1      36.408  12.552  10.281  0.00  0.00    -0.648 OA
BRANCH   2   4
HETATM    4  O   UNK N   1      38.205  13.485  11.183  0.00  0.00    -0.775 OA
HETATM    5  H   UNK N   1      38.784  12.822  10.861  0.00  0.00     0.167 HD
ENDBRANCH   2   4
ENDBRANCH   1   2
BRANCH   1   6
HETATM    6  N   UNK N   1      36.403  15.564  11.978  0.00  0.00    -0.283 N 
HETATM    7  H   UNK N   1      36.614  16.122  12.805  0.00  0.00     0.189 HD
BRANCH   6   8
HETATM    8  O   UNK N   1      36.486  15.999  10.696  0.00  0.00    -0.283 OA
BRANCH   8   9
HETATM    9  C   UNK N   1      35.320  16.742  10.504  0.00  0.00     0.210 C 
BRANCH   9  10
HETATM   10  C   UNK N   1      34.711  16.400   9.159  0.00  0.00     0.099 C 
BRANCH  10  11
HETATM   11  S   UNK N   1      34.344  17.931   8.258  0.00  0.00    -0.180 SA
HETATM   12  H   UNK N   1      34.505  19.137   8.867  0.00  0.00     0.101 HD
ENDBRANCH  10  11
ENDBRANCH   9  10
ENDBRANCH   8   9
ENDBRANCH   6   8
ENDBRANCH   1   6
BRANCH   1  13
HETATM   13  C   UNK N   1      35.926  13.671  13.418  0.00  0.00     0.004 A 
HETATM   14  C   UNK N   1      36.575  14.253  14.509  0.00  0.00     0.099 A 
HETATM   15  N   UNK N   1      36.308  13.547  15.635  0.00  0.00    -0.365 N 
HETATM   16  C   UNK N   1      35.508  12.532  15.260  0.00  0.00     0.043 A 
HETATM   17  H   UNK N   1      36.635  13.737  16.544  0.00  0.00     0.165 HD
HETATM   18  C   UNK N   1      34.990  11.535  16.079  0.00  0.00     0.030 A 
HETATM   19  C   UNK N   1      35.251  12.579  13.919  0.00  0.00     0.001 A 
HETATM   20  C   UNK N   1      34.181  10.551  15.480  0.00  0.00     0.002 A 
HETATM   21  C   UNK N   1      33.912  10.595  14.093  0.00  0.00     0.001 A 
HETATM   22  C   UNK N   1      34.448  11.623  13.295  0.00  0.00     0.014 A 
ENDBRANCH   1  13
TORSDOF 8
ENDMDL
MODEL 3
REMARK VINA RESULT:      -5.6      1.178      1.420
REMARK  8 active torsions:
REMARK  status: ('A' for Active; 'I' for Inactive)
REMARK    1  A    between atoms: C_2  and  O_3 
REMARK    2  A    between atoms: C_2  and  C_4 
REMARK    3  A    between atoms: C_4  and  N_5 
REMARK    4  A    between atoms: C_4  and  C_10 
REMARK    5  A    between atoms: N_5  and  O_6 
REMARK    6  A    between atoms: O_6  and  C_7 
REMARK    7  A    between atoms: C_7  and  C_8 
REMARK    8  A    between atoms: C_8  and  S_9 
ROOT
HETATM    1  C   UNK N   1      33.398  17.588   8.859  0.00  0.00     0.238 C 
ENDROOT
BRANCH   1   2
HETATM    2  C   UNK N   1      34.444  18.282   8.007  0.00  0.00     0.170 C 
HETATM    3  O   UNK N   1      35.184  19.130   8.481  0.00  0.00    -0.648 OA
BRANCH   2   4
HETATM    4  O   UNK N   1      34.575  17.945   6.709  0.00  0.00    -0.775 OA
HETATM    5  H   UNK N   1      33.851  18.021   6.118  0.00  0.00     0.167 HD
ENDBRANCH   2   4
ENDBRANCH   1   2
BRANCH   1   6
HETATM    6  N   UNK N   1      33.986  16.410   9.504  0.00  0.00    -0.283 N 
HETATM    7  H   UNK N   1      33.620  15.946  10.335  0.00  0.00     0.189 HD
BRANCH   6   8
HETATM    8  O   UNK N   1      35.096  16.033   8.820  0.00  0.00    -0.283 OA
BRANCH   8   9
HETATM    9  C   UNK N   1      35.004  14.643   8.745  0.00  0.00     0.210 C 
BRANCH   9  10
HETATM   10  C   UNK N   1      36.373  14.028   8.951  0.00  0.00     0.099 C 
BRANCH  10  11
HETATM   11  S   UNK N   1      36.767  14.015  10.721  0.00  0.00    -0.180 SA
HETATM   12  H   UNK N   1      36.765  15.176  11.431  0.00  0.00     0.101 HD
ENDBRANCH  10  11
ENDBRANCH   9  10
ENDBRANCH   8   9
ENDBRANCH   6   8
ENDBRANCH   1   6
BRANCH   1  13
HETATM   13  C   UNK N   1      32.177  17.159   8.071  0.00  0.00     0.004 A 
HETATM   14  C   UNK N   1      32.154  16.233   7.027  0.00  0.00     0.099 A 
HETATM   15  N   UNK N   1      30.887  16.089   6.566  0.00  0.00    -0.365 N 
HETATM   16  C   UNK N   1      30.124  16.916   7.304  0.00  0.00     0.043 A 
HETATM   17  H   UNK N   1      30.586  15.501   5.837  0.00  0.00     0.165 HD
HETATM   18  C   UNK N   1      28.754  17.119   7.178  0.00  0.00     0.030 A 
HETATM   19  C   UNK N   1      30.875  17.580   8.233  0.00  0.00     0.001 A 
HETATM   20  C   UNK N   1      28.148  18.047   8.046  0.00  0.00     0.002 A 
HETATM   21  C   UNK N   1      28.920  18.735   9.009  0.00  0.00     0.001 A 
HETATM   22  C   UNK N   1      30.304  18.500   9.113  0.00  0.00     0.014 A 
ENDBRANCH   1  13
TORSDOF 8
ENDMDL
MODEL 4
REMARK VINA RESULT:      -5.6      3.374      4.852
REMARK  8 active torsions:
REMARK  status: ('A' for Active; 'I' for Inactive)
REMARK    1  A    between atoms: C_2  and  O_3 
REMARK    2  A    between atoms: C_2  and  C_4 
REMARK    3  A    between atoms: C_4  and  N_5 
REMARK    4  A    between atoms: C_4  and  C_10 
REMARK    5  A    between atoms: N_5  and  O_6 
REMARK    6  A    between atoms: O_6  and  C_7 
REMARK    7  A    between atoms: C_7  and  C_8 
REMARK    8  A    between atoms: C_8  and  S_9 
ROOT
HETATM    1  C   UNK N   1      33.496  17.837   7.869  0.00  0.00     0.238 C 
ENDROOT
BRANCH   1   2
HETATM    2  C   UNK N   1      34.661  18.216   8.763  0.00  0.00     0.170 C 
HETATM    3  O   UNK N   1      34.958  17.539   9.735  0.00  0.00    -0.648 OA
BRANCH   2   4
HETATM    4  O   UNK N   1      35.396  19.308   8.472  0.00  0.00    -0.775 OA
HETATM    5  H   UNK N   1      36.293  19.367   8.735  0.00  0.00     0.167 HD
ENDBRANCH   2   4
ENDBRANCH   1   2
BRANCH   1   6
HETATM    6  N   UNK N   1      32.407  17.288   8.682  0.00  0.00    -0.283 N 
HETATM    7  H   UNK N   1      32.523  16.758   9.546  0.00  0.00     0.189 HD
BRANCH   6   8
HETATM    8  O   UNK N   1      31.218  17.596   8.104  0.00  0.00    -0.283 OA
BRANCH   8   9
HETATM    9  C   UNK N   1      30.612  18.476   9.001  0.00  0.00     0.210 C 
BRANCH   9  10
HETATM   10  C   UNK N   1      29.107  18.401   8.853  0.00  0.00     0.099 C 
BRANCH  10  11
HETATM   11  S   UNK N   1      28.694  17.856   7.173  0.00  0.00    -0.180 SA
HETATM   12  H   UNK N   1      29.068  18.604   6.100  0.00  0.00     0.101 HD
ENDBRANCH  10  11
ENDBRANCH   9  10
ENDBRANCH   8   9
ENDBRANCH   6   8
ENDBRANCH   1   6
BRANCH   1  13
HETATM   13  C   UNK N   1      33.869  16.828   6.802  0.00  0.00     0.004 A 
HETATM   14  C   UNK N   1      34.734  15.743   6.958  0.00  0.00     0.099 A 
HETATM   15  N   UNK N   1      34.821  15.051   5.796  0.00  0.00    -0.365 N 
HETATM   16  C   UNK N   1      34.028  15.692   4.917  0.00  0.00     0.043 A 
HETATM   17  H   UNK N   1      35.357  14.243   5.627  0.00  0.00     0.165 HD
HETATM   18  C   UNK N   1      33.816  15.353   3.586  0.00  0.00     0.030 A 
HETATM   19  C   UNK N   1      33.429  16.776   5.496  0.00  0.00     0.001 A 
HETATM   20  C   UNK N   1      32.954  16.172   2.831  0.00  0.00     0.002 A 
HETATM   21  C   UNK N   1      32.332  17.293   3.426  0.00  0.00     0.001 A 
HETATM   22  C   UNK N   1      32.565  17.603   4.779  0.00  0.00     0.014 A 
ENDBRANCH   1  13
TORSDOF 8
ENDMDL
MODEL 5
REMARK VINA RESULT:      -5.5     10.359     12.452
REMARK  8 active torsions:
REMARK  status: ('A' for Active; 'I' for Inactive)
REMARK    1  A    between atoms: C_2  and  O_3 
REMARK    2  A    between atoms: C_2  and  C_4 
REMARK    3  A    between atoms: C_4  and  N_5 
REMARK    4  A    between atoms: C_4  and  C_10 
REMARK    5  A    between atoms: N_5  and  O_6 
REMARK    6  A    between atoms: O_6  and  C_7 
REMARK    7  A    between atoms: C_7  and  C_8 
REMARK    8  A    between atoms: C_8  and  S_9 
ROOT
HETATM    1  C   UNK N   1      21.523  19.284   2.783  0.00  0.00     0.238 C 
ENDROOT
BRANCH   1   2
HETATM    2  C   UNK N   1      20.889  20.650   2.962  0.00  0.00     0.170 C 
HETATM    3  O   UNK N   1      20.188  20.899   3.931  0.00  0.00    -0.648 OA
BRANCH   2   4
HETATM    4  O   UNK N   1      21.115  21.614   2.048  0.00  0.00    -0.775 OA
HETATM    5  H   UNK N   1      21.762  22.274   2.197  0.00  0.00     0.167 HD
ENDBRANCH   2   4
ENDBRANCH   1   2
BRANCH   1   6
HETATM    6  N   UNK N   1      20.516  18.239   2.994  0.00  0.00    -0.283 N 
HETATM    7  H   UNK N   1      19.838  18.217   3.755  0.00  0.00     0.189 HD
BRANCH   6   8
HETATM    8  O   UNK N   1      20.629  17.304   2.017  0.00  0.00    -0.283 OA
BRANCH   8   9
HETATM    9  C   UNK N   1      20.269  16.107   2.636  0.00  0.00     0.210 C 
BRANCH   9  10
HETATM   10  C   UNK N   1      21.501  15.255   2.859  0.00  0.00     0.099 C 
BRANCH  10  11
HETATM   11  S   UNK N   1      22.059  14.577   1.272  0.00  0.00    -0.180 SA
HETATM   12  H   UNK N   1      21.824  13.272   0.966  0.00  0.00     0.101 HD
ENDBRANCH  10  11
ENDBRANCH   9  10
ENDBRANCH   8   9
ENDBRANCH   6   8
ENDBRANCH   1   6
BRANCH   1  13
HETATM   13  C   UNK N   1      22.688  19.040   3.721  0.00  0.00     0.004 A 
HETATM   14  C   UNK N   1      22.668  18.253   4.874  0.00  0.00     0.099 A 
HETATM   15  N   UNK N   1      23.891  18.256   5.456  0.00  0.00    -0.365 N 
HETATM   16  C   UNK N   1      24.672  19.037   4.685  0.00  0.00     0.043 A 
HETATM   17  H   UNK N   1      24.157  17.784   6.278  0.00  0.00     0.165 HD
HETATM   18  C   UNK N   1      26.009  19.348   4.900  0.00  0.00     0.030 A 
HETATM   19  C   UNK N   1      23.973  19.527   3.618  0.00  0.00     0.001 A 
HETATM   20  C   UNK N   1      26.639  20.202   3.975  0.00  0.00     0.002 A 
HETATM   21  C   UNK N   1      25.922  20.711   2.870  0.00  0.00     0.001 A 
HETATM   22  C   UNK N   1      24.570  20.370   2.679  0.00  0.00     0.014 A 
ENDBRANCH   1  13
TORSDOF 8
ENDMDL
MODEL 6
REMARK VINA RESULT:      -5.4      1.181      2.554
REMARK  8 active torsions:
REMARK  status: ('A' for Active; 'I' for Inactive)
REMARK    1  A    between atoms: C_2  and  O_3 
REMARK    2  A    between atoms: C_2  and  C_4 
REMARK    3  A    between atoms: C_4  and  N_5 
REMARK    4  A    between atoms: C_4  and  C_10 
REMARK    5  A    between atoms: N_5  and  O_6 
REMARK    6  A    between atoms: O_6  and  C_7 
REMARK    7  A    between atoms: C_7  and  C_8 
REMARK    8  A    between atoms: C_8  and  S_9 
ROOT
HETATM    1  C   UNK N   1      33.456  17.620   8.853  0.00  0.00     0.238 C 
ENDROOT
BRANCH   1   2
HETATM    2  C   UNK N   1      34.471  18.344   7.988  0.00  0.00     0.170 C 
HETATM    3  O   UNK N   1      34.544  18.130   6.788  0.00  0.00    -0.648 OA
BRANCH   2   4
HETATM    4  O   UNK N   1      35.295  19.252   8.546  0.00  0.00    -0.775 OA
HETATM    5  H   UNK N   1      35.565  19.169   9.440  0.00  0.00     0.167 HD
ENDBRANCH   2   4
ENDBRANCH   1   2
BRANCH   1   6
HETATM    6  N   UNK N   1      34.083  16.452   9.480  0.00  0.00    -0.283 N 
HETATM    7  H   UNK N   1      33.639  15.544   9.614  0.00  0.00     0.189 HD
BRANCH   6   8
HETATM    8  O   UNK N   1      35.349  16.770   9.852  0.00  0.00    -0.283 OA
BRANCH   8   9
HETATM    9  C   UNK N   1      35.473  16.253  11.142  0.00  0.00     0.210 C 
BRANCH   9  10
HETATM   10  C   UNK N   1      34.620  15.008  11.279  0.00  0.00     0.099 C 
BRANCH  10  11
HETATM   11  S   UNK N   1      35.408  13.865  12.445  0.00  0.00    -0.180 SA
HETATM   12  H   UNK N   1      34.777  12.715  12.807  0.00  0.00     0.101 HD
ENDBRANCH  10  11
ENDBRANCH   9  10
ENDBRANCH   8   9
ENDBRANCH   6   8
ENDBRANCH   1   6
BRANCH   1  13
HETATM   13  C   UNK N   1      32.233  17.167   8.084  0.00  0.00     0.004 A 
HETATM   14  C   UNK N   1      30.979  17.782   8.091  0.00  0.00     0.099 A 
HETATM   15  N   UNK N   1      30.130  17.109   7.277  0.00  0.00    -0.365 N 
HETATM   16  C   UNK N   1      30.835  16.082   6.767  0.00  0.00     0.043 A 
HETATM   17  H   UNK N   1      29.187  17.325   7.096  0.00  0.00     0.165 HD
HETATM   18  C   UNK N   1      30.370  15.107   5.891  0.00  0.00     0.030 A 
HETATM   19  C   UNK N   1      32.119  16.089   7.232  0.00  0.00     0.001 A 
HETATM   20  C   UNK N   1      31.273  14.104   5.489  0.00  0.00     0.002 A 
HETATM   21  C   UNK N   1      32.603  14.108   5.967  0.00  0.00     0.001 A 
HETATM   22  C   UNK N   1      33.041  15.114   6.849  0.00  0.00     0.014 A 
ENDBRANCH   1  13
TORSDOF 8
ENDMDL
MODEL 7
REMARK VINA RESULT:      -5.3      2.270      3.266
REMARK  8 active torsions:
REMARK  status: ('A' for Active; 'I' for Inactive)
REMARK    1  A    between atoms: C_2  and  O_3 
REMARK    2  A    between atoms: C_2  and  C_4 
REMARK    3  A    between atoms: C_4  and  N_5 
REMARK    4  A    between atoms: C_4  and  C_10 
REMARK    5  A    between atoms: N_5  and  O_6 
REMARK    6  A    between atoms: O_6  and  C_7 
REMARK    7  A    between atoms: C_7  and  C_8 
REMARK    8  A    between atoms: C_8  and  S_9 
ROOT
HETATM    1  C   UNK N   1      34.507  15.462  10.412  0.00  0.00     0.238 C 
ENDROOT
BRANCH   1   2
HETATM    2  C   UNK N   1      35.646  16.456  10.527  0.00  0.00     0.170 C 
HETATM    3  O   UNK N   1      35.497  17.627  10.217  0.00  0.00    -0.648 OA
BRANCH   2   4
HETATM    4  O   UNK N   1      36.842  16.046  10.997  0.00  0.00    -0.775 OA
HETATM    5  H   UNK N   1      36.901  15.541  11.784  0.00  0.00     0.167 HD
ENDBRANCH   2   4
ENDBRANCH   1   2
BRANCH   1   6
HETATM    6  N   UNK N   1      34.903  14.183  11.010  0.00  0.00    -0.283 N 
HETATM    7  H   UNK N   1      35.275  13.382  10.499  0.00  0.00     0.189 HD
BRANCH   6   8
HETATM    8  O   UNK N   1      34.698  14.232  12.350  0.00  0.00    -0.283 OA
BRANCH   8   9
HETATM    9  C   UNK N   1      35.512  13.223  12.865  0.00  0.00     0.210 C 
BRANCH   9  10
HETATM   10  C   UNK N   1      35.323  13.128  14.365  0.00  0.00     0.099 C 
BRANCH  10  11
HETATM   11  S   UNK N   1      36.734  13.905  15.199  0.00  0.00    -0.180 SA
HETATM   12  H   UNK N   1      37.336  14.995  14.651  0.00  0.00     0.101 HD
ENDBRANCH  10  11
ENDBRANCH   9  10
ENDBRANCH   8   9
ENDBRANCH   6   8
ENDBRANCH   1   6
BRANCH   1  13
HETATM   13  C   UNK N   1      34.069  15.221   8.982  0.00  0.00     0.004 A 
HETATM   14  C   UNK N   1      34.595  14.266   8.108  0.00  0.00     0.099 A 
HETATM   15  N   UNK N   1      33.954  14.330   6.916  0.00  0.00    -0.365 N 
HETATM   16  C   UNK N   1      33.040  15.312   7.033  0.00  0.00     0.043 A 
HETATM   17  H   UNK N   1      34.122  13.771   6.123  0.00  0.00     0.165 HD
HETATM   18  C   UNK N   1      32.158  15.749   6.052  0.00  0.00     0.030 A 
HETATM   19  C   UNK N   1      33.080  15.873   8.278  0.00  0.00     0.001 A 
HETATM   20  C   UNK N   1      31.290  16.808   6.377  0.00  0.00     0.002 A 
HETATM   21  C   UNK N   1      31.326  17.391   7.664  0.00  0.00     0.001 A 
HETATM   22  C   UNK N   1      32.228  16.919   8.635  0.00  0.00     0.014 A 
ENDBRANCH   1  13
TORSDOF 8
ENDMDL
MODEL 8
REMARK VINA RESULT:      -5.3      4.639      6.763
REMARK  8 active torsions:
REMARK  status: ('A' for Active; 'I' for Inactive)
REMARK    1  A    between atoms: C_2  and  O_3 
REMARK    2  A    between atoms: C_2  and  C_4 
REMARK    3  A    between atoms: C_4  and  N_5 
REMARK    4  A    between atoms: C_4  and  C_10 
REMARK    5  A    between atoms: N_5  and  O_6 
REMARK    6  A    between atoms: O_6  and  C_7 
REMARK    7  A    between atoms: C_7  and  C_8 
REMARK    8  A    between atoms: C_8  and  S_9 
ROOT
HETATM    1  C   UNK N   1      29.270  18.508   7.789  0.00  0.00     0.238 C 
ENDROOT
BRANCH   1   2
HETATM    2  C   UNK N   1      28.779  18.375   9.218  0.00  0.00     0.170 C 
HETATM    3  O   UNK N   1      29.499  18.660  10.163  0.00  0.00    -0.648 OA
BRANCH   2   4
HETATM    4  O   UNK N   1      27.521  17.953   9.452  0.00  0.00    -0.775 OA
HETATM    5  H   UNK N   1      26.828  18.567   9.599  0.00  0.00     0.167 HD
ENDBRANCH   2   4
ENDBRANCH   1   2
BRANCH   1   6
HETATM    6  N   UNK N   1      28.126  18.532   6.873  0.00  0.00    -0.283 N 
HETATM    7  H   UNK N   1      27.852  17.773   6.249  0.00  0.00     0.189 HD
BRANCH   6   8
HETATM    8  O   UNK N   1      27.488  19.724   6.985  0.00  0.00    -0.283 OA
BRANCH   8   9
HETATM    9  C   UNK N   1      27.618  20.309   5.725  0.00  0.00     0.210 C 
BRANCH   9  10
HETATM   10  C   UNK N   1      26.262  20.772   5.234  0.00  0.00     0.099 C 
BRANCH  10  11
HETATM   11  S   UNK N   1      25.297  19.336   4.689  0.00  0.00    -0.180 SA
HETATM   12  H   UNK N   1      24.812  19.280   3.419  0.00  0.00     0.101 HD
ENDBRANCH  10  11
ENDBRANCH   9  10
ENDBRANCH   8   9
ENDBRANCH   6   8
ENDBRANCH   1   6
BRANCH   1  13
HETATM   13  C   UNK N   1      30.207  17.391   7.376  0.00  0.00     0.004 A 
HETATM   14  C   UNK N   1      29.858  16.243   6.661  0.00  0.00     0.099 A 
HETATM   15  N   UNK N   1      30.954  15.472   6.461  0.00  0.00    -0.365 N 
HETATM   16  C   UNK N   1      31.980  16.121   7.045  0.00  0.00     0.043 A 
HETATM   17  H   UNK N   1      30.994  14.611   5.987  0.00  0.00     0.165 HD
HETATM   18  C   UNK N   1      33.303  15.698   7.110  0.00  0.00     0.030 A 
HETATM   19  C   UNK N   1      31.563  17.294   7.607  0.00  0.00     0.001 A 
HETATM   20  C   UNK N   1      34.221  16.524   7.786  0.00  0.00     0.002 A 
HETATM   21  C   UNK N   1      33.795  17.739   8.368  0.00  0.00     0.001 A 
HETATM   22  C   UNK N   1      32.448  18.138   8.278  0.00  0.00     0.014 A 
ENDBRANCH   1  13
TORSDOF 8
ENDMDL
MODEL 9
REMARK VINA RESULT:      -5.2     11.010     12.892
REMARK  8 active torsions:
REMARK  status: ('A' for Active; 'I' for Inactive)
REMARK    1  A    between atoms: C_2  and  O_3 
REMARK    2  A    between atoms: C_2  and  C_4 
REMARK    3  A    between atoms: C_4  and  N_5 
REMARK    4  A    between atoms: C_4  and  C_10 
REMARK    5  A    between atoms: N_5  and  O_6 
REMARK    6  A    between atoms: O_6  and  C_7 
REMARK    7  A    between atoms: C_7  and  C_8 
REMARK    8  A    between atoms: C_8  and  S_9 
ROOT
HETATM    1  C   UNK N   1      21.340  14.889   8.051  0.00  0.00     0.238 C 
ENDROOT
BRANCH   1   2
HETATM    2  C   UNK N   1      20.317  15.997   8.217  0.00  0.00     0.170 C 
HETATM    3  O   UNK N   1      20.584  17.017   8.834  0.00  0.00    -0.648 OA
BRANCH   2   4
HETATM    4  O   UNK N   1      19.097  15.865   7.661  0.00  0.00    -0.775 OA
HETATM    5  H   UNK N   1      18.996  15.486   6.809  0.00  0.00     0.167 HD
ENDBRANCH   2   4
ENDBRANCH   1   2
BRANCH   1   6
HETATM    6  N   UNK N   1      21.026  14.101   6.855  0.00  0.00    -0.283 N 
HETATM    7  H   UNK N   1      20.720  13.128   6.852  0.00  0.00     0.189 HD
BRANCH   6   8
HETATM    8  O   UNK N   1      21.205  14.871   5.752  0.00  0.00    -0.283 OA
BRANCH   8   9
HETATM    9  C   UNK N   1      20.547  14.181   4.735  0.00  0.00     0.210 C 
BRANCH   9  10
HETATM   10  C   UNK N   1      19.332  14.967   4.286  0.00  0.00     0.099 C 
BRANCH  10  11
HETATM   11  S   UNK N   1      19.795  16.704   4.046  0.00  0.00    -0.180 SA
HETATM   12  H   UNK N   1      19.734  17.263   2.807  0.00  0.00     0.101 HD
ENDBRANCH  10  11
ENDBRANCH   9  10
ENDBRANCH   8   9
ENDBRANCH   6   8
ENDBRANCH   1   6
BRANCH   1  13
HETATM   13  C   UNK N   1      21.411  13.961   9.246  0.00  0.00     0.004 A 
HETATM   14  C   UNK N   1      20.335  13.546  10.034  0.00  0.00     0.099 A 
HETATM   15  N   UNK N   1      20.772  12.709  11.007  0.00  0.00    -0.365 N 
HETATM   16  C   UNK N   1      22.103  12.602  10.840  0.00  0.00     0.043 A 
HETATM   17  H   UNK N   1      20.226  12.269  11.698  0.00  0.00     0.165 HD
HETATM   18  C   UNK N   1      22.982  11.858  11.619  0.00  0.00     0.030 A 
HETATM   19  C   UNK N   1      22.526  13.346   9.775  0.00  0.00     0.001 A 
HETATM   20  C   UNK N   1      24.348  11.896  11.280  0.00  0.00     0.002 A 
HETATM   21  C   UNK N   1      24.791  12.663  10.180  0.00  0.00     0.001 A 
HETATM   22  C   UNK N   1      23.871  13.399   9.408  0.00  0.00     0.014 A 
ENDBRANCH   1  13
TORSDOF 8
ENDMDL
