REMARK  8 active torsions:
REMARK  status: ('A' for Active; 'I' for Inactive)
REMARK    1  A    between atoms: C_2  and  O_3 
REMARK    2  A    between atoms: C_2  and  C_4 
REMARK    3  A    between atoms: C_4  and  N_5 
REMARK    4  A    between atoms: C_4  and  C_10 
REMARK    5  A    between atoms: N_5  and  O_6 
REMARK    6  A    between atoms: O_6  and  C_7 
REMARK    7  A    between atoms: C_7  and  C_8 
REMARK    8  A    between atoms: C_8  and  S_9 
ROOT
HETATM    1  C   UNK N   1       0.393   0.107   0.307  0.00  0.00     0.238 C 
ENDROOT
BRANCH   1   2
HETATM    2  C   UNK N   1       0.526   1.398  -0.478  0.00  0.00     0.170 C 
HETATM    3  O   UNK N   1      -0.322   1.734  -1.290  0.00  0.00    -0.648 OA
BRANCH   2   4
HETATM    4  O   UNK N   1       1.588   2.200  -0.265  0.00  0.00    -0.775 OA
HETATM    5  H   UNK N   1       2.440   1.839  -0.117  0.00  0.00     0.167 HD
ENDBRANCH   2   4
ENDBRANCH   1   2
BRANCH   1   6
HETATM    6  N   UNK N   1       1.527  -0.773   0.008  0.00  0.00    -0.283 N 
HETATM    7  H   UNK N   1       1.474  -1.651  -0.508  0.00  0.00     0.189 HD
BRANCH   6   8
HETATM    8  O   UNK N   1       2.660  -0.235   0.526  0.00  0.00    -0.283 OA
BRANCH   8   9
HETATM    9  C   UNK N   1       3.657  -1.162   0.222  0.00  0.00     0.210 C 
BRANCH   9  10
HETATM   10  C   UNK N   1       4.969  -0.443  -0.015  0.00  0.00     0.099 C 
BRANCH  10  11
HETATM   11  S   UNK N   1       6.309  -1.660  -0.133  0.00  0.00    -0.180 SA
HETATM   12  H   UNK N   1       6.021  -2.987  -0.221  0.00  0.00     0.101 HD
ENDBRANCH  10  11
ENDBRANCH   9  10
ENDBRANCH   8   9
ENDBRANCH   6   8
ENDBRANCH   1   6
BRANCH   1  13
HETATM   13  C   UNK N   1      -0.895  -0.636   0.017  0.00  0.00     0.004 A 
HETATM   14  C   UNK N   1      -1.005  -1.963  -0.404  0.00  0.00     0.099 A 
HETATM   15  N   UNK N   1      -2.311  -2.293  -0.553  0.00  0.00    -0.365 N 
HETATM   16  C   UNK N   1      -3.015  -1.190  -0.236  0.00  0.00     0.043 A 
HETATM   17  H   UNK N   1      -2.673  -3.163  -0.837  0.00  0.00     0.165 HD
HETATM   18  C   UNK N   1      -4.398  -1.050  -0.260  0.00  0.00     0.030 A 
HETATM   19  C   UNK N   1      -2.186  -0.164   0.120  0.00  0.00     0.001 A 
HETATM   20  C   UNK N   1      -4.935   0.202   0.095  0.00  0.00     0.002 A 
HETATM   21  C   UNK N   1      -4.082   1.266   0.465  0.00  0.00     0.001 A 
HETATM   22  C   UNK N   1      -2.686   1.087   0.484  0.00  0.00     0.014 A 
ENDBRANCH   1  13
TORSDOF 8
