MODEL 1
REMARK VINA RESULT:      -5.5      0.000      0.000
REMARK  6 active torsions:
REMARK  status: ('A' for Active; 'I' for Inactive)
REMARK    1  A    between atoms: C_1  and  C_2 
REMARK    2  A    between atoms: C_1  and  C_5 
REMARK    3  A    between atoms: C_2  and  O_4 
REMARK    4  A    between atoms: C_5  and  C_6 
REMARK    5  A    between atoms: C_9  and  O_10 
REMARK    6  A    between atoms: C_13  and  O_14 
ROOT
HETATM    1  C   UNK N   1      21.386  13.419   9.685  0.00  0.00    -0.055 A 
HETATM    2  C   UNK N   1      20.255  14.217   9.741  0.00  0.00     0.046 A 
HETATM    3  C   UNK N   1      22.299  13.599   8.651  0.00  0.00     0.010 A 
HETATM    4  C   UNK N   1      19.980  15.211   8.797  0.00  0.00     0.102 A 
HETATM    5  C   UNK N   1      22.069  14.575   7.687  0.00  0.00     0.040 A 
HETATM    6  C   UNK N   1      20.933  15.401   7.715  0.00  0.00     0.101 A 
ENDROOT
BRANCH   1   7
HETATM    7  C   UNK N   1      21.565  12.392  10.755  0.00  0.00     0.049 C 
BRANCH   7   8
HETATM    8  C   UNK N   1      22.874  11.621  10.697  0.00  0.00     0.114 C 
BRANCH   8   9
HETATM    9  C   UNK N   1      23.755  11.996  11.850  0.00  0.00     0.139 C 
HETATM   10  O   UNK N   1      23.309  11.957  12.983  0.00  0.00    -0.650 OA
BRANCH   9  11
HETATM   11  O   UNK N   1      25.034  12.376  11.650  0.00  0.00    -0.776 OA
HETATM   12  H   UNK N   1      25.468  12.155  10.850  0.00  0.00     0.167 HD
ENDBRANCH   9  11
ENDBRANCH   8   9
ENDBRANCH   7   8
ENDBRANCH   1   7
BRANCH   4  13
HETATM   13  O   UNK N   1      18.818  15.880   9.037  0.00  0.00    -0.353 OA
HETATM   14  C   UNK N   1      18.524  17.214   9.079  0.00  0.00     0.210 C 
ENDBRANCH   4  13
BRANCH   6  15
HETATM   15  O   UNK N   1      20.874  16.299   6.692  0.00  0.00    -0.353 OA
HETATM   16  C   UNK N   1      21.669  17.366   6.383  0.00  0.00     0.210 C 
ENDBRANCH   6  15
TORSDOF 6
ENDMDL
MODEL 2
REMARK VINA RESULT:      -5.3      0.685      2.445
REMARK  6 active torsions:
REMARK  status: ('A' for Active; 'I' for Inactive)
REMARK    1  A    between atoms: C_1  and  C_2 
REMARK    2  A    between atoms: C_1  and  C_5 
REMARK    3  A    between atoms: C_2  and  O_4 
REMARK    4  A    between atoms: C_5  and  C_6 
REMARK    5  A    between atoms: C_9  and  O_10 
REMARK    6  A    between atoms: C_13  and  O_14 
ROOT
HETATM    1  C   UNK N   1      22.053  13.427   9.246  0.00  0.00    -0.055 A 
HETATM    2  C   UNK N   1      22.191  14.382   8.252  0.00  0.00     0.046 A 
HETATM    3  C   UNK N   1      20.897  13.407  10.021  0.00  0.00     0.010 A 
HETATM    4  C   UNK N   1      21.213  15.344   7.983  0.00  0.00     0.102 A 
HETATM    5  C   UNK N   1      19.894  14.345   9.790  0.00  0.00     0.040 A 
HETATM    6  C   UNK N   1      20.004  15.326   8.791  0.00  0.00     0.101 A 
ENDROOT
BRANCH   1   7
HETATM    7  C   UNK N   1      23.170  12.454   9.435  0.00  0.00     0.049 C 
BRANCH   7   8
HETATM    8  C   UNK N   1      23.000  11.493  10.600  0.00  0.00     0.114 C 
BRANCH   8   9
HETATM    9  C   UNK N   1      23.789  11.960  11.785  0.00  0.00     0.139 C 
HETATM   10  O   UNK N   1      23.266  11.974  12.886  0.00  0.00    -0.650 OA
BRANCH   9  11
HETATM   11  O   UNK N   1      25.068  12.366  11.650  0.00  0.00    -0.776 OA
HETATM   12  H   UNK N   1      25.479  12.347  10.809  0.00  0.00     0.167 HD
ENDBRANCH   9  11
ENDBRANCH   8   9
ENDBRANCH   7   8
ENDBRANCH   1   7
BRANCH   4  13
HETATM   13  O   UNK N   1      21.547  16.187   6.968  0.00  0.00    -0.353 OA
HETATM   14  C   UNK N   1      22.653  16.261   6.168  0.00  0.00     0.210 C 
ENDBRANCH   4  13
BRANCH   6  15
HETATM   15  O   UNK N   1      18.927  16.157   8.709  0.00  0.00    -0.353 OA
HETATM   16  C   UNK N   1      18.787  17.482   9.012  0.00  0.00     0.210 C 
ENDBRANCH   6  15
TORSDOF 6
ENDMDL
MODEL 3
REMARK VINA RESULT:      -5.1     17.145     19.468
REMARK  6 active torsions:
REMARK  status: ('A' for Active; 'I' for Inactive)
REMARK    1  A    between atoms: C_1  and  C_2 
REMARK    2  A    between atoms: C_1  and  C_5 
REMARK    3  A    between atoms: C_2  and  O_4 
REMARK    4  A    between atoms: C_5  and  C_6 
REMARK    5  A    between atoms: C_9  and  O_10 
REMARK    6  A    between atoms: C_13  and  O_14 
ROOT
HETATM    1  C   UNK N   1      25.717  25.235  -6.497  0.00  0.00    -0.055 A 
HETATM    2  C   UNK N   1      26.108  24.755  -5.257  0.00  0.00     0.046 A 
HETATM    3  C   UNK N   1      25.383  26.578  -6.637  0.00  0.00     0.010 A 
HETATM    4  C   UNK N   1      26.187  25.565  -4.121  0.00  0.00     0.102 A 
HETATM    5  C   UNK N   1      25.446  27.424  -5.533  0.00  0.00     0.040 A 
HETATM    6  C   UNK N   1      25.838  26.970  -4.264  0.00  0.00     0.101 A 
ENDROOT
BRANCH   1   7
HETATM    7  C   UNK N   1      25.674  24.267  -7.633  0.00  0.00     0.049 C 
BRANCH   7   8
HETATM    8  C   UNK N   1      26.059  22.839  -7.281  0.00  0.00     0.114 C 
BRANCH   8   9
HETATM    9  C   UNK N   1      25.059  21.873  -7.839  0.00  0.00     0.139 C 
HETATM   10  O   UNK N   1      23.943  22.266  -8.131  0.00  0.00    -0.650 OA
BRANCH   9  11
HETATM   11  O   UNK N   1      25.377  20.575  -8.023  0.00  0.00    -0.776 OA
HETATM   12  H   UNK N   1      25.765  20.297  -8.829  0.00  0.00     0.167 HD
ENDBRANCH   9  11
ENDBRANCH   8   9
ENDBRANCH   7   8
ENDBRANCH   1   7
BRANCH   4  13
HETATM   13  O   UNK N   1      26.592  24.897  -3.005  0.00  0.00    -0.353 OA
HETATM   14  C   UNK N   1      27.557  23.950  -2.809  0.00  0.00     0.210 C 
ENDBRANCH   4  13
BRANCH   6  15
HETATM   15  O   UNK N   1      25.841  27.938  -3.305  0.00  0.00    -0.353 OA
HETATM   16  C   UNK N   1      26.545  29.104  -3.204  0.00  0.00     0.210 C 
ENDBRANCH   6  15
TORSDOF 6
ENDMDL
MODEL 4
REMARK VINA RESULT:      -5.1      9.555     10.835
REMARK  6 active torsions:
REMARK  status: ('A' for Active; 'I' for Inactive)
REMARK    1  A    between atoms: C_1  and  C_2 
REMARK    2  A    between atoms: C_1  and  C_5 
REMARK    3  A    between atoms: C_2  and  O_4 
REMARK    4  A    between atoms: C_5  and  C_6 
REMARK    5  A    between atoms: C_9  and  O_10 
REMARK    6  A    between atoms: C_13  and  O_14 
ROOT
HETATM    1  C   UNK N   1      31.137  17.204   7.484  0.00  0.00    -0.055 A 
HETATM    2  C   UNK N   1      30.683  17.058   6.183  0.00  0.00     0.046 A 
HETATM    3  C   UNK N   1      30.358  17.896   8.407  0.00  0.00     0.010 A 
HETATM    4  C   UNK N   1      29.463  17.577   5.743  0.00  0.00     0.102 A 
HETATM    5  C   UNK N   1      29.135  18.431   8.015  0.00  0.00     0.040 A 
HETATM    6  C   UNK N   1      28.646  18.300   6.705  0.00  0.00     0.101 A 
ENDROOT
BRANCH   1   7
HETATM    7  C   UNK N   1      32.460  16.602   7.830  0.00  0.00     0.049 C 
BRANCH   7   8
HETATM    8  C   UNK N   1      33.348  17.461   8.715  0.00  0.00     0.114 C 
BRANCH   8   9
HETATM    9  C   UNK N   1      34.353  18.203   7.887  0.00  0.00     0.139 C 
HETATM   10  O   UNK N   1      34.501  17.906   6.714  0.00  0.00    -0.650 OA
BRANCH   9  11
HETATM   11  O   UNK N   1      35.097  19.193   8.422  0.00  0.00    -0.776 OA
HETATM   12  H   UNK N   1      34.702  19.814   9.002  0.00  0.00     0.167 HD
ENDBRANCH   9  11
ENDBRANCH   8   9
ENDBRANCH   7   8
ENDBRANCH   1   7
BRANCH   4  13
HETATM   13  O   UNK N   1      29.206  17.321   4.430  0.00  0.00    -0.353 OA
HETATM   14  C   UNK N   1      29.837  16.526   3.515  0.00  0.00     0.210 C 
ENDBRANCH   4  13
BRANCH   6  15
HETATM   15  O   UNK N   1      27.433  18.887   6.504  0.00  0.00    -0.353 OA
HETATM   16  C   UNK N   1      27.083  20.198   6.345  0.00  0.00     0.210 C 
ENDBRANCH   6  15
TORSDOF 6
ENDMDL
MODEL 5
REMARK VINA RESULT:      -5.0      9.955     12.146
REMARK  6 active torsions:
REMARK  status: ('A' for Active; 'I' for Inactive)
REMARK    1  A    between atoms: C_1  and  C_2 
REMARK    2  A    between atoms: C_1  and  C_5 
REMARK    3  A    between atoms: C_2  and  O_4 
REMARK    4  A    between atoms: C_5  and  C_6 
REMARK    5  A    between atoms: C_9  and  O_10 
REMARK    6  A    between atoms: C_13  and  O_14 
ROOT
HETATM    1  C   UNK N   1      31.539  16.933   8.167  0.00  0.00    -0.055 A 
HETATM    2  C   UNK N   1      31.916  15.706   8.690  0.00  0.00     0.046 A 
HETATM    3  C   UNK N   1      32.459  17.977   8.140  0.00  0.00     0.010 A 
HETATM    4  C   UNK N   1      33.194  15.460   9.201  0.00  0.00     0.102 A 
HETATM    5  C   UNK N   1      33.744  17.779   8.637  0.00  0.00     0.040 A 
HETATM    6  C   UNK N   1      34.157  16.549   9.174  0.00  0.00     0.101 A 
ENDROOT
BRANCH   1   7
HETATM    7  C   UNK N   1      30.144  17.069   7.652  0.00  0.00     0.049 C 
BRANCH   7   8
HETATM    8  C   UNK N   1      29.477  18.405   7.939  0.00  0.00     0.114 C 
BRANCH   8   9
HETATM    9  C   UNK N   1      28.816  18.382   9.283  0.00  0.00     0.139 C 
HETATM   10  O   UNK N   1      29.466  18.653  10.278  0.00  0.00    -0.650 OA
BRANCH   9  11
HETATM   11  O   UNK N   1      27.510  18.065   9.408  0.00  0.00    -0.776 OA
HETATM   12  H   UNK N   1      27.128  17.982  10.259  0.00  0.00     0.167 HD
ENDBRANCH   9  11
ENDBRANCH   8   9
ENDBRANCH   7   8
ENDBRANCH   1   7
BRANCH   4  13
HETATM   13  O   UNK N   1      33.356  14.190   9.666  0.00  0.00    -0.353 OA
HETATM   14  C   UNK N   1      34.214  13.189   9.307  0.00  0.00     0.210 C 
ENDBRANCH   4  13
BRANCH   6  15
HETATM   15  O   UNK N   1      35.447  16.540   9.612  0.00  0.00    -0.353 OA
HETATM   16  C   UNK N   1      35.980  16.252  10.837  0.00  0.00     0.210 C 
ENDBRANCH   6  15
TORSDOF 6
ENDMDL
MODEL 6
REMARK VINA RESULT:      -5.0      9.502     10.645
REMARK  6 active torsions:
REMARK  status: ('A' for Active; 'I' for Inactive)
REMARK    1  A    between atoms: C_1  and  C_2 
REMARK    2  A    between atoms: C_1  and  C_5 
REMARK    3  A    between atoms: C_2  and  O_4 
REMARK    4  A    between atoms: C_5  and  C_6 
REMARK    5  A    between atoms: C_9  and  O_10 
REMARK    6  A    between atoms: C_13  and  O_14 
ROOT
HETATM    1  C   UNK N   1      31.480  17.130   6.680  0.00  0.00    -0.055 A 
HETATM    2  C   UNK N   1      30.464  17.440   7.570  0.00  0.00     0.046 A 
HETATM    3  C   UNK N   1      31.232  17.186   5.312  0.00  0.00     0.010 A 
HETATM    4  C   UNK N   1      29.182  17.813   7.158  0.00  0.00     0.102 A 
HETATM    5  C   UNK N   1      29.970  17.552   4.853  0.00  0.00     0.040 A 
HETATM    6  C   UNK N   1      28.919  17.872   5.729  0.00  0.00     0.101 A 
ENDROOT
BRANCH   1   7
HETATM    7  C   UNK N   1      32.807  16.745   7.247  0.00  0.00     0.049 C 
BRANCH   7   8
HETATM    8  C   UNK N   1      33.911  17.774   7.061  0.00  0.00     0.114 C 
BRANCH   8   9
HETATM    9  C   UNK N   1      34.499  18.157   8.384  0.00  0.00     0.139 C 
HETATM   10  O   UNK N   1      35.256  19.111   8.452  0.00  0.00    -0.650 OA
BRANCH   9  11
HETATM   11  O   UNK N   1      34.203  17.463   9.502  0.00  0.00    -0.776 OA
HETATM   12  H   UNK N   1      34.472  16.569   9.583  0.00  0.00     0.167 HD
ENDBRANCH   9  11
ENDBRANCH   8   9
ENDBRANCH   7   8
ENDBRANCH   1   7
BRANCH   4  13
HETATM   13  O   UNK N   1      28.335  18.075   8.191  0.00  0.00    -0.353 OA
HETATM   14  C   UNK N   1      28.063  17.394   9.345  0.00  0.00     0.210 C 
ENDBRANCH   4  13
BRANCH   6  15
HETATM   15  O   UNK N   1      27.757  18.207   5.102  0.00  0.00    -0.353 OA
HETATM   16  C   UNK N   1      27.326  17.984   3.824  0.00  0.00     0.210 C 
ENDBRANCH   6  15
TORSDOF 6
ENDMDL
MODEL 7
REMARK VINA RESULT:      -4.9      1.994      5.876
REMARK  6 active torsions:
REMARK  status: ('A' for Active; 'I' for Inactive)
REMARK    1  A    between atoms: C_1  and  C_2 
REMARK    2  A    between atoms: C_1  and  C_5 
REMARK    3  A    between atoms: C_2  and  O_4 
REMARK    4  A    between atoms: C_5  and  C_6 
REMARK    5  A    between atoms: C_9  and  O_10 
REMARK    6  A    between atoms: C_13  and  O_14 
ROOT
HETATM    1  C   UNK N   1      20.666  15.061   8.433  0.00  0.00    -0.055 A 
HETATM    2  C   UNK N   1      21.849  14.673   7.824  0.00  0.00     0.046 A 
HETATM    3  C   UNK N   1      20.250  14.414   9.593  0.00  0.00     0.010 A 
HETATM    4  C   UNK N   1      22.659  13.649   8.323  0.00  0.00     0.102 A 
HETATM    5  C   UNK N   1      21.024  13.389  10.128  0.00  0.00     0.040 A 
HETATM    6  C   UNK N   1      22.227  12.972   9.535  0.00  0.00     0.101 A 
ENDROOT
BRANCH   1   7
HETATM    7  C   UNK N   1      19.890  16.169   7.800  0.00  0.00     0.049 C 
BRANCH   7   8
HETATM    8  C   UNK N   1      19.028  16.980   8.755  0.00  0.00     0.114 C 
BRANCH   8   9
HETATM    9  C   UNK N   1      19.642  18.325   9.001  0.00  0.00     0.139 C 
HETATM   10  O   UNK N   1      19.385  18.922  10.032  0.00  0.00    -0.650 OA
BRANCH   9  11
HETATM   11  O   UNK N   1      20.473  18.884   8.097  0.00  0.00    -0.776 OA
HETATM   12  H   UNK N   1      20.998  18.340   7.544  0.00  0.00     0.167 HD
ENDBRANCH   9  11
ENDBRANCH   8   9
ENDBRANCH   7   8
ENDBRANCH   1   7
BRANCH   4  13
HETATM   13  O   UNK N   1      23.775  13.427   7.574  0.00  0.00    -0.353 OA
HETATM   14  C   UNK N   1      25.106  13.522   7.869  0.00  0.00     0.210 C 
ENDBRANCH   4  13
BRANCH   6  15
HETATM   15  O   UNK N   1      22.848  11.956  10.196  0.00  0.00    -0.353 OA
HETATM   16  C   UNK N   1      23.269  11.849  11.492  0.00  0.00     0.210 C 
ENDBRANCH   6  15
TORSDOF 6
ENDMDL
MODEL 8
REMARK VINA RESULT:      -4.9     17.362     18.573
REMARK  6 active torsions:
REMARK  status: ('A' for Active; 'I' for Inactive)
REMARK    1  A    between atoms: C_1  and  C_2 
REMARK    2  A    between atoms: C_1  and  C_5 
REMARK    3  A    between atoms: C_2  and  O_4 
REMARK    4  A    between atoms: C_5  and  C_6 
REMARK    5  A    between atoms: C_9  and  O_10 
REMARK    6  A    between atoms: C_13  and  O_14 
ROOT
HETATM    1  C   UNK N   1      28.463  23.398  -4.824  0.00  0.00    -0.055 A 
HETATM    2  C   UNK N   1      27.880  23.272  -6.075  0.00  0.00     0.046 A 
HETATM    3  C   UNK N   1      27.881  24.237  -3.879  0.00  0.00     0.010 A 
HETATM    4  C   UNK N   1      26.718  23.957  -6.443  0.00  0.00     0.102 A 
HETATM    5  C   UNK N   1      26.723  24.940  -4.199  0.00  0.00     0.040 A 
HETATM    6  C   UNK N   1      26.108  24.835  -5.457  0.00  0.00     0.101 A 
ENDROOT
BRANCH   1   7
HETATM    7  C   UNK N   1      29.704  22.612  -4.555  0.00  0.00     0.049 C 
BRANCH   7   8
HETATM    8  C   UNK N   1      30.765  23.339  -3.744  0.00  0.00     0.114 C 
BRANCH   8   9
HETATM    9  C   UNK N   1      30.975  22.658  -2.426  0.00  0.00     0.139 C 
HETATM   10  O   UNK N   1      30.323  23.008  -1.458  0.00  0.00    -0.650 OA
BRANCH   9  11
HETATM   11  O   UNK N   1      31.876  21.662  -2.296  0.00  0.00    -0.776 OA
HETATM   12  H   UNK N   1      32.787  21.833  -2.435  0.00  0.00     0.167 HD
ENDBRANCH   9  11
ENDBRANCH   8   9
ENDBRANCH   7   8
ENDBRANCH   1   7
BRANCH   4  13
HETATM   13  O   UNK N   1      26.313  23.693  -7.716  0.00  0.00    -0.353 OA
HETATM   14  C   UNK N   1      26.879  22.959  -8.720  0.00  0.00     0.210 C 
ENDBRANCH   4  13
BRANCH   6  15
HETATM   15  O   UNK N   1      24.985  25.595  -5.590  0.00  0.00    -0.353 OA
HETATM   16  C   UNK N   1      24.816  26.949  -5.659  0.00  0.00     0.210 C 
ENDBRANCH   6  15
TORSDOF 6
ENDMDL
MODEL 9
REMARK VINA RESULT:      -4.9      7.401      8.901
REMARK  6 active torsions:
REMARK  status: ('A' for Active; 'I' for Inactive)
REMARK    1  A    between atoms: C_1  and  C_2 
REMARK    2  A    between atoms: C_1  and  C_5 
REMARK    3  A    between atoms: C_2  and  O_4 
REMARK    4  A    between atoms: C_5  and  C_6 
REMARK    5  A    between atoms: C_9  and  O_10 
REMARK    6  A    between atoms: C_13  and  O_14 
ROOT
HETATM    1  C   UNK N   1      25.117  19.867   3.519  0.00  0.00    -0.055 A 
HETATM    2  C   UNK N   1      24.056  20.619   3.040  0.00  0.00     0.046 A 
HETATM    3  C   UNK N   1      24.871  18.617   4.080  0.00  0.00     0.010 A 
HETATM    4  C   UNK N   1      22.730  20.181   3.094  0.00  0.00     0.102 A 
HETATM    5  C   UNK N   1      23.567  18.138   4.155  0.00  0.00     0.040 A 
HETATM    6  C   UNK N   1      22.470  18.876   3.680  0.00  0.00     0.101 A 
ENDROOT
BRANCH   1   7
HETATM    7  C   UNK N   1      26.488  20.447   3.404  0.00  0.00     0.049 C 
BRANCH   7   8
HETATM    8  C   UNK N   1      27.539  19.803   4.294  0.00  0.00     0.114 C 
BRANCH   8   9
HETATM    9  C   UNK N   1      27.514  20.415   5.661  0.00  0.00     0.139 C 
HETATM   10  O   UNK N   1      27.874  19.755   6.621  0.00  0.00    -0.650 OA
BRANCH   9  11
HETATM   11  O   UNK N   1      27.098  21.685   5.846  0.00  0.00    -0.776 OA
HETATM   12  H   UNK N   1      27.400  22.175   6.585  0.00  0.00     0.167 HD
ENDBRANCH   9  11
ENDBRANCH   8   9
ENDBRANCH   7   8
ENDBRANCH   1   7
BRANCH   4  13
HETATM   13  O   UNK N   1      21.844  21.072   2.570  0.00  0.00    -0.353 OA
HETATM   14  C   UNK N   1      20.805  20.920   1.694  0.00  0.00     0.210 C 
ENDBRANCH   4  13
BRANCH   6  15
HETATM   15  O   UNK N   1      21.271  18.249   3.836  0.00  0.00    -0.353 OA
HETATM   16  C   UNK N   1      20.589  17.391   3.020  0.00  0.00     0.210 C 
ENDBRANCH   6  15
TORSDOF 6
ENDMDL
