MODEL 1
REMARK VINA RESULT:      -5.9      0.000      0.000
REMARK  11 active torsions:
REMARK  status: ('A' for Active; 'I' for Inactive)
REMARK    1  A    between atoms: C_2  and  C_1 
REMARK    2  A    between atoms: C_1  and  O_18 
REMARK    3  A    between atoms: C_2  and  O_3 
REMARK    4  A    between atoms: C_5  and  C_6 
REMARK    5  A    between atoms: C_6  and  O_7 
REMARK    6  A    between atoms: C_6  and  C_8 
REMARK    7  A    between atoms: C_8  and  O_9 
REMARK    8  A    between atoms: C_8  and  C_10 
REMARK    9  A    between atoms: C_10  and  O_11 
REMARK   10  A    between atoms: C_12  and  N_13 
REMARK       I    between atoms: N_13  and  C_19 
REMARK   11  A    between atoms: C_14  and  O_15 
ROOT
HETATM    1  C   UNK N   1      34.430  16.821   8.769  0.00  0.00     0.253 C 
HETATM    2  O   UNK N   1      35.561  16.569   9.596  0.00  0.00    -0.336 OA
HETATM    3  C   UNK N   1      35.613  15.261  10.155  0.00  0.00     0.182 C 
HETATM    4  C   UNK N   1      35.238  14.115   9.192  0.00  0.00     0.145 C 
HETATM    5  C   UNK N   1      35.248  14.652   7.768  0.00  0.00     0.149 C 
HETATM    6  C   UNK N   1      34.176  15.717   7.728  0.00  0.00     0.114 C 
ENDROOT
BRANCH   3   7
HETATM    7  C   UNK N   1      34.987  15.124  11.557  0.00  0.00     0.180 C 
BRANCH   7   8
HETATM    8  O   UNK N   1      33.843  14.328  11.454  0.00  0.00    -0.390 OA
HETATM    9  H   UNK N   1      32.972  14.741  11.337  0.00  0.00     0.210 HD
ENDBRANCH   7   8
BRANCH   7  10
HETATM   10  C   UNK N   1      35.932  14.506  12.601  0.00  0.00     0.173 C 
BRANCH  10  11
HETATM   11  O   UNK N   1      37.166  14.226  12.010  0.00  0.00    -0.391 OA
HETATM   12  H   UNK N   1      37.999  14.670  12.234  0.00  0.00     0.210 HD
ENDBRANCH  10  11
BRANCH  10  13
HETATM   13  C   UNK N   1      35.382  13.201  13.155  0.00  0.00     0.198 C 
BRANCH  13  14
HETATM   14  O   UNK N   1      34.697  13.426  14.348  0.00  0.00    -0.398 OA
HETATM   15  H   UNK N   1      34.534  14.084  15.041  0.00  0.00     0.209 HD
ENDBRANCH  13  14
ENDBRANCH  10  13
ENDBRANCH   7  10
ENDBRANCH   3   7
BRANCH   4  16
HETATM   16  N   UNK N   1      36.167  13.018   9.366  0.00  0.00    -0.352 N 
HETATM   17  C   UNK N   1      35.803  11.798   9.830  0.00  0.00     0.214 C 
HETATM   18  O   UNK N   1      34.645  11.568  10.153  0.00  0.00    -0.274 OA
HETATM   19  C   UNK N   1      36.826  10.727   9.971  0.00  0.00     0.117 C 
HETATM   20  H   UNK N   1      37.113  13.167   9.135  0.00  0.00     0.163 HD
ENDBRANCH   4  16
BRANCH   1  21
HETATM   21  C   UNK N   1      34.688  18.117   8.038  0.00  0.00     0.205 C 
HETATM   22  O   UNK N   1      34.339  18.238   6.875  0.00  0.00    -0.646 OA
BRANCH  21  23
HETATM   23  O   UNK N   1      35.288  19.156   8.658  0.00  0.00    -0.772 OA
HETATM   24  H   UNK N   1      35.551  19.912   8.170  0.00  0.00     0.167 HD
ENDBRANCH  21  23
ENDBRANCH   1  21
BRANCH   1  25
HETATM   25  O   UNK N   1      33.287  16.976   9.558  0.00  0.00    -0.357 OA
HETATM   26  H   UNK N   1      32.389  16.667   9.756  0.00  0.00     0.213 HD
ENDBRANCH   1  25
BRANCH   5  27
HETATM   27  O   UNK N   1      34.932  13.664   6.837  0.00  0.00    -0.393 OA
HETATM   28  H   UNK N   1      34.340  12.920   7.030  0.00  0.00     0.210 HD
ENDBRANCH   5  27
TORSDOF 11
ENDMDL
MODEL 2
REMARK VINA RESULT:      -5.6      1.468      1.741
REMARK  11 active torsions:
REMARK  status: ('A' for Active; 'I' for Inactive)
REMARK    1  A    between atoms: C_2  and  C_1 
REMARK    2  A    between atoms: C_1  and  O_18 
REMARK    3  A    between atoms: C_2  and  O_3 
REMARK    4  A    between atoms: C_5  and  C_6 
REMARK    5  A    between atoms: C_6  and  O_7 
REMARK    6  A    between atoms: C_6  and  C_8 
REMARK    7  A    between atoms: C_8  and  O_9 
REMARK    8  A    between atoms: C_8  and  C_10 
REMARK    9  A    between atoms: C_10  and  O_11 
REMARK   10  A    between atoms: C_12  and  N_13 
REMARK       I    between atoms: N_13  and  C_19 
REMARK   11  A    between atoms: C_14  and  O_15 
ROOT
HETATM    1  C   UNK N   1      33.907  16.765   8.353  0.00  0.00     0.253 C 
HETATM    2  O   UNK N   1      35.068  16.197   8.949  0.00  0.00    -0.336 OA
HETATM    3  C   UNK N   1      34.850  14.964   9.626  0.00  0.00     0.182 C 
HETATM    4  C   UNK N   1      33.932  13.962   8.897  0.00  0.00     0.145 C 
HETATM    5  C   UNK N   1      33.772  14.411   7.451  0.00  0.00     0.149 C 
HETATM    6  C   UNK N   1      33.095  15.760   7.517  0.00  0.00     0.114 C 
ENDROOT
BRANCH   3   7
HETATM    7  C   UNK N   1      34.556  15.091  11.134  0.00  0.00     0.180 C 
BRANCH   7   8
HETATM    8  O   UNK N   1      34.199  13.832  11.623  0.00  0.00    -0.390 OA
HETATM    9  H   UNK N   1      34.877  13.245  11.994  0.00  0.00     0.210 HD
ENDBRANCH   7   8
BRANCH   7  10
HETATM   10  C   UNK N   1      35.743  15.625  11.955  0.00  0.00     0.173 C 
BRANCH  10  11
HETATM   11  O   UNK N   1      36.790  15.970  11.096  0.00  0.00    -0.391 OA
HETATM   12  H   UNK N   1      36.682  16.439  10.254  0.00  0.00     0.210 HD
ENDBRANCH  10  11
BRANCH  10  13
HETATM   13  C   UNK N   1      36.271  14.580  12.925  0.00  0.00     0.198 C 
BRANCH  13  14
HETATM   14  O   UNK N   1      37.182  13.738  12.289  0.00  0.00    -0.398 OA
HETATM   15  H   UNK N   1      37.795  13.676  11.541  0.00  0.00     0.209 HD
ENDBRANCH  13  14
ENDBRANCH  10  13
ENDBRANCH   7  10
ENDBRANCH   3   7
BRANCH   4  16
HETATM   16  N   UNK N   1      34.498  12.633   8.994  0.00  0.00    -0.352 N 
HETATM   17  C   UNK N   1      33.749  11.505   9.065  0.00  0.00     0.214 C 
HETATM   18  O   UNK N   1      32.527  11.562   9.071  0.00  0.00    -0.274 OA
HETATM   19  C   UNK N   1      34.419  10.180   9.156  0.00  0.00     0.117 C 
HETATM   20  H   UNK N   1      35.479  12.544   9.010  0.00  0.00     0.163 HD
ENDBRANCH   4  16
BRANCH   1  21
HETATM   21  C   UNK N   1      34.369  17.879   7.444  0.00  0.00     0.205 C 
HETATM   22  O   UNK N   1      34.936  18.852   7.916  0.00  0.00    -0.646 OA
BRANCH  21  23
HETATM   23  O   UNK N   1      34.177  17.811   6.109  0.00  0.00    -0.772 OA
HETATM   24  H   UNK N   1      34.226  18.585   5.583  0.00  0.00     0.167 HD
ENDBRANCH  21  23
ENDBRANCH   1  21
BRANCH   1  25
HETATM   25  O   UNK N   1      33.082  17.310   9.341  0.00  0.00    -0.357 OA
HETATM   26  H   UNK N   1      32.244  17.752   9.544  0.00  0.00     0.213 HD
ENDBRANCH   1  25
BRANCH   5  27
HETATM   27  O   UNK N   1      32.964  13.540   6.722  0.00  0.00    -0.393 OA
HETATM   28  H   UNK N   1      33.285  12.707   6.342  0.00  0.00     0.210 HD
ENDBRANCH   5  27
TORSDOF 11
ENDMDL
MODEL 3
REMARK VINA RESULT:      -5.5     14.042     15.665
REMARK  11 active torsions:
REMARK  status: ('A' for Active; 'I' for Inactive)
REMARK    1  A    between atoms: C_2  and  C_1 
REMARK    2  A    between atoms: C_1  and  O_18 
REMARK    3  A    between atoms: C_2  and  O_3 
REMARK    4  A    between atoms: C_5  and  C_6 
REMARK    5  A    between atoms: C_6  and  O_7 
REMARK    6  A    between atoms: C_6  and  C_8 
REMARK    7  A    between atoms: C_8  and  O_9 
REMARK    8  A    between atoms: C_8  and  C_10 
REMARK    9  A    between atoms: C_10  and  O_11 
REMARK   10  A    between atoms: C_12  and  N_13 
REMARK       I    between atoms: N_13  and  C_19 
REMARK   11  A    between atoms: C_14  and  O_15 
ROOT
HETATM    1  C   UNK N   1      21.213  19.475   3.144  0.00  0.00     0.253 C 
HETATM    2  O   UNK N   1      22.361  18.655   3.339  0.00  0.00    -0.336 OA
HETATM    3  C   UNK N   1      22.101  17.403   3.964  0.00  0.00     0.182 C 
HETATM    4  C   UNK N   1      20.844  16.662   3.463  0.00  0.00     0.145 C 
HETATM    5  C   UNK N   1      20.387  17.302   2.159  0.00  0.00     0.149 C 
HETATM    6  C   UNK N   1      20.027  18.727   2.511  0.00  0.00     0.114 C 
ENDROOT
BRANCH   3   7
HETATM    7  C   UNK N   1      22.258  17.394   5.497  0.00  0.00     0.180 C 
BRANCH   7   8
HETATM    8  O   UNK N   1      23.069  18.471   5.865  0.00  0.00    -0.390 OA
HETATM    9  H   UNK N   1      23.335  19.128   5.201  0.00  0.00     0.210 HD
ENDBRANCH   7   8
BRANCH   7  10
HETATM   10  C   UNK N   1      20.924  17.493   6.258  0.00  0.00     0.173 C 
BRANCH  10  11
HETATM   11  O   UNK N   1      20.929  18.634   7.064  0.00  0.00    -0.391 OA
HETATM   12  H   UNK N   1      20.879  19.545   6.734  0.00  0.00     0.210 HD
ENDBRANCH  10  11
BRANCH  10  13
HETATM   13  C   UNK N   1      20.702  16.292   7.163  0.00  0.00     0.198 C 
BRANCH  13  14
HETATM   14  O   UNK N   1      19.499  15.660   6.850  0.00  0.00    -0.398 OA
HETATM   15  H   UNK N   1      18.710  15.252   7.237  0.00  0.00     0.209 HD
ENDBRANCH  13  14
ENDBRANCH  10  13
ENDBRANCH   7  10
ENDBRANCH   3   7
BRANCH   4  16
HETATM   16  N   UNK N   1      21.148  15.255   3.301  0.00  0.00    -0.352 N 
HETATM   17  C   UNK N   1      20.279  14.263   3.614  0.00  0.00     0.214 C 
HETATM   18  O   UNK N   1      19.177  14.516   4.081  0.00  0.00    -0.274 OA
HETATM   19  C   UNK N   1      20.676  12.844   3.408  0.00  0.00     0.117 C 
HETATM   20  H   UNK N   1      22.032  15.007   2.945  0.00  0.00     0.163 HD
ENDBRANCH   4  16
BRANCH   1  21
HETATM   21  C   UNK N   1      21.617  20.599   2.220  0.00  0.00     0.205 C 
HETATM   22  O   UNK N   1      21.480  20.473   1.014  0.00  0.00    -0.646 OA
BRANCH  21  23
HETATM   23  O   UNK N   1      22.115  21.755   2.709  0.00  0.00    -0.772 OA
HETATM   24  H   UNK N   1      21.555  22.493   2.848  0.00  0.00     0.167 HD
ENDBRANCH  21  23
ENDBRANCH   1  21
BRANCH   1  25
HETATM   25  O   UNK N   1      20.809  20.025   4.363  0.00  0.00    -0.357 OA
HETATM   26  H   UNK N   1      20.074  20.193   4.974  0.00  0.00     0.213 HD
ENDBRANCH   1  25
BRANCH   5  27
HETATM   27  O   UNK N   1      19.259  16.671   1.637  0.00  0.00    -0.393 OA
HETATM   28  H   UNK N   1      18.620  16.187   2.183  0.00  0.00     0.210 HD
ENDBRANCH   5  27
TORSDOF 11
ENDMDL
MODEL 4
REMARK VINA RESULT:      -5.4     16.503     19.844
REMARK  11 active torsions:
REMARK  status: ('A' for Active; 'I' for Inactive)
REMARK    1  A    between atoms: C_2  and  C_1 
REMARK    2  A    between atoms: C_1  and  O_18 
REMARK    3  A    between atoms: C_2  and  O_3 
REMARK    4  A    between atoms: C_5  and  C_6 
REMARK    5  A    between atoms: C_6  and  O_7 
REMARK    6  A    between atoms: C_6  and  C_8 
REMARK    7  A    between atoms: C_8  and  O_9 
REMARK    8  A    between atoms: C_8  and  C_10 
REMARK    9  A    between atoms: C_10  and  O_11 
REMARK   10  A    between atoms: C_12  and  N_13 
REMARK       I    between atoms: N_13  and  C_19 
REMARK   11  A    between atoms: C_14  and  O_15 
ROOT
HETATM    1  C   UNK N   1      26.533  27.880  -3.460  0.00  0.00     0.253 C 
HETATM    2  O   UNK N   1      27.758  27.225  -3.767  0.00  0.00    -0.336 OA
HETATM    3  C   UNK N   1      27.620  25.892  -4.248  0.00  0.00     0.182 C 
HETATM    4  C   UNK N   1      26.486  25.673  -5.270  0.00  0.00     0.145 C 
HETATM    5  C   UNK N   1      26.021  27.030  -5.781  0.00  0.00     0.149 C 
HETATM    6  C   UNK N   1      25.476  27.754  -4.572  0.00  0.00     0.114 C 
ENDROOT
BRANCH   3   7
HETATM    7  C   UNK N   1      27.701  24.797  -3.166  0.00  0.00     0.180 C 
BRANCH   7   8
HETATM    8  O   UNK N   1      26.569  23.984  -3.273  0.00  0.00    -0.390 OA
HETATM    9  H   UNK N   1      26.328  23.389  -2.546  0.00  0.00     0.210 HD
ENDBRANCH   7   8
BRANCH   7  10
HETATM   10  C   UNK N   1      28.957  23.915  -3.269  0.00  0.00     0.173 C 
BRANCH  10  11
HETATM   11  O   UNK N   1      28.915  23.175  -4.453  0.00  0.00    -0.391 OA
HETATM   12  H   UNK N   1      29.661  22.673  -4.818  0.00  0.00     0.210 HD
ENDBRANCH  10  11
BRANCH  10  13
HETATM   13  C   UNK N   1      29.049  22.930  -2.114  0.00  0.00     0.198 C 
BRANCH  13  14
HETATM   14  O   UNK N   1      30.249  23.096  -1.424  0.00  0.00    -0.398 OA
HETATM   15  H   UNK N   1      30.627  23.331  -0.563  0.00  0.00     0.209 HD
ENDBRANCH  13  14
ENDBRANCH  10  13
ENDBRANCH   7  10
ENDBRANCH   3   7
BRANCH   4  16
HETATM   16  N   UNK N   1      26.963  24.823  -6.341  0.00  0.00    -0.352 N 
HETATM   17  C   UNK N   1      26.373  23.652  -6.684  0.00  0.00     0.214 C 
HETATM   18  O   UNK N   1      25.396  23.238  -6.074  0.00  0.00    -0.274 OA
HETATM   19  C   UNK N   1      26.930  22.847  -7.804  0.00  0.00     0.117 C 
HETATM   20  H   UNK N   1      27.758  25.111  -6.846  0.00  0.00     0.163 HD
ENDBRANCH   4  16
BRANCH   1  21
HETATM   21  C   UNK N   1      26.844  29.344  -3.261  0.00  0.00     0.205 C 
HETATM   22  O   UNK N   1      27.908  29.677  -2.763  0.00  0.00    -0.646 OA
BRANCH  21  23
HETATM   23  O   UNK N   1      25.968  30.299  -3.641  0.00  0.00    -0.772 OA
HETATM   24  H   UNK N   1      25.430  30.730  -3.006  0.00  0.00     0.167 HD
ENDBRANCH  21  23
ENDBRANCH   1  21
BRANCH   1  25
HETATM   25  O   UNK N   1      26.006  27.372  -2.269  0.00  0.00    -0.357 OA
HETATM   26  H   UNK N   1      26.153  27.194  -1.328  0.00  0.00     0.213 HD
ENDBRANCH   1  25
BRANCH   5  27
HETATM   27  O   UNK N   1      25.003  26.909  -6.726  0.00  0.00    -0.393 OA
HETATM   28  H   UNK N   1      24.071  27.097  -6.532  0.00  0.00     0.210 HD
ENDBRANCH   5  27
TORSDOF 11
ENDMDL
MODEL 5
REMARK VINA RESULT:      -5.3      2.794      4.277
REMARK  11 active torsions:
REMARK  status: ('A' for Active; 'I' for Inactive)
REMARK    1  A    between atoms: C_2  and  C_1 
REMARK    2  A    between atoms: C_1  and  O_18 
REMARK    3  A    between atoms: C_2  and  O_3 
REMARK    4  A    between atoms: C_5  and  C_6 
REMARK    5  A    between atoms: C_6  and  O_7 
REMARK    6  A    between atoms: C_6  and  C_8 
REMARK    7  A    between atoms: C_8  and  O_9 
REMARK    8  A    between atoms: C_8  and  C_10 
REMARK    9  A    between atoms: C_10  and  O_11 
REMARK   10  A    between atoms: C_12  and  N_13 
REMARK       I    between atoms: N_13  and  C_19 
REMARK   11  A    between atoms: C_14  and  O_15 
ROOT
HETATM    1  C   UNK N   1      35.500  14.740  11.765  0.00  0.00     0.253 C 
HETATM    2  O   UNK N   1      36.177  14.889  13.009  0.00  0.00    -0.336 OA
HETATM    3  C   UNK N   1      36.380  13.677  13.728  0.00  0.00     0.182 C 
HETATM    4  C   UNK N   1      36.829  12.471  12.877  0.00  0.00     0.145 C 
HETATM    5  C   UNK N   1      37.292  12.978  11.518  0.00  0.00     0.149 C 
HETATM    6  C   UNK N   1      36.074  13.615  10.887  0.00  0.00     0.114 C 
ENDROOT
BRANCH   3   7
HETATM    7  C   UNK N   1      35.282  13.337  14.756  0.00  0.00     0.180 C 
BRANCH   7   8
HETATM    8  O   UNK N   1      34.560  12.237  14.284  0.00  0.00    -0.390 OA
HETATM    9  H   UNK N   1      33.971  11.751  14.883  0.00  0.00     0.210 HD
ENDBRANCH   7   8
BRANCH   7  10
HETATM   10  C   UNK N   1      35.825  13.012  16.158  0.00  0.00     0.173 C 
BRANCH  10  11
HETATM   11  O   UNK N   1      36.001  11.632  16.284  0.00  0.00    -0.391 OA
HETATM   12  H   UNK N   1      36.692  11.209  16.817  0.00  0.00     0.210 HD
ENDBRANCH  10  11
BRANCH  10  13
HETATM   13  C   UNK N   1      34.863  13.454  17.250  0.00  0.00     0.198 C 
BRANCH  13  14
HETATM   14  O   UNK N   1      35.528  14.219  18.206  0.00  0.00    -0.398 OA
HETATM   15  H   UNK N   1      36.077  14.165  19.003  0.00  0.00     0.209 HD
ENDBRANCH  13  14
ENDBRANCH  10  13
ENDBRANCH   7  10
ENDBRANCH   3   7
BRANCH   4  16
HETATM   16  N   UNK N   1      37.877  11.756  13.576  0.00  0.00    -0.352 N 
HETATM   17  C   UNK N   1      37.741  10.484  14.025  0.00  0.00     0.214 C 
HETATM   18  O   UNK N   1      36.690   9.874  13.877  0.00  0.00    -0.274 OA
HETATM   19  C   UNK N   1      38.875   9.826  14.727  0.00  0.00     0.117 C 
HETATM   20  H   UNK N   1      38.733  12.217  13.731  0.00  0.00     0.163 HD
ENDBRANCH   4  16
BRANCH   1  21
HETATM   21  C   UNK N   1      35.640  16.046  11.019  0.00  0.00     0.205 C 
HETATM   22  O   UNK N   1      36.742  16.420  10.651  0.00  0.00    -0.646 OA
BRANCH  21  23
HETATM   23  O   UNK N   1      34.558  16.804  10.737  0.00  0.00    -0.772 OA
HETATM   24  H   UNK N   1      34.527  17.703  11.000  0.00  0.00     0.167 HD
ENDBRANCH  21  23
ENDBRANCH   1  21
BRANCH   1  25
HETATM   25  O   UNK N   1      34.142  14.499  11.987  0.00  0.00    -0.357 OA
HETATM   26  H   UNK N   1      33.478  13.967  12.454  0.00  0.00     0.213 HD
ENDBRANCH   1  25
BRANCH   5  27
HETATM   27  O   UNK N   1      37.730  11.940  10.697  0.00  0.00    -0.393 OA
HETATM   28  H   UNK N   1      38.114  12.083   9.817  0.00  0.00     0.210 HD
ENDBRANCH   5  27
TORSDOF 11
ENDMDL
MODEL 6
REMARK VINA RESULT:      -5.2      4.700      7.589
REMARK  11 active torsions:
REMARK  status: ('A' for Active; 'I' for Inactive)
REMARK    1  A    between atoms: C_2  and  C_1 
REMARK    2  A    between atoms: C_1  and  O_18 
REMARK    3  A    between atoms: C_2  and  O_3 
REMARK    4  A    between atoms: C_5  and  C_6 
REMARK    5  A    between atoms: C_6  and  O_7 
REMARK    6  A    between atoms: C_6  and  C_8 
REMARK    7  A    between atoms: C_8  and  O_9 
REMARK    8  A    between atoms: C_8  and  C_10 
REMARK    9  A    between atoms: C_10  and  O_11 
REMARK   10  A    between atoms: C_12  and  N_13 
REMARK       I    between atoms: N_13  and  C_19 
REMARK   11  A    between atoms: C_14  and  O_15 
ROOT
HETATM    1  C   UNK N   1      29.332  17.945   8.198  0.00  0.00     0.253 C 
HETATM    2  O   UNK N   1      29.272  16.819   7.329  0.00  0.00    -0.336 OA
HETATM    3  C   UNK N   1      30.314  16.754   6.362  0.00  0.00     0.182 C 
HETATM    4  C   UNK N   1      31.723  17.105   6.883  0.00  0.00     0.145 C 
HETATM    5  C   UNK N   1      31.698  17.089   8.405  0.00  0.00     0.149 C 
HETATM    6  C   UNK N   1      30.726  18.174   8.806  0.00  0.00     0.114 C 
ENDROOT
BRANCH   3   7
HETATM    7  C   UNK N   1      29.979  17.392   4.999  0.00  0.00     0.180 C 
BRANCH   7   8
HETATM    8  O   UNK N   1      31.152  17.929   4.461  0.00  0.00    -0.390 OA
HETATM    9  H   UNK N   1      32.016  17.590   4.747  0.00  0.00     0.210 HD
ENDBRANCH   7   8
BRANCH   7  10
HETATM   10  C   UNK N   1      29.372  16.407   3.985  0.00  0.00     0.173 C 
BRANCH  10  11
HETATM   11  O   UNK N   1      28.938  15.258   4.650  0.00  0.00    -0.391 OA
HETATM   12  H   UNK N   1      28.050  14.874   4.569  0.00  0.00     0.210 HD
ENDBRANCH  10  11
BRANCH  10  13
HETATM   13  C   UNK N   1      30.390  15.976   2.940  0.00  0.00     0.198 C 
BRANCH  13  14
HETATM   14  O   UNK N   1      31.459  15.315   3.543  0.00  0.00    -0.398 OA
HETATM   15  H   UNK N   1      32.367  15.431   3.863  0.00  0.00     0.209 HD
ENDBRANCH  13  14
ENDBRANCH  10  13
ENDBRANCH   7  10
ENDBRANCH   3   7
BRANCH   4  16
HETATM   16  N   UNK N   1      32.682  16.164   6.344  0.00  0.00    -0.352 N 
HETATM   17  C   UNK N   1      33.960  16.494   6.036  0.00  0.00     0.214 C 
HETATM   18  O   UNK N   1      34.366  17.639   6.182  0.00  0.00    -0.274 OA
HETATM   19  C   UNK N   1      34.879  15.457   5.493  0.00  0.00     0.117 C 
HETATM   20  H   UNK N   1      32.390  15.235   6.194  0.00  0.00     0.163 HD
ENDBRANCH   4  16
BRANCH   1  21
HETATM   21  C   UNK N   1      28.355  17.696   9.322  0.00  0.00     0.205 C 
HETATM   22  O   UNK N   1      28.613  16.866  10.179  0.00  0.00    -0.646 OA
BRANCH  21  23
HETATM   23  O   UNK N   1      27.200  18.392   9.406  0.00  0.00    -0.772 OA
HETATM   24  H   UNK N   1      26.826  18.784   8.641  0.00  0.00     0.167 HD
ENDBRANCH  21  23
ENDBRANCH   1  21
BRANCH   1  25
HETATM   25  O   UNK N   1      28.937  19.097   7.513  0.00  0.00    -0.357 OA
HETATM   26  H   UNK N   1      29.171  19.770   6.855  0.00  0.00     0.213 HD
ENDBRANCH   1  25
BRANCH   5  27
HETATM   27  O   UNK N   1      32.947  17.383   8.949  0.00  0.00    -0.393 OA
HETATM   28  H   UNK N   1      33.315  18.280   8.983  0.00  0.00     0.210 HD
ENDBRANCH   5  27
TORSDOF 11
ENDMDL
MODEL 7
REMARK VINA RESULT:      -5.2      1.699      2.427
REMARK  11 active torsions:
REMARK  status: ('A' for Active; 'I' for Inactive)
REMARK    1  A    between atoms: C_2  and  C_1 
REMARK    2  A    between atoms: C_1  and  O_18 
REMARK    3  A    between atoms: C_2  and  O_3 
REMARK    4  A    between atoms: C_5  and  C_6 
REMARK    5  A    between atoms: C_6  and  O_7 
REMARK    6  A    between atoms: C_6  and  C_8 
REMARK    7  A    between atoms: C_8  and  O_9 
REMARK    8  A    between atoms: C_8  and  C_10 
REMARK    9  A    between atoms: C_10  and  O_11 
REMARK   10  A    between atoms: C_12  and  N_13 
REMARK       I    between atoms: N_13  and  C_19 
REMARK   11  A    between atoms: C_14  and  O_15 
ROOT
HETATM    1  C   UNK N   1      34.618  15.358  10.585  0.00  0.00     0.253 C 
HETATM    2  O   UNK N   1      35.666  15.273  11.545  0.00  0.00    -0.336 OA
HETATM    3  C   UNK N   1      35.925  13.961  12.033  0.00  0.00     0.182 C 
HETATM    4  C   UNK N   1      35.921  12.846  10.967  0.00  0.00     0.145 C 
HETATM    5  C   UNK N   1      35.992  13.489   9.589  0.00  0.00     0.149 C 
HETATM    6  C   UNK N   1      34.733  14.314   9.460  0.00  0.00     0.114 C 
ENDROOT
BRANCH   3   7
HETATM    7  C   UNK N   1      35.174  13.587  13.326  0.00  0.00     0.180 C 
BRANCH   7   8
HETATM    8  O   UNK N   1      34.494  12.385  13.111  0.00  0.00    -0.390 OA
HETATM    9  H   UNK N   1      34.874  11.711  12.524  0.00  0.00     0.210 HD
ENDBRANCH   7   8
BRANCH   7  10
HETATM   10  C   UNK N   1      36.089  13.428  14.552  0.00  0.00     0.173 C 
BRANCH  10  11
HETATM   11  O   UNK N   1      37.235  12.715  14.192  0.00  0.00    -0.391 OA
HETATM   12  H   UNK N   1      37.795  12.919  13.427  0.00  0.00     0.210 HD
ENDBRANCH  10  11
BRANCH  10  13
HETATM   13  C   UNK N   1      35.403  12.660  15.671  0.00  0.00     0.198 C 
BRANCH  13  14
HETATM   14  O   UNK N   1      34.096  13.111  15.843  0.00  0.00    -0.398 OA
HETATM   15  H   UNK N   1      33.240  12.887  16.240  0.00  0.00     0.209 HD
ENDBRANCH  13  14
ENDBRANCH  10  13
ENDBRANCH   7  10
ENDBRANCH   3   7
BRANCH   4  16
HETATM   16  N   UNK N   1      37.032  11.949  11.207  0.00  0.00    -0.352 N 
HETATM   17  C   UNK N   1      36.882  10.624  11.450  0.00  0.00     0.214 C 
HETATM   18  O   UNK N   1      35.769  10.116  11.501  0.00  0.00    -0.274 OA
HETATM   19  C   UNK N   1      38.082   9.776  11.679  0.00  0.00     0.117 C 
HETATM   20  H   UNK N   1      37.943  12.321  11.192  0.00  0.00     0.163 HD
ENDBRANCH   4  16
BRANCH   1  21
HETATM   21  C   UNK N   1      34.686  16.735   9.968  0.00  0.00     0.205 C 
HETATM   22  O   UNK N   1      35.670  17.434  10.148  0.00  0.00    -0.646 OA
BRANCH  21  23
HETATM   23  O   UNK N   1      33.676  17.203   9.202  0.00  0.00    -0.772 OA
HETATM   24  H   UNK N   1      32.890  16.703   9.096  0.00  0.00     0.167 HD
ENDBRANCH  21  23
ENDBRANCH   1  21
BRANCH   1  25
HETATM   25  O   UNK N   1      33.380  15.215  11.217  0.00  0.00    -0.357 OA
HETATM   26  H   UNK N   1      32.803  15.495  11.944  0.00  0.00     0.213 HD
ENDBRANCH   1  25
BRANCH   5  27
HETATM   27  O   UNK N   1      36.009  12.536   8.571  0.00  0.00    -0.393 OA
HETATM   28  H   UNK N   1      35.501  11.710   8.607  0.00  0.00     0.210 HD
ENDBRANCH   5  27
TORSDOF 11
ENDMDL
MODEL 8
REMARK VINA RESULT:      -5.2     13.345     14.450
REMARK  11 active torsions:
REMARK  status: ('A' for Active; 'I' for Inactive)
REMARK    1  A    between atoms: C_2  and  C_1 
REMARK    2  A    between atoms: C_1  and  O_18 
REMARK    3  A    between atoms: C_2  and  O_3 
REMARK    4  A    between atoms: C_5  and  C_6 
REMARK    5  A    between atoms: C_6  and  O_7 
REMARK    6  A    between atoms: C_6  and  C_8 
REMARK    7  A    between atoms: C_8  and  O_9 
REMARK    8  A    between atoms: C_8  and  C_10 
REMARK    9  A    between atoms: C_10  and  O_11 
REMARK   10  A    between atoms: C_12  and  N_13 
REMARK       I    between atoms: N_13  and  C_19 
REMARK   11  A    between atoms: C_14  and  O_15 
ROOT
HETATM    1  C   UNK N   1      19.525  16.508   8.693  0.00  0.00     0.253 C 
HETATM    2  O   UNK N   1      20.863  16.243   9.100  0.00  0.00    -0.336 OA
HETATM    3  C   UNK N   1      21.425  15.049   8.566  0.00  0.00     0.182 C 
HETATM    4  C   UNK N   1      21.130  14.791   7.074  0.00  0.00     0.145 C 
HETATM    5  C   UNK N   1      20.601  16.075   6.451  0.00  0.00     0.149 C 
HETATM    6  C   UNK N   1      19.309  16.375   7.176  0.00  0.00     0.114 C 
ENDROOT
BRANCH   3   7
HETATM    7  C   UNK N   1      21.269  13.800   9.455  0.00  0.00     0.180 C 
BRANCH   7   8
HETATM    8  O   UNK N   1      20.730  12.769   8.680  0.00  0.00    -0.390 OA
HETATM    9  H   UNK N   1      19.969  12.264   9.007  0.00  0.00     0.210 HD
ENDBRANCH   7   8
BRANCH   7  10
HETATM   10  C   UNK N   1      22.589  13.314  10.079  0.00  0.00     0.173 C 
BRANCH  10  11
HETATM   11  O   UNK N   1      23.592  13.303   9.106  0.00  0.00    -0.391 OA
HETATM   12  H   UNK N   1      24.333  12.678   9.084  0.00  0.00     0.210 HD
ENDBRANCH  10  11
BRANCH  10  13
HETATM   13  C   UNK N   1      22.466  11.901  10.628  0.00  0.00     0.198 C 
BRANCH  13  14
HETATM   14  O   UNK N   1      21.331  11.785  11.428  0.00  0.00    -0.398 OA
HETATM   15  H   UNK N   1      20.995  11.404  12.254  0.00  0.00     0.209 HD
ENDBRANCH  13  14
ENDBRANCH  10  13
ENDBRANCH   7  10
ENDBRANCH   3   7
BRANCH   4  16
HETATM   16  N   UNK N   1      22.337  14.326   6.420  0.00  0.00    -0.352 N 
HETATM   17  C   UNK N   1      22.437  13.122   5.807  0.00  0.00     0.214 C 
HETATM   18  O   UNK N   1      21.494  12.342   5.796  0.00  0.00    -0.274 OA
HETATM   19  C   UNK N   1      23.715  12.731   5.154  0.00  0.00     0.117 C 
HETATM   20  H   UNK N   1      23.125  14.917   6.421  0.00  0.00     0.163 HD
ENDBRANCH   4  16
BRANCH   1  21
HETATM   21  C   UNK N   1      19.206  17.928   9.098  0.00  0.00     0.205 C 
HETATM   22  O   UNK N   1      20.044  18.804   8.953  0.00  0.00    -0.646 OA
BRANCH  21  23
HETATM   23  O   UNK N   1      17.997  18.249   9.607  0.00  0.00    -0.772 OA
HETATM   24  H   UNK N   1      17.667  17.806  10.364  0.00  0.00     0.167 HD
ENDBRANCH  21  23
ENDBRANCH   1  21
BRANCH   1  25
HETATM   25  O   UNK N   1      18.646  15.648   9.357  0.00  0.00    -0.357 OA
HETATM   26  H   UNK N   1      18.541  14.829   9.865  0.00  0.00     0.213 HD
ENDBRANCH   1  25
BRANCH   5  27
HETATM   27  O   UNK N   1      20.327  15.921   5.093  0.00  0.00    -0.393 OA
HETATM   28  H   UNK N   1      19.765  16.531   4.590  0.00  0.00     0.210 HD
ENDBRANCH   5  27
TORSDOF 11
ENDMDL
MODEL 9
REMARK VINA RESULT:      -5.2      1.811      5.339
REMARK  11 active torsions:
REMARK  status: ('A' for Active; 'I' for Inactive)
REMARK    1  A    between atoms: C_2  and  C_1 
REMARK    2  A    between atoms: C_1  and  O_18 
REMARK    3  A    between atoms: C_2  and  O_3 
REMARK    4  A    between atoms: C_5  and  C_6 
REMARK    5  A    between atoms: C_6  and  O_7 
REMARK    6  A    between atoms: C_6  and  C_8 
REMARK    7  A    between atoms: C_8  and  O_9 
REMARK    8  A    between atoms: C_8  and  C_10 
REMARK    9  A    between atoms: C_10  and  O_11 
REMARK   10  A    between atoms: C_12  and  N_13 
REMARK       I    between atoms: N_13  and  C_19 
REMARK   11  A    between atoms: C_14  and  O_15 
ROOT
HETATM    1  C   UNK N   1      36.023  13.769  13.479  0.00  0.00     0.253 C 
HETATM    2  O   UNK N   1      34.960  14.167  12.620  0.00  0.00    -0.336 OA
HETATM    3  C   UNK N   1      35.343  14.425  11.274  0.00  0.00     0.182 C 
HETATM    4  C   UNK N   1      36.333  13.412  10.663  0.00  0.00     0.145 C 
HETATM    5  C   UNK N   1      36.377  12.176  11.552  0.00  0.00     0.149 C 
HETATM    6  C   UNK N   1      36.903  12.655  12.886  0.00  0.00     0.114 C 
ENDROOT
BRANCH   3   7
HETATM    7  C   UNK N   1      35.688  15.895  10.963  0.00  0.00     0.180 C 
BRANCH   7   8
HETATM    8  O   UNK N   1      37.079  16.026  10.936  0.00  0.00    -0.390 OA
HETATM    9  H   UNK N   1      37.528  16.270  10.110  0.00  0.00     0.210 HD
ENDBRANCH   7   8
BRANCH   7  10
HETATM   10  C   UNK N   1      35.115  16.398   9.627  0.00  0.00     0.173 C 
BRANCH  10  11
HETATM   11  O   UNK N   1      35.169  17.794   9.590  0.00  0.00    -0.391 OA
HETATM   12  H   UNK N   1      35.707  18.342  10.183  0.00  0.00     0.210 HD
ENDBRANCH  10  11
BRANCH  10  13
HETATM   13  C   UNK N   1      33.660  15.991   9.450  0.00  0.00     0.198 C 
BRANCH  13  14
HETATM   14  O   UNK N   1      32.870  17.106   9.178  0.00  0.00    -0.398 OA
HETATM   15  H   UNK N   1      32.821  17.916   8.649  0.00  0.00     0.209 HD
ENDBRANCH  13  14
ENDBRANCH  10  13
ENDBRANCH   7  10
ENDBRANCH   3   7
BRANCH   4  16
HETATM   16  N   UNK N   1      35.923  13.095   9.311  0.00  0.00    -0.352 N 
HETATM   17  C   UNK N   1      36.693  13.333   8.222  0.00  0.00     0.214 C 
HETATM   18  O   UNK N   1      37.792  13.861   8.332  0.00  0.00    -0.274 OA
HETATM   19  C   UNK N   1      36.191  12.967   6.870  0.00  0.00     0.117 C 
HETATM   20  H   UNK N   1      35.037  12.684   9.177  0.00  0.00     0.163 HD
ENDBRANCH   4  16
BRANCH   1  21
HETATM   21  C   UNK N   1      35.400  13.257  14.756  0.00  0.00     0.205 C 
HETATM   22  O   UNK N   1      35.937  13.487  15.828  0.00  0.00    -0.646 OA
BRANCH  21  23
HETATM   23  O   UNK N   1      34.245  12.559  14.734  0.00  0.00    -0.772 OA
HETATM   24  H   UNK N   1      33.428  12.997  14.598  0.00  0.00     0.167 HD
ENDBRANCH  21  23
ENDBRANCH   1  21
BRANCH   1  25
HETATM   25  O   UNK N   1      36.826  14.871  13.786  0.00  0.00    -0.357 OA
HETATM   26  H   UNK N   1      36.857  15.806  14.041  0.00  0.00     0.213 HD
ENDBRANCH   1  25
BRANCH   5  27
HETATM   27  O   UNK N   1      37.244  11.206  11.052  0.00  0.00    -0.393 OA
HETATM   28  H   UNK N   1      38.198  11.200  11.231  0.00  0.00     0.210 HD
ENDBRANCH   5  27
TORSDOF 11
ENDMDL
