REMARK  10 active torsions:
REMARK  status: ('A' for Active; 'I' for Inactive)
REMARK    1  A    between atoms: C_2  and  O_15 
REMARK    2  A    between atoms: C_3  and  N_17 
REMARK    3  A    between atoms: C_7  and  C_4 
REMARK    4  A    between atoms: C_6  and  C_11 
REMARK    5  A    between atoms: C_6  and  O_12 
REMARK    6  A    between atoms: C_8  and  C_7 
REMARK    7  A    between atoms: C_7  and  O_16 
REMARK    8  A    between atoms: C_9  and  C_8 
REMARK    9  A    between atoms: O_10  and  C_9 
REMARK   10  A    between atoms: C_11  and  O_14 
REMARK       I    between atoms: N_17  and  C_20 
ROOT
HETATM    1  C   UNK N   1       2.353   1.218   0.189  0.00  0.00     0.173 C 
HETATM    2  O   UNK N   1       2.570   1.199  -1.193  0.00  0.00    -0.391 OA
HETATM    3  H   UNK N   1       2.634   1.062  -2.151  0.00  0.00     0.210 HD
ENDROOT
BRANCH   1   4
HETATM    4  C   UNK N   1       1.414   0.076   0.612  0.00  0.00     0.180 C 
BRANCH   4   5
HETATM    5  C   UNK N   1       0.037   0.286  -0.035  0.00  0.00     0.182 C 
HETATM    6  C   UNK N   1      -1.023  -0.779   0.331  0.00  0.00     0.145 C 
HETATM    7  C   UNK N   1      -2.423  -0.320  -0.143  0.00  0.00     0.149 C 
HETATM    8  C   UNK N   1      -2.339   0.875  -1.100  0.00  0.00     0.114 C 
HETATM    9  C   UNK N   1      -1.489   2.018  -0.489  0.00  0.00     0.253 C 
HETATM   10  O   UNK N   1      -0.454   1.548   0.373  0.00  0.00    -0.336 OA
BRANCH   6  11
HETATM   11  N   UNK N   1      -0.679  -2.060  -0.255  0.00  0.00    -0.352 N 
HETATM   12  C   UNK N   1      -1.383  -3.203  -0.041  0.00  0.00     0.214 C 
HETATM   13  O   UNK N   1      -1.019  -4.238  -0.571  0.00  0.00    -0.274 OA
HETATM   14  C   UNK N   1      -2.600  -3.225   0.832  0.00  0.00     0.117 C 
HETATM   15  H   UNK N   1       0.110  -2.105  -0.842  0.00  0.00     0.163 HD
ENDBRANCH   6  11
BRANCH   7  16
HETATM   16  O   UNK N   1      -3.209   0.011   0.960  0.00  0.00    -0.393 OA
HETATM   17  H   UNK N   1      -3.284   0.600   1.727  0.00  0.00     0.210 HD
ENDBRANCH   7  16
BRANCH   9  18
HETATM   18  C   UNK N   1      -2.402   2.926   0.292  0.00  0.00     0.205 C 
HETATM   19  O   UNK N   1      -2.225   3.112   1.485  0.00  0.00    -0.646 OA
BRANCH  18  20
HETATM   20  O   UNK N   1      -3.422   3.547  -0.333  0.00  0.00    -0.772 OA
HETATM   21  H   UNK N   1      -3.402   4.378  -0.767  0.00  0.00     0.167 HD
ENDBRANCH  18  20
ENDBRANCH   9  18
BRANCH   9  22
HETATM   22  O   UNK N   1      -0.913   2.759  -1.522  0.00  0.00    -0.357 OA
HETATM   23  H   UNK N   1      -0.267   2.670  -2.240  0.00  0.00     0.213 HD
ENDBRANCH   9  22
ENDBRANCH   4   5
BRANCH   4  24
HETATM   24  O   UNK N   1       1.962  -1.156   0.242  0.00  0.00    -0.390 OA
HETATM   25  H   UNK N   1       1.412  -1.912  -0.015  0.00  0.00     0.210 HD
ENDBRANCH   4  24
ENDBRANCH   1   4
BRANCH   1  26
HETATM   26  C   UNK N   1       3.681   1.175   0.920  0.00  0.00     0.198 C 
BRANCH  26  27
HETATM   27  O   UNK N   1       4.430   2.306   0.588  0.00  0.00    -0.398 OA
HETATM   28  H   UNK N   1       5.370   2.248   0.358  0.00  0.00     0.209 HD
ENDBRANCH  26  27
ENDBRANCH   1  26
TORSDOF 10
