MODEL 1
REMARK VINA RESULT:      -6.3      0.000      0.000
REMARK  10 active torsions:
REMARK  status: ('A' for Active; 'I' for Inactive)
REMARK    1  A    between atoms: C_2  and  O_15 
REMARK    2  A    between atoms: C_3  and  N_17 
REMARK    3  A    between atoms: C_7  and  C_4 
REMARK    4  A    between atoms: C_6  and  C_11 
REMARK    5  A    between atoms: C_6  and  O_12 
REMARK    6  A    between atoms: C_8  and  C_7 
REMARK    7  A    between atoms: C_7  and  O_16 
REMARK    8  A    between atoms: C_9  and  C_8 
REMARK    9  A    between atoms: O_10  and  C_9 
REMARK   10  A    between atoms: C_11  and  O_14 
REMARK       I    between atoms: N_17  and  C_20 
ROOT
HETATM    1  C   UNK N   1      29.721  17.710   9.178  0.00  0.00     0.173 C 
HETATM    2  O   UNK N   1      30.336  16.702   9.929  0.00  0.00    -0.391 OA
HETATM    3  H   UNK N   1      30.822  15.959  10.319  0.00  0.00     0.210 HD
ENDROOT
BRANCH   1   4
HETATM    4  C   UNK N   1      30.151  17.633   7.703  0.00  0.00     0.180 C 
BRANCH   4   5
HETATM    5  C   UNK N   1      31.535  16.972   7.612  0.00  0.00     0.182 C 
HETATM    6  C   UNK N   1      32.148  16.939   6.193  0.00  0.00     0.145 C 
HETATM    7  C   UNK N   1      33.634  16.513   6.266  0.00  0.00     0.149 C 
HETATM    8  C   UNK N   1      33.998  15.945   7.643  0.00  0.00     0.114 C 
HETATM    9  C   UNK N   1      33.579  16.918   8.774  0.00  0.00     0.253 C 
HETATM   10  O   UNK N   1      32.420  17.685   8.453  0.00  0.00    -0.336 OA
BRANCH   6  11
HETATM   11  N   UNK N   1      31.399  16.040   5.337  0.00  0.00    -0.352 N 
HETATM   12  C   UNK N   1      31.380  16.127   3.981  0.00  0.00     0.214 C 
HETATM   13  O   UNK N   1      30.718  15.331   3.339  0.00  0.00    -0.274 OA
HETATM   14  C   UNK N   1      32.154  17.181   3.250  0.00  0.00     0.117 C 
HETATM   15  H   UNK N   1      30.874  15.324   5.762  0.00  0.00     0.163 HD
ENDBRANCH   6  11
BRANCH   7  16
HETATM   16  O   UNK N   1      34.452  17.602   5.971  0.00  0.00    -0.393 OA
HETATM   17  H   UNK N   1      34.461  18.521   5.660  0.00  0.00     0.210 HD
ENDBRANCH   7  16
BRANCH   9  18
HETATM   18  C   UNK N   1      34.727  17.855   9.046  0.00  0.00     0.205 C 
HETATM   19  O   UNK N   1      35.535  17.612   9.927  0.00  0.00    -0.646 OA
BRANCH  18  20
HETATM   20  O   UNK N   1      34.868  18.972   8.304  0.00  0.00    -0.772 OA
HETATM   21  H   UNK N   1      35.245  19.788   8.571  0.00  0.00     0.167 HD
ENDBRANCH  18  20
ENDBRANCH   9  18
BRANCH   9  22
HETATM   22  O   UNK N   1      33.328  16.185   9.935  0.00  0.00    -0.357 OA
HETATM   23  H   UNK N   1      32.588  15.846  10.463  0.00  0.00     0.213 HD
ENDBRANCH   9  22
ENDBRANCH   4   5
BRANCH   4  24
HETATM   24  O   UNK N   1      29.202  16.920   6.964  0.00  0.00    -0.390 OA
HETATM   25  H   UNK N   1      28.451  16.471   7.382  0.00  0.00     0.210 HD
ENDBRANCH   4  24
ENDBRANCH   1   4
BRANCH   1  26
HETATM   26  C   UNK N   1      28.216  17.633   9.345  0.00  0.00     0.198 C 
BRANCH  26  27
HETATM   27  O   UNK N   1      27.632  18.794   8.834  0.00  0.00    -0.398 OA
HETATM   28  H   UNK N   1      26.746  19.083   9.102  0.00  0.00     0.209 HD
ENDBRANCH  26  27
ENDBRANCH   1  26
TORSDOF 10
ENDMDL
MODEL 2
REMARK VINA RESULT:      -5.7      9.450     11.870
REMARK  10 active torsions:
REMARK  status: ('A' for Active; 'I' for Inactive)
REMARK    1  A    between atoms: C_2  and  O_15 
REMARK    2  A    between atoms: C_3  and  N_17 
REMARK    3  A    between atoms: C_7  and  C_4 
REMARK    4  A    between atoms: C_6  and  C_11 
REMARK    5  A    between atoms: C_6  and  O_12 
REMARK    6  A    between atoms: C_8  and  C_7 
REMARK    7  A    between atoms: C_7  and  O_16 
REMARK    8  A    between atoms: C_9  and  C_8 
REMARK    9  A    between atoms: O_10  and  C_9 
REMARK   10  A    between atoms: C_11  and  O_14 
REMARK       I    between atoms: N_17  and  C_20 
ROOT
HETATM    1  C   UNK N   1      20.834  19.981   2.444  0.00  0.00     0.173 C 
HETATM    2  O   UNK N   1      20.314  20.640   3.563  0.00  0.00    -0.391 OA
HETATM    3  H   UNK N   1      19.864  20.976   4.354  0.00  0.00     0.210 HD
ENDROOT
BRANCH   1   4
HETATM    4  C   UNK N   1      20.183  18.598   2.271  0.00  0.00     0.180 C 
BRANCH   4   5
HETATM    5  C   UNK N   1      20.690  17.657   3.374  0.00  0.00     0.182 C 
HETATM    6  C   UNK N   1      20.945  16.201   2.920  0.00  0.00     0.145 C 
HETATM    7  C   UNK N   1      21.706  15.426   4.022  0.00  0.00     0.149 C 
HETATM    8  C   UNK N   1      21.719  16.190   5.352  0.00  0.00     0.114 C 
HETATM    9  C   UNK N   1      22.226  17.641   5.155  0.00  0.00     0.253 C 
HETATM   10  O   UNK N   1      21.906  18.178   3.873  0.00  0.00    -0.336 OA
BRANCH   6  11
HETATM   11  N   UNK N   1      19.693  15.541   2.603  0.00  0.00    -0.352 N 
HETATM   12  C   UNK N   1      19.561  14.594   1.637  0.00  0.00     0.214 C 
HETATM   13  O   UNK N   1      18.468  14.094   1.434  0.00  0.00    -0.274 OA
HETATM   14  C   UNK N   1      20.728  14.143   0.813  0.00  0.00     0.117 C 
HETATM   15  H   UNK N   1      18.892  15.794   3.116  0.00  0.00     0.163 HD
ENDBRANCH   6  11
BRANCH   7  16
HETATM   16  O   UNK N   1      23.013  15.178   3.607  0.00  0.00    -0.393 OA
HETATM   17  H   UNK N   1      23.605  14.514   3.219  0.00  0.00     0.210 HD
ENDBRANCH   7  16
BRANCH   9  18
HETATM   18  C   UNK N   1      23.722  17.651   5.331  0.00  0.00     0.205 C 
HETATM   19  O   UNK N   1      24.390  18.593   4.935  0.00  0.00    -0.646 OA
BRANCH  18  20
HETATM   20  O   UNK N   1      24.331  16.614   5.939  0.00  0.00    -0.772 OA
HETATM   21  H   UNK N   1      25.188  16.600   6.319  0.00  0.00     0.167 HD
ENDBRANCH  18  20
ENDBRANCH   9  18
BRANCH   9  22
HETATM   22  O   UNK N   1      21.664  18.457   6.138  0.00  0.00    -0.357 OA
HETATM   23  H   UNK N   1      20.805  18.809   6.421  0.00  0.00     0.213 HD
ENDBRANCH   9  22
ENDBRANCH   4   5
BRANCH   4  24
HETATM   24  O   UNK N   1      18.790  18.717   2.310  0.00  0.00    -0.390 OA
HETATM   25  H   UNK N   1      18.339  19.330   2.911  0.00  0.00     0.210 HD
ENDBRANCH   4  24
ENDBRANCH   1   4
BRANCH   1  26
HETATM   26  C   UNK N   1      20.676  20.852   1.213  0.00  0.00     0.198 C 
BRANCH  26  27
HETATM   27  O   UNK N   1      20.688  20.048   0.071  0.00  0.00    -0.398 OA
HETATM   28  H   UNK N   1      21.498  19.620  -0.245  0.00  0.00     0.209 HD
ENDBRANCH  26  27
ENDBRANCH   1  26
TORSDOF 10
ENDMDL
MODEL 3
REMARK VINA RESULT:      -5.6      1.621      4.615
REMARK  10 active torsions:
REMARK  status: ('A' for Active; 'I' for Inactive)
REMARK    1  A    between atoms: C_2  and  O_15 
REMARK    2  A    between atoms: C_3  and  N_17 
REMARK    3  A    between atoms: C_7  and  C_4 
REMARK    4  A    between atoms: C_6  and  C_11 
REMARK    5  A    between atoms: C_6  and  O_12 
REMARK    6  A    between atoms: C_8  and  C_7 
REMARK    7  A    between atoms: C_7  and  O_16 
REMARK    8  A    between atoms: C_9  and  C_8 
REMARK    9  A    between atoms: O_10  and  C_9 
REMARK   10  A    between atoms: C_11  and  O_14 
REMARK       I    between atoms: N_17  and  C_20 
ROOT
HETATM    1  C   UNK N   1      29.204  17.207   7.749  0.00  0.00     0.173 C 
HETATM    2  O   UNK N   1      29.040  18.274   6.859  0.00  0.00    -0.391 OA
HETATM    3  H   UNK N   1      29.073  19.039   6.263  0.00  0.00     0.210 HD
ENDROOT
BRANCH   1   4
HETATM    4  C   UNK N   1      30.671  17.085   8.193  0.00  0.00     0.180 C 
BRANCH   4   5
HETATM    5  C   UNK N   1      31.587  17.294   6.978  0.00  0.00     0.182 C 
HETATM    6  C   UNK N   1      33.031  16.769   7.153  0.00  0.00     0.145 C 
HETATM    7  C   UNK N   1      33.769  16.779   5.793  0.00  0.00     0.149 C 
HETATM    8  C   UNK N   1      33.004  17.582   4.734  0.00  0.00     0.114 C 
HETATM    9  C   UNK N   1      31.532  17.108   4.633  0.00  0.00     0.253 C 
HETATM   10  O   UNK N   1      31.012  16.627   5.872  0.00  0.00    -0.336 OA
BRANCH   6  11
HETATM   11  N   UNK N   1      33.747  17.566   8.130  0.00  0.00    -0.352 N 
HETATM   12  C   UNK N   1      34.650  17.056   9.008  0.00  0.00     0.214 C 
HETATM   13  O   UNK N   1      35.203  17.800   9.799  0.00  0.00    -0.274 OA
HETATM   14  C   UNK N   1      34.987  15.596   9.030  0.00  0.00     0.117 C 
HETATM   15  H   UNK N   1      33.569  18.534   8.158  0.00  0.00     0.163 HD
ENDBRANCH   6  11
BRANCH   7  16
HETATM   16  O   UNK N   1      33.959  15.471   5.350  0.00  0.00    -0.393 OA
HETATM   17  H   UNK N   1      33.552  14.735   4.866  0.00  0.00     0.210 HD
ENDBRANCH   7  16
BRANCH   9  18
HETATM   18  C   UNK N   1      31.454  16.007   3.609  0.00  0.00     0.205 C 
HETATM   19  O   UNK N   1      30.501  15.245   3.584  0.00  0.00    -0.646 OA
BRANCH  18  20
HETATM   20  O   UNK N   1      32.442  15.865   2.703  0.00  0.00    -0.772 OA
HETATM   21  H   UNK N   1      32.510  15.213   2.033  0.00  0.00     0.167 HD
ENDBRANCH  18  20
ENDBRANCH   9  18
BRANCH   9  22
HETATM   22  O   UNK N   1      30.741  18.171   4.195  0.00  0.00    -0.357 OA
HETATM   23  H   UNK N   1      29.924  18.642   4.421  0.00  0.00     0.213 HD
ENDBRANCH   9  22
ENDBRANCH   4   5
BRANCH   4  24
HETATM   24  O   UNK N   1      30.947  18.017   9.198  0.00  0.00    -0.390 OA
HETATM   25  H   UNK N   1      31.743  18.571   9.188  0.00  0.00     0.210 HD
ENDBRANCH   4  24
ENDBRANCH   1   4
BRANCH   1  26
HETATM   26  C   UNK N   1      28.257  17.365   8.923  0.00  0.00     0.198 C 
BRANCH  26  27
HETATM   27  O   UNK N   1      27.828  18.692   8.998  0.00  0.00    -0.398 OA
HETATM   28  H   UNK N   1      28.071  19.347   8.326  0.00  0.00     0.209 HD
ENDBRANCH  26  27
ENDBRANCH   1  26
TORSDOF 10
ENDMDL
MODEL 4
REMARK VINA RESULT:      -5.5      1.754      4.098
REMARK  10 active torsions:
REMARK  status: ('A' for Active; 'I' for Inactive)
REMARK    1  A    between atoms: C_2  and  O_15 
REMARK    2  A    between atoms: C_3  and  N_17 
REMARK    3  A    between atoms: C_7  and  C_4 
REMARK    4  A    between atoms: C_6  and  C_11 
REMARK    5  A    between atoms: C_6  and  O_12 
REMARK    6  A    between atoms: C_8  and  C_7 
REMARK    7  A    between atoms: C_7  and  O_16 
REMARK    8  A    between atoms: C_9  and  C_8 
REMARK    9  A    between atoms: O_10  and  C_9 
REMARK   10  A    between atoms: C_11  and  O_14 
REMARK       I    between atoms: N_17  and  C_20 
ROOT
HETATM    1  C   UNK N   1      31.280  16.584   3.624  0.00  0.00     0.173 C 
HETATM    2  O   UNK N   1      31.568  17.938   3.826  0.00  0.00    -0.391 OA
HETATM    3  H   UNK N   1      31.785  18.839   4.112  0.00  0.00     0.210 HD
ENDROOT
BRANCH   1   4
HETATM    4  C   UNK N   1      31.408  15.794   4.937  0.00  0.00     0.180 C 
BRANCH   4   5
HETATM    5  C   UNK N   1      31.777  16.758   6.074  0.00  0.00     0.182 C 
HETATM    6  C   UNK N   1      30.636  17.050   7.076  0.00  0.00     0.145 C 
HETATM    7  C   UNK N   1      31.192  17.795   8.313  0.00  0.00     0.149 C 
HETATM    8  C   UNK N   1      32.616  18.313   8.076  0.00  0.00     0.114 C 
HETATM    9  C   UNK N   1      33.543  17.177   7.571  0.00  0.00     0.253 C 
HETATM   10  O   UNK N   1      32.857  16.197   6.795  0.00  0.00    -0.336 OA
BRANCH   6  11
HETATM   11  N   UNK N   1      29.588  17.824   6.440  0.00  0.00    -0.352 N 
HETATM   12  C   UNK N   1      28.273  17.735   6.774  0.00  0.00     0.214 C 
HETATM   13  O   UNK N   1      27.458  18.421   6.183  0.00  0.00    -0.274 OA
HETATM   14  C   UNK N   1      27.797  16.813   7.854  0.00  0.00     0.117 C 
HETATM   15  H   UNK N   1      29.843  18.451   5.725  0.00  0.00     0.163 HD
ENDBRANCH   6  11
BRANCH   7  16
HETATM   16  O   UNK N   1      31.174  16.950   9.421  0.00  0.00    -0.393 OA
HETATM   17  H   UNK N   1      30.693  16.722  10.232  0.00  0.00     0.210 HD
ENDBRANCH   7  16
BRANCH   9  18
HETATM   18  C   UNK N   1      34.169  16.507   8.766  0.00  0.00     0.205 C 
HETATM   19  O   UNK N   1      34.605  15.370   8.685  0.00  0.00    -0.646 OA
BRANCH  18  20
HETATM   20  O   UNK N   1      34.256  17.170   9.936  0.00  0.00    -0.772 OA
HETATM   21  H   UNK N   1      33.618  17.746  10.312  0.00  0.00     0.167 HD
ENDBRANCH  18  20
ENDBRANCH   9  18
BRANCH   9  22
HETATM   22  O   UNK N   1      34.562  17.733   6.797  0.00  0.00    -0.357 OA
HETATM   23  H   UNK N   1      35.334  18.315   6.877  0.00  0.00     0.213 HD
ENDBRANCH   9  22
ENDBRANCH   4   5
BRANCH   4  24
HETATM   24  O   UNK N   1      30.212  15.125   5.212  0.00  0.00    -0.390 OA
HETATM   25  H   UNK N   1      30.128  14.490   5.940  0.00  0.00     0.210 HD
ENDBRANCH   4  24
ENDBRANCH   1   4
BRANCH   1  26
HETATM   26  C   UNK N   1      29.909  16.437   2.993  0.00  0.00     0.198 C 
BRANCH  26  27
HETATM   27  O   UNK N   1      29.058  17.423   3.498  0.00  0.00    -0.398 OA
HETATM   28  H   UNK N   1      28.589  18.042   2.917  0.00  0.00     0.209 HD
ENDBRANCH  26  27
ENDBRANCH   1  26
TORSDOF 10
ENDMDL
MODEL 5
REMARK VINA RESULT:      -5.5     10.573     13.732
REMARK  10 active torsions:
REMARK  status: ('A' for Active; 'I' for Inactive)
REMARK    1  A    between atoms: C_2  and  O_15 
REMARK    2  A    between atoms: C_3  and  N_17 
REMARK    3  A    between atoms: C_7  and  C_4 
REMARK    4  A    between atoms: C_6  and  C_11 
REMARK    5  A    between atoms: C_6  and  O_12 
REMARK    6  A    between atoms: C_8  and  C_7 
REMARK    7  A    between atoms: C_7  and  O_16 
REMARK    8  A    between atoms: C_9  and  C_8 
REMARK    9  A    between atoms: O_10  and  C_9 
REMARK   10  A    between atoms: C_11  and  O_14 
REMARK       I    between atoms: N_17  and  C_20 
ROOT
HETATM    1  C   UNK N   1      21.343  20.526   2.113  0.00  0.00     0.173 C 
HETATM    2  O   UNK N   1      21.621  21.667   2.873  0.00  0.00    -0.391 OA
HETATM    3  H   UNK N   1      21.722  22.397   3.503  0.00  0.00     0.210 HD
ENDROOT
BRANCH   1   4
HETATM    4  C   UNK N   1      20.421  19.566   2.883  0.00  0.00     0.180 C 
BRANCH   4   5
HETATM    5  C   UNK N   1      20.605  18.141   2.340  0.00  0.00     0.182 C 
HETATM    6  C   UNK N   1      20.594  17.028   3.414  0.00  0.00     0.145 C 
HETATM    7  C   UNK N   1      20.507  15.639   2.739  0.00  0.00     0.149 C 
HETATM    8  C   UNK N   1      20.771  15.719   1.231  0.00  0.00     0.114 C 
HETATM    9  C   UNK N   1      19.867  16.787   0.564  0.00  0.00     0.253 C 
HETATM   10  O   UNK N   1      19.557  17.878   1.429  0.00  0.00    -0.336 OA
BRANCH   6  11
HETATM   11  N   UNK N   1      21.776  17.118   4.250  0.00  0.00    -0.352 N 
HETATM   12  C   UNK N   1      21.809  16.742   5.556  0.00  0.00     0.214 C 
HETATM   13  O   UNK N   1      22.846  16.857   6.185  0.00  0.00    -0.274 OA
HETATM   14  C   UNK N   1      20.600  16.189   6.246  0.00  0.00     0.117 C 
HETATM   15  H   UNK N   1      22.603  17.470   3.848  0.00  0.00     0.163 HD
ENDBRANCH   6  11
BRANCH   7  16
HETATM   16  O   UNK N   1      19.251  15.080   2.971  0.00  0.00    -0.393 OA
HETATM   17  H   UNK N   1      18.779  14.352   3.404  0.00  0.00     0.210 HD
ENDBRANCH   7  16
BRANCH   9  18
HETATM   18  C   UNK N   1      18.586  16.124   0.131  0.00  0.00     0.205 C 
HETATM   19  O   UNK N   1      18.515  14.910   0.029  0.00  0.00    -0.646 OA
BRANCH  18  20
HETATM   20  O   UNK N   1      17.502  16.878  -0.139  0.00  0.00    -0.772 OA
HETATM   21  H   UNK N   1      16.780  17.061   0.431  0.00  0.00     0.167 HD
ENDBRANCH  18  20
ENDBRANCH   9  18
BRANCH   9  22
HETATM   22  O   UNK N   1      20.510  17.281  -0.572  0.00  0.00    -0.357 OA
HETATM   23  H   UNK N   1      21.138  17.970  -0.839  0.00  0.00     0.213 HD
ENDBRANCH   9  22
ENDBRANCH   4   5
BRANCH   4  24
HETATM   24  O   UNK N   1      20.706  19.624   4.251  0.00  0.00    -0.390 OA
HETATM   25  H   UNK N   1      21.602  19.776   4.588  0.00  0.00     0.210 HD
ENDBRANCH   4  24
ENDBRANCH   1   4
BRANCH   1  26
HETATM   26  C   UNK N   1      20.764  20.929   0.770  0.00  0.00     0.198 C 
BRANCH  26  27
HETATM   27  O   UNK N   1      20.467  22.294   0.784  0.00  0.00    -0.398 OA
HETATM   28  H   UNK N   1      20.658  22.851   1.554  0.00  0.00     0.209 HD
ENDBRANCH  26  27
ENDBRANCH   1  26
TORSDOF 10
ENDMDL
MODEL 6
REMARK VINA RESULT:      -5.4      9.607     12.539
REMARK  10 active torsions:
REMARK  status: ('A' for Active; 'I' for Inactive)
REMARK    1  A    between atoms: C_2  and  O_15 
REMARK    2  A    between atoms: C_3  and  N_17 
REMARK    3  A    between atoms: C_7  and  C_4 
REMARK    4  A    between atoms: C_6  and  C_11 
REMARK    5  A    between atoms: C_6  and  O_12 
REMARK    6  A    between atoms: C_8  and  C_7 
REMARK    7  A    between atoms: C_7  and  O_16 
REMARK    8  A    between atoms: C_9  and  C_8 
REMARK    9  A    between atoms: O_10  and  C_9 
REMARK   10  A    between atoms: C_11  and  O_14 
REMARK       I    between atoms: N_17  and  C_20 
ROOT
HETATM    1  C   UNK N   1      20.432  15.379   1.185  0.00  0.00     0.173 C 
HETATM    2  O   UNK N   1      19.184  15.939   1.478  0.00  0.00    -0.391 OA
HETATM    3  H   UNK N   1      18.380  16.364   1.814  0.00  0.00     0.210 HD
ENDROOT
BRANCH   1   4
HETATM    4  C   UNK N   1      21.418  15.600   2.344  0.00  0.00     0.180 C 
BRANCH   4   5
HETATM    5  C   UNK N   1      21.201  17.002   2.933  0.00  0.00     0.182 C 
HETATM    6  C   UNK N   1      22.372  17.535   3.792  0.00  0.00     0.145 C 
HETATM    7  C   UNK N   1      22.167  19.039   4.094  0.00  0.00     0.149 C 
HETATM    8  C   UNK N   1      20.748  19.504   3.747  0.00  0.00     0.114 C 
HETATM    9  C   UNK N   1      20.374  19.110   2.295  0.00  0.00     0.253 C 
HETATM   10  O   UNK N   1      21.000  17.904   1.862  0.00  0.00    -0.336 OA
BRANCH   6  11
HETATM   11  N   UNK N   1      22.485  16.777   5.022  0.00  0.00    -0.352 N 
HETATM   12  C   UNK N   1      23.661  16.301   5.512  0.00  0.00     0.214 C 
HETATM   13  O   UNK N   1      23.663  15.668   6.553  0.00  0.00    -0.274 OA
HETATM   14  C   UNK N   1      24.960  16.536   4.804  0.00  0.00     0.117 C 
HETATM   15  H   UNK N   1      21.664  16.595   5.533  0.00  0.00     0.163 HD
ENDBRANCH   6  11
BRANCH   7  16
HETATM   16  O   UNK N   1      23.100  19.794   3.384  0.00  0.00    -0.393 OA
HETATM   17  H   UNK N   1      24.011  20.128   3.386  0.00  0.00     0.210 HD
ENDBRANCH   7  16
BRANCH   9  18
HETATM   18  C   UNK N   1      20.782  20.231   1.376  0.00  0.00     0.205 C 
HETATM   19  O   UNK N   1      21.155  21.302   1.827  0.00  0.00    -0.646 OA
BRANCH  18  20
HETATM   20  O   UNK N   1      20.742  20.050   0.041  0.00  0.00    -0.772 OA
HETATM   21  H   UNK N   1      20.003  19.796  -0.477  0.00  0.00     0.167 HD
ENDBRANCH  18  20
ENDBRANCH   9  18
BRANCH   9  22
HETATM   22  O   UNK N   1      18.989  18.954   2.208  0.00  0.00    -0.357 OA
HETATM   23  H   UNK N   1      18.233  18.654   2.736  0.00  0.00     0.213 HD
ENDBRANCH   9  22
ENDBRANCH   4   5
BRANCH   4  24
HETATM   24  O   UNK N   1      21.242  14.612   3.318  0.00  0.00    -0.390 OA
HETATM   25  H   UNK N   1      21.988  14.149   3.728  0.00  0.00     0.210 HD
ENDBRANCH   4  24
ENDBRANCH   1   4
BRANCH   1  26
HETATM   26  C   UNK N   1      20.270  13.912   0.837  0.00  0.00     0.198 C 
BRANCH  26  27
HETATM   27  O   UNK N   1      19.184  13.386   1.540  0.00  0.00    -0.398 OA
HETATM   28  H   UNK N   1      19.227  13.213   2.493  0.00  0.00     0.209 HD
ENDBRANCH  26  27
ENDBRANCH   1  26
TORSDOF 10
ENDMDL
MODEL 7
REMARK VINA RESULT:      -5.4      5.389      7.773
REMARK  10 active torsions:
REMARK  status: ('A' for Active; 'I' for Inactive)
REMARK    1  A    between atoms: C_2  and  O_15 
REMARK    2  A    between atoms: C_3  and  N_17 
REMARK    3  A    between atoms: C_7  and  C_4 
REMARK    4  A    between atoms: C_6  and  C_11 
REMARK    5  A    between atoms: C_6  and  O_12 
REMARK    6  A    between atoms: C_8  and  C_7 
REMARK    7  A    between atoms: C_7  and  O_16 
REMARK    8  A    between atoms: C_9  and  C_8 
REMARK    9  A    between atoms: O_10  and  C_9 
REMARK   10  A    between atoms: C_11  and  O_14 
REMARK       I    between atoms: N_17  and  C_20 
ROOT
HETATM    1  C   UNK N   1      36.646  12.733  14.105  0.00  0.00     0.173 C 
HETATM    2  O   UNK N   1      37.673  12.612  13.163  0.00  0.00    -0.391 OA
HETATM    3  H   UNK N   1      38.285  12.582  12.411  0.00  0.00     0.210 HD
ENDROOT
BRANCH   1   4
HETATM    4  C   UNK N   1      35.384  13.335  13.465  0.00  0.00     0.180 C 
BRANCH   4   5
HETATM    5  C   UNK N   1      35.674  13.676  11.996  0.00  0.00     0.182 C 
HETATM    6  C   UNK N   1      35.022  12.723  10.967  0.00  0.00     0.145 C 
HETATM    7  C   UNK N   1      35.146  13.315   9.542  0.00  0.00     0.149 C 
HETATM    8  C   UNK N   1      36.131  14.489   9.495  0.00  0.00     0.114 C 
HETATM    9  C   UNK N   1      35.788  15.547  10.574  0.00  0.00     0.253 C 
HETATM   10  O   UNK N   1      35.196  14.983  11.744  0.00  0.00    -0.336 OA
BRANCH   6  11
HETATM   11  N   UNK N   1      35.634  11.410  11.031  0.00  0.00    -0.352 N 
HETATM   12  C   UNK N   1      34.937  10.246  10.951  0.00  0.00     0.214 C 
HETATM   13  O   UNK N   1      35.534   9.186  11.019  0.00  0.00    -0.274 OA
HETATM   14  C   UNK N   1      33.449  10.231  10.779  0.00  0.00     0.117 C 
HETATM   15  H   UNK N   1      36.611  11.359  11.139  0.00  0.00     0.163 HD
ENDBRANCH   6  11
BRANCH   7  16
HETATM   16  O   UNK N   1      33.893  13.729   9.093  0.00  0.00    -0.393 OA
HETATM   17  H   UNK N   1      33.430  14.269   8.432  0.00  0.00     0.210 HD
ENDBRANCH   7  16
BRANCH   9  18
HETATM   18  C   UNK N   1      34.833  16.546   9.976  0.00  0.00     0.205 C 
HETATM   19  O   UNK N   1      35.240  17.603   9.521  0.00  0.00    -0.646 OA
BRANCH  18  20
HETATM   20  O   UNK N   1      33.514  16.269   9.934  0.00  0.00    -0.772 OA
HETATM   21  H   UNK N   1      32.806  16.881   9.889  0.00  0.00     0.167 HD
ENDBRANCH  18  20
ENDBRANCH   9  18
BRANCH   9  22
HETATM   22  O   UNK N   1      36.954  16.220  10.939  0.00  0.00    -0.357 OA
HETATM   23  H   UNK N   1      37.878  16.327  10.662  0.00  0.00     0.213 HD
ENDBRANCH   9  22
ENDBRANCH   4   5
BRANCH   4  24
HETATM   24  O   UNK N   1      34.317  12.438  13.574  0.00  0.00    -0.390 OA
HETATM   25  H   UNK N   1      34.376  11.522  13.260  0.00  0.00     0.210 HD
ENDBRANCH   4  24
ENDBRANCH   1   4
BRANCH   1  26
HETATM   26  C   UNK N   1      36.379  11.388  14.753  0.00  0.00     0.198 C 
BRANCH  26  27
HETATM   27  O   UNK N   1      36.479  10.381  13.789  0.00  0.00    -0.398 OA
HETATM   28  H   UNK N   1      37.190   9.722  13.810  0.00  0.00     0.209 HD
ENDBRANCH  26  27
ENDBRANCH   1  26
TORSDOF 10
ENDMDL
MODEL 8
REMARK VINA RESULT:      -5.3      5.443      7.478
REMARK  10 active torsions:
REMARK  status: ('A' for Active; 'I' for Inactive)
REMARK    1  A    between atoms: C_2  and  O_15 
REMARK    2  A    between atoms: C_3  and  N_17 
REMARK    3  A    between atoms: C_7  and  C_4 
REMARK    4  A    between atoms: C_6  and  C_11 
REMARK    5  A    between atoms: C_6  and  O_12 
REMARK    6  A    between atoms: C_8  and  C_7 
REMARK    7  A    between atoms: C_7  and  O_16 
REMARK    8  A    between atoms: C_9  and  C_8 
REMARK    9  A    between atoms: O_10  and  C_9 
REMARK   10  A    between atoms: C_11  and  O_14 
REMARK       I    between atoms: N_17  and  C_20 
ROOT
HETATM    1  C   UNK N   1      34.763  15.762  10.092  0.00  0.00     0.173 C 
HETATM    2  O   UNK N   1      34.114  17.001  10.060  0.00  0.00    -0.391 OA
HETATM    3  H   UNK N   1      33.746  17.893  10.161  0.00  0.00     0.210 HD
ENDROOT
BRANCH   1   4
HETATM    4  C   UNK N   1      35.790  15.710  11.235  0.00  0.00     0.180 C 
BRANCH   4   5
HETATM    5  C   UNK N   1      35.893  14.270  11.759  0.00  0.00     0.182 C 
HETATM    6  C   UNK N   1      37.024  13.427  11.125  0.00  0.00     0.145 C 
HETATM    7  C   UNK N   1      37.210  12.109  11.915  0.00  0.00     0.149 C 
HETATM    8  C   UNK N   1      36.050  11.854  12.884  0.00  0.00     0.114 C 
HETATM    9  C   UNK N   1      35.801  13.086  13.790  0.00  0.00     0.253 C 
HETATM   10  O   UNK N   1      36.118  14.323  13.154  0.00  0.00    -0.336 OA
BRANCH   6  11
HETATM   11  N   UNK N   1      36.732  13.152   9.732  0.00  0.00    -0.352 N 
HETATM   12  C   UNK N   1      37.623  13.338   8.722  0.00  0.00     0.214 C 
HETATM   13  O   UNK N   1      37.291  13.085   7.577  0.00  0.00    -0.274 OA
HETATM   14  C   UNK N   1      39.007  13.848   8.978  0.00  0.00     0.117 C 
HETATM   15  H   UNK N   1      35.838  12.810   9.504  0.00  0.00     0.163 HD
ENDBRANCH   6  11
BRANCH   7  16
HETATM   16  O   UNK N   1      38.414  12.146  12.618  0.00  0.00    -0.393 OA
HETATM   17  H   UNK N   1      39.349  11.891  12.594  0.00  0.00     0.210 HD
ENDBRANCH   7  16
BRANCH   9  18
HETATM   18  C   UNK N   1      36.643  12.943  15.031  0.00  0.00     0.205 C 
HETATM   19  O   UNK N   1      36.384  12.091  15.865  0.00  0.00    -0.646 OA
BRANCH  18  20
HETATM   20  O   UNK N   1      37.699  13.759  15.220  0.00  0.00    -0.772 OA
HETATM   21  H   UNK N   1      37.728  14.543  15.734  0.00  0.00     0.167 HD
ENDBRANCH  18  20
ENDBRANCH   9  18
BRANCH   9  22
HETATM   22  O   UNK N   1      34.459  13.107  14.172  0.00  0.00    -0.357 OA
HETATM   23  H   UNK N   1      33.868  12.761  14.859  0.00  0.00     0.213 HD
ENDBRANCH   9  22
ENDBRANCH   4   5
BRANCH   4  24
HETATM   24  O   UNK N   1      37.030  16.173  10.786  0.00  0.00    -0.390 OA
HETATM   25  H   UNK N   1      37.859  15.710  10.983  0.00  0.00     0.210 HD
ENDBRANCH   4  24
ENDBRANCH   1   4
BRANCH   1  26
HETATM   26  C   UNK N   1      33.740  14.646  10.183  0.00  0.00     0.198 C 
BRANCH  26  27
HETATM   27  O   UNK N   1      32.638  15.086  10.919  0.00  0.00    -0.398 OA
HETATM   28  H   UNK N   1      32.158  15.896  10.687  0.00  0.00     0.209 HD
ENDBRANCH  26  27
ENDBRANCH   1  26
TORSDOF 10
ENDMDL
MODEL 9
REMARK VINA RESULT:      -5.2     13.110     15.883
REMARK  10 active torsions:
REMARK  status: ('A' for Active; 'I' for Inactive)
REMARK    1  A    between atoms: C_2  and  O_15 
REMARK    2  A    between atoms: C_3  and  N_17 
REMARK    3  A    between atoms: C_7  and  C_4 
REMARK    4  A    between atoms: C_6  and  C_11 
REMARK    5  A    between atoms: C_6  and  O_12 
REMARK    6  A    between atoms: C_8  and  C_7 
REMARK    7  A    between atoms: C_7  and  O_16 
REMARK    8  A    between atoms: C_9  and  C_8 
REMARK    9  A    between atoms: O_10  and  C_9 
REMARK   10  A    between atoms: C_11  and  O_14 
REMARK       I    between atoms: N_17  and  C_20 
ROOT
HETATM    1  C   UNK N   1      29.678  24.269  -3.183  0.00  0.00     0.173 C 
HETATM    2  O   UNK N   1      30.308  25.439  -3.621  0.00  0.00    -0.391 OA
HETATM    3  H   UNK N   1      30.670  26.227  -4.054  0.00  0.00     0.210 HD
ENDROOT
BRANCH   1   4
HETATM    4  C   UNK N   1      28.721  23.727  -4.258  0.00  0.00     0.180 C 
BRANCH   4   5
HETATM    5  C   UNK N   1      28.010  24.903  -4.944  0.00  0.00     0.182 C 
HETATM    6  C   UNK N   1      26.830  24.505  -5.860  0.00  0.00     0.145 C 
HETATM    7  C   UNK N   1      26.026  25.763  -6.269  0.00  0.00     0.149 C 
HETATM    8  C   UNK N   1      26.778  27.056  -5.930  0.00  0.00     0.114 C 
HETATM    9  C   UNK N   1      27.228  27.065  -4.447  0.00  0.00     0.253 C 
HETATM   10  O   UNK N   1      27.510  25.763  -3.938  0.00  0.00    -0.336 OA
BRANCH   6  11
HETATM   11  N   UNK N   1      27.313  23.803  -7.034  0.00  0.00    -0.352 N 
HETATM   12  C   UNK N   1      26.689  22.727  -7.582  0.00  0.00     0.214 C 
HETATM   13  O   UNK N   1      27.168  22.195  -8.568  0.00  0.00    -0.274 OA
HETATM   14  C   UNK N   1      25.421  22.176  -7.006  0.00  0.00     0.117 C 
HETATM   15  H   UNK N   1      28.141  24.124  -7.458  0.00  0.00     0.163 HD
ENDBRANCH   6  11
BRANCH   7  16
HETATM   16  O   UNK N   1      24.785  25.756  -5.633  0.00  0.00    -0.393 OA
HETATM   17  H   UNK N   1      24.320  25.968  -4.809  0.00  0.00     0.210 HD
ENDBRANCH   7  16
BRANCH   9  18
HETATM   18  C   UNK N   1      26.133  27.687  -3.621  0.00  0.00     0.205 C 
HETATM   19  O   UNK N   1      26.041  27.449  -2.427  0.00  0.00    -0.646 OA
BRANCH  18  20
HETATM   20  O   UNK N   1      25.249  28.522  -4.202  0.00  0.00    -0.772 OA
HETATM   21  H   UNK N   1      24.478  28.891  -3.817  0.00  0.00     0.167 HD
ENDBRANCH  18  20
ENDBRANCH   9  18
BRANCH   9  22
HETATM   22  O   UNK N   1      28.372  27.855  -4.324  0.00  0.00    -0.357 OA
HETATM   23  H   UNK N   1      28.695  28.641  -3.856  0.00  0.00     0.213 HD
ENDBRANCH   9  22
ENDBRANCH   4   5
BRANCH   4  24
HETATM   24  O   UNK N   1      29.430  22.956  -5.185  0.00  0.00    -0.390 OA
HETATM   25  H   UNK N   1      29.212  22.952  -6.130  0.00  0.00     0.210 HD
ENDBRANCH   4  24
ENDBRANCH   1   4
BRANCH   1  26
HETATM   26  C   UNK N   1      30.718  23.247  -2.767  0.00  0.00     0.198 C 
BRANCH  26  27
HETATM   27  O   UNK N   1      30.547  22.934  -1.417  0.00  0.00    -0.398 OA
HETATM   28  H   UNK N   1      31.154  23.261  -0.735  0.00  0.00     0.209 HD
ENDBRANCH  26  27
ENDBRANCH   1  26
TORSDOF 10
ENDMDL
