REMARK  4 active torsions:
REMARK  status: ('A' for Active; 'I' for Inactive)
REMARK    1  A    between atoms: C_2  and  O_19 
REMARK    2  A    between atoms: C_4  and  O_20 
REMARK    3  A    between atoms: C_9  and  C_12 
REMARK    4  A    between atoms: C_15  and  O_18 
ROOT
HETATM    1  C   UNK N   1      -2.806   0.772  -0.127  0.00  0.00     0.074 A 
HETATM    2  C   UNK N   1      -4.065   0.177  -0.029  0.00  0.00     0.071 A 
HETATM    3  C   UNK N   1      -4.179  -1.214   0.041  0.00  0.00     0.074 A 
HETATM    4  C   UNK N   1      -3.038  -2.023  -0.009  0.00  0.00     0.085 A 
HETATM    5  C   UNK N   1      -1.764  -1.426  -0.127  0.00  0.00     0.076 A 
HETATM    6  C   UNK N   1      -1.659  -0.022  -0.160  0.00  0.00     0.089 A 
HETATM    7  C   UNK N   1      -0.501  -2.210  -0.228  0.00  0.00     0.167 C 
HETATM    8  C   UNK N   1       0.789  -1.466  -0.478  0.00  0.00     0.121 C 
HETATM    9  C   UNK N   1       0.696  -0.116   0.238  0.00  0.00     0.169 C 
HETATM   10  O   UNK N   1      -0.436   0.566  -0.190  0.00  0.00    -0.340 OA
HETATM   11  O   UNK N   1      -0.494  -3.426  -0.133  0.00  0.00    -0.292 OA
ENDROOT
BRANCH   9  12
HETATM   12  C   UNK N   1       1.933   0.730   0.104  0.00  0.00    -0.028 A 
HETATM   13  C   UNK N   1       1.856   2.047  -0.379  0.00  0.00     0.012 A 
HETATM   14  C   UNK N   1       2.991   2.862  -0.391  0.00  0.00     0.037 A 
HETATM   15  C   UNK N   1       4.210   2.368   0.080  0.00  0.00     0.065 A 
HETATM   16  C   UNK N   1       4.300   1.054   0.546  0.00  0.00     0.037 A 
HETATM   17  C   UNK N   1       3.164   0.239   0.563  0.00  0.00     0.012 A 
BRANCH  15  18
HETATM   18  O   UNK N   1       5.295   3.160   0.091  0.00  0.00    -0.361 OA
HETATM   19  H   UNK N   1       6.152   2.780   0.099  0.00  0.00     0.217 HD
ENDBRANCH  15  18
ENDBRANCH   9  12
BRANCH   4  20
HETATM   20  O   UNK N   1      -3.176  -3.358   0.052  0.00  0.00    -0.360 OA
HETATM   21  H   UNK N   1      -4.030  -3.740   0.094  0.00  0.00     0.217 HD
ENDBRANCH   4  20
BRANCH   2  22
HETATM   22  O   UNK N   1      -5.166   0.944   0.009  0.00  0.00    -0.361 OA
HETATM   23  H   UNK N   1      -5.086   1.878   0.035  0.00  0.00     0.217 HD
ENDBRANCH   2  22
TORSDOF 4
