MODEL 1
REMARK VINA RESULT:      -7.3      0.000      0.000
REMARK  4 active torsions:
REMARK  status: ('A' for Active; 'I' for Inactive)
REMARK    1  A    between atoms: C_2  and  O_19 
REMARK    2  A    between atoms: C_4  and  O_20 
REMARK    3  A    between atoms: C_9  and  C_12 
REMARK    4  A    between atoms: C_15  and  O_18 
ROOT
HETATM    1  C   UNK N   1      33.411  14.821   9.866  0.00  0.00     0.074 A 
HETATM    2  C   UNK N   1      34.244  14.758  10.985  0.00  0.00     0.071 A 
HETATM    3  C   UNK N   1      35.143  15.794  11.249  0.00  0.00     0.074 A 
HETATM    4  C   UNK N   1      35.234  16.892  10.386  0.00  0.00     0.085 A 
HETATM    5  C   UNK N   1      34.407  16.951   9.243  0.00  0.00     0.076 A 
HETATM    6  C   UNK N   1      33.479  15.919   9.007  0.00  0.00     0.089 A 
HETATM    7  C   UNK N   1      34.466  18.061   8.250  0.00  0.00     0.167 C 
HETATM    8  C   UNK N   1      33.623  17.953   7.002  0.00  0.00     0.121 C 
HETATM    9  C   UNK N   1      32.326  17.230   7.375  0.00  0.00     0.169 C 
HETATM   10  O   UNK N   1      32.622  16.004   7.958  0.00  0.00    -0.340 OA
HETATM   11  O   UNK N   1      35.187  19.030   8.416  0.00  0.00    -0.292 OA
ENDROOT
BRANCH   9  12
HETATM   12  C   UNK N   1      31.363  17.076   6.228  0.00  0.00    -0.028 A 
HETATM   13  C   UNK N   1      29.979  17.208   6.428  0.00  0.00     0.012 A 
HETATM   14  C   UNK N   1      29.103  17.179   5.339  0.00  0.00     0.037 A 
HETATM   15  C   UNK N   1      29.603  17.019   4.045  0.00  0.00     0.065 A 
HETATM   16  C   UNK N   1      30.977  16.871   3.838  0.00  0.00     0.037 A 
HETATM   17  C   UNK N   1      31.855  16.904   4.926  0.00  0.00     0.012 A 
BRANCH  15  18
HETATM   18  O   UNK N   1      28.763  17.016   2.997  0.00  0.00    -0.361 OA
HETATM   19  H   UNK N   1      28.076  17.652   2.945  0.00  0.00     0.217 HD
ENDBRANCH  15  18
ENDBRANCH   9  12
BRANCH   4  20
HETATM   20  O   UNK N   1      36.113  17.871  10.658  0.00  0.00    -0.360 OA
HETATM   21  H   UNK N   1      35.936  18.749  10.386  0.00  0.00     0.217 HD
ENDBRANCH   4  20
BRANCH   2  22
HETATM   22  O   UNK N   1      34.172  13.704  11.813  0.00  0.00    -0.361 OA
HETATM   23  H   UNK N   1      34.811  13.595  12.491  0.00  0.00     0.217 HD
ENDBRANCH   2  22
TORSDOF 4
ENDMDL
MODEL 2
REMARK VINA RESULT:      -7.2      5.872     10.365
REMARK  4 active torsions:
REMARK  status: ('A' for Active; 'I' for Inactive)
REMARK    1  A    between atoms: C_2  and  O_19 
REMARK    2  A    between atoms: C_4  and  O_20 
REMARK    3  A    between atoms: C_9  and  C_12 
REMARK    4  A    between atoms: C_15  and  O_18 
ROOT
HETATM    1  C   UNK N   1      35.965  15.356  12.395  0.00  0.00     0.074 A 
HETATM    2  C   UNK N   1      36.198  15.547  11.032  0.00  0.00     0.071 A 
HETATM    3  C   UNK N   1      36.767  14.524  10.269  0.00  0.00     0.074 A 
HETATM    4  C   UNK N   1      37.129  13.311  10.865  0.00  0.00     0.085 A 
HETATM    5  C   UNK N   1      36.913  13.121  12.247  0.00  0.00     0.076 A 
HETATM    6  C   UNK N   1      36.305  14.145  12.999  0.00  0.00     0.089 A 
HETATM    7  C   UNK N   1      37.304  11.879  12.972  0.00  0.00     0.167 C 
HETATM    8  C   UNK N   1      37.138  11.840  14.473  0.00  0.00     0.121 C 
HETATM    9  C   UNK N   1      35.895  12.660  14.827  0.00  0.00     0.169 C 
HETATM   10  O   UNK N   1      36.016  13.944  14.310  0.00  0.00    -0.340 OA
HETATM   11  O   UNK N   1      37.767  10.915  12.385  0.00  0.00    -0.292 OA
ENDROOT
BRANCH   9  12
HETATM   12  C   UNK N   1      35.582  12.685  16.298  0.00  0.00    -0.028 A 
HETATM   13  C   UNK N   1      35.515  11.495  17.041  0.00  0.00     0.012 A 
HETATM   14  C   UNK N   1      35.339  11.536  18.427  0.00  0.00     0.037 A 
HETATM   15  C   UNK N   1      35.229  12.766  19.080  0.00  0.00     0.065 A 
HETATM   16  C   UNK N   1      35.277  13.955  18.347  0.00  0.00     0.037 A 
HETATM   17  C   UNK N   1      35.458  13.915  16.962  0.00  0.00     0.012 A 
BRANCH  15  18
HETATM   18  O   UNK N   1      35.084  12.805  20.415  0.00  0.00    -0.361 OA
HETATM   19  H   UNK N   1      34.281  12.523  20.807  0.00  0.00     0.217 HD
ENDBRANCH  15  18
ENDBRANCH   9  12
BRANCH   4  20
HETATM   20  O   UNK N   1      37.682  12.347  10.110  0.00  0.00    -0.360 OA
HETATM   21  H   UNK N   1      38.498  12.501   9.676  0.00  0.00     0.217 HD
ENDBRANCH   4  20
BRANCH   2  22
HETATM   22  O   UNK N   1      35.864  16.711  10.453  0.00  0.00    -0.361 OA
HETATM   23  H   UNK N   1      35.010  16.822  10.081  0.00  0.00     0.217 HD
ENDBRANCH   2  22
TORSDOF 4
ENDMDL
MODEL 3
REMARK VINA RESULT:      -6.9     12.488     14.874
REMARK  4 active torsions:
REMARK  status: ('A' for Active; 'I' for Inactive)
REMARK    1  A    between atoms: C_2  and  O_19 
REMARK    2  A    between atoms: C_4  and  O_20 
REMARK    3  A    between atoms: C_9  and  C_12 
REMARK    4  A    between atoms: C_15  and  O_18 
ROOT
HETATM    1  C   UNK N   1      30.234  21.377  -6.044  0.00  0.00     0.074 A 
HETATM    2  C   UNK N   1      31.231  20.413  -5.883  0.00  0.00     0.071 A 
HETATM    3  C   UNK N   1      31.886  20.280  -4.656  0.00  0.00     0.074 A 
HETATM    4  C   UNK N   1      31.566  21.122  -3.586  0.00  0.00     0.085 A 
HETATM    5  C   UNK N   1      30.571  22.111  -3.749  0.00  0.00     0.076 A 
HETATM    6  C   UNK N   1      29.892  22.212  -4.979  0.00  0.00     0.089 A 
HETATM    7  C   UNK N   1      30.195  23.076  -2.678  0.00  0.00     0.167 C 
HETATM    8  C   UNK N   1      29.207  24.169  -3.010  0.00  0.00     0.121 C 
HETATM    9  C   UNK N   1      28.203  23.602  -4.016  0.00  0.00     0.169 C 
HETATM   10  O   UNK N   1      28.878  23.102  -5.123  0.00  0.00    -0.340 OA
HETATM   11  O   UNK N   1      30.678  23.011  -1.560  0.00  0.00    -0.292 OA
ENDROOT
BRANCH   9  12
HETATM   12  C   UNK N   1      27.129  24.576  -4.419  0.00  0.00    -0.028 A 
HETATM   13  C   UNK N   1      26.889  25.736  -3.664  0.00  0.00     0.012 A 
HETATM   14  C   UNK N   1      25.971  26.690  -4.109  0.00  0.00     0.037 A 
HETATM   15  C   UNK N   1      25.286  26.493  -5.311  0.00  0.00     0.065 A 
HETATM   16  C   UNK N   1      25.505  25.334  -6.060  0.00  0.00     0.037 A 
HETATM   17  C   UNK N   1      26.428  24.380  -5.618  0.00  0.00     0.012 A 
BRANCH  15  18
HETATM   18  O   UNK N   1      24.421  27.422  -5.751  0.00  0.00    -0.361 OA
HETATM   19  H   UNK N   1      23.501  27.244  -5.748  0.00  0.00     0.217 HD
ENDBRANCH  15  18
ENDBRANCH   9  12
BRANCH   4  20
HETATM   20  O   UNK N   1      32.216  20.978  -2.419  0.00  0.00    -0.360 OA
HETATM   21  H   UNK N   1      33.022  20.504  -2.386  0.00  0.00     0.217 HD
ENDBRANCH   4  20
BRANCH   2  22
HETATM   22  O   UNK N   1      31.553  19.607  -6.908  0.00  0.00    -0.361 OA
HETATM   23  H   UNK N   1      30.923  18.997  -7.240  0.00  0.00     0.217 HD
ENDBRANCH   2  22
TORSDOF 4
ENDMDL
MODEL 4
REMARK VINA RESULT:      -6.9      3.752      6.064
REMARK  4 active torsions:
REMARK  status: ('A' for Active; 'I' for Inactive)
REMARK    1  A    between atoms: C_2  and  O_19 
REMARK    2  A    between atoms: C_4  and  O_20 
REMARK    3  A    between atoms: C_9  and  C_12 
REMARK    4  A    between atoms: C_15  and  O_18 
ROOT
HETATM    1  C   UNK N   1      28.620  18.671   8.383  0.00  0.00     0.074 A 
HETATM    2  C   UNK N   1      29.700  18.314   9.193  0.00  0.00     0.071 A 
HETATM    3  C   UNK N   1      30.766  17.586   8.658  0.00  0.00     0.074 A 
HETATM    4  C   UNK N   1      30.752  17.189   7.315  0.00  0.00     0.085 A 
HETATM    5  C   UNK N   1      29.653  17.532   6.498  0.00  0.00     0.076 A 
HETATM    6  C   UNK N   1      28.602  18.297   7.039  0.00  0.00     0.089 A 
HETATM    7  C   UNK N   1      29.536  17.118   5.072  0.00  0.00     0.167 C 
HETATM    8  C   UNK N   1      28.257  17.435   4.334  0.00  0.00     0.121 C 
HETATM    9  C   UNK N   1      27.731  18.771   4.864  0.00  0.00     0.169 C 
HETATM   10  O   UNK N   1      27.580  18.703   6.243  0.00  0.00    -0.340 OA
HETATM   11  O   UNK N   1      30.434  16.519   4.504  0.00  0.00    -0.292 OA
ENDROOT
BRANCH   9  12
HETATM   12  C   UNK N   1      26.467  19.237   4.193  0.00  0.00    -0.028 A 
HETATM   13  C   UNK N   1      25.221  18.695   4.549  0.00  0.00     0.012 A 
HETATM   14  C   UNK N   1      24.044  19.214   4.004  0.00  0.00     0.037 A 
HETATM   15  C   UNK N   1      24.102  20.278   3.102  0.00  0.00     0.065 A 
HETATM   16  C   UNK N   1      25.338  20.813   2.728  0.00  0.00     0.037 A 
HETATM   17  C   UNK N   1      26.517  20.297   3.276  0.00  0.00     0.012 A 
BRANCH  15  18
HETATM   18  O   UNK N   1      22.969  20.793   2.597  0.00  0.00    -0.361 OA
HETATM   19  H   UNK N   1      22.914  21.710   2.409  0.00  0.00     0.217 HD
ENDBRANCH  15  18
ENDBRANCH   9  12
BRANCH   4  20
HETATM   20  O   UNK N   1      31.786  16.483   6.828  0.00  0.00    -0.360 OA
HETATM   21  H   UNK N   1      32.187  15.817   7.350  0.00  0.00     0.217 HD
ENDBRANCH   4  20
BRANCH   2  22
HETATM   22  O   UNK N   1      29.718  18.680  10.484  0.00  0.00    -0.361 OA
HETATM   23  H   UNK N   1      30.517  18.974  10.877  0.00  0.00     0.217 HD
ENDBRANCH   2  22
TORSDOF 4
ENDMDL
MODEL 5
REMARK VINA RESULT:      -6.9      9.604     11.298
REMARK  4 active torsions:
REMARK  status: ('A' for Active; 'I' for Inactive)
REMARK    1  A    between atoms: C_2  and  O_19 
REMARK    2  A    between atoms: C_4  and  O_20 
REMARK    3  A    between atoms: C_9  and  C_12 
REMARK    4  A    between atoms: C_15  and  O_18 
ROOT
HETATM    1  C   UNK N   1      24.162  13.127   9.931  0.00  0.00     0.074 A 
HETATM    2  C   UNK N   1      24.175  12.151  10.929  0.00  0.00     0.071 A 
HETATM    3  C   UNK N   1      22.976  11.730  11.512  0.00  0.00     0.074 A 
HETATM    4  C   UNK N   1      21.758  12.296  11.119  0.00  0.00     0.085 A 
HETATM    5  C   UNK N   1      21.743  13.297  10.124  0.00  0.00     0.076 A 
HETATM    6  C   UNK N   1      22.953  13.687   9.517  0.00  0.00     0.089 A 
HETATM    7  C   UNK N   1      20.499  13.983   9.674  0.00  0.00     0.167 C 
HETATM    8  C   UNK N   1      20.622  15.125   8.694  0.00  0.00     0.121 C 
HETATM    9  C   UNK N   1      21.793  14.814   7.757  0.00  0.00     0.169 C 
HETATM   10  O   UNK N   1      22.943  14.588   8.502  0.00  0.00    -0.340 OA
HETATM   11  O   UNK N   1      19.402  13.655  10.092  0.00  0.00    -0.292 OA
ENDROOT
BRANCH   9  12
HETATM   12  C   UNK N   1      22.018  15.857   6.697  0.00  0.00    -0.028 A 
HETATM   13  C   UNK N   1      21.246  17.031   6.666  0.00  0.00     0.012 A 
HETATM   14  C   UNK N   1      21.538  18.044   5.750  0.00  0.00     0.037 A 
HETATM   15  C   UNK N   1      22.604  17.894   4.860  0.00  0.00     0.065 A 
HETATM   16  C   UNK N   1      23.367  16.723   4.872  0.00  0.00     0.037 A 
HETATM   17  C   UNK N   1      23.078  15.710   5.791  0.00  0.00     0.012 A 
BRANCH  15  18
HETATM   18  O   UNK N   1      22.901  18.879   3.996  0.00  0.00    -0.361 OA
HETATM   19  H   UNK N   1      22.651  19.762   4.189  0.00  0.00     0.217 HD
ENDBRANCH  15  18
ENDBRANCH   9  12
BRANCH   4  20
HETATM   20  O   UNK N   1      20.622  11.879  11.701  0.00  0.00    -0.360 OA
HETATM   21  H   UNK N   1      19.799  12.242  11.439  0.00  0.00     0.217 HD
ENDBRANCH   4  20
BRANCH   2  22
HETATM   22  O   UNK N   1      25.339  11.609  11.320  0.00  0.00    -0.361 OA
HETATM   23  H   UNK N   1      26.150  12.001  11.058  0.00  0.00     0.217 HD
ENDBRANCH   2  22
TORSDOF 4
ENDMDL
MODEL 6
REMARK VINA RESULT:      -6.6      3.373      5.572
REMARK  4 active torsions:
REMARK  status: ('A' for Active; 'I' for Inactive)
REMARK    1  A    between atoms: C_2  and  O_19 
REMARK    2  A    between atoms: C_4  and  O_20 
REMARK    3  A    between atoms: C_9  and  C_12 
REMARK    4  A    between atoms: C_15  and  O_18 
ROOT
HETATM    1  C   UNK N   1      31.001  16.928   5.292  0.00  0.00     0.074 A 
HETATM    2  C   UNK N   1      31.997  16.295   6.038  0.00  0.00     0.071 A 
HETATM    3  C   UNK N   1      31.932  16.291   7.434  0.00  0.00     0.074 A 
HETATM    4  C   UNK N   1      30.883  16.937   8.097  0.00  0.00     0.085 A 
HETATM    5  C   UNK N   1      29.883  17.594   7.347  0.00  0.00     0.076 A 
HETATM    6  C   UNK N   1      29.939  17.560   5.941  0.00  0.00     0.089 A 
HETATM    7  C   UNK N   1      28.753  18.340   7.970  0.00  0.00     0.167 C 
HETATM    8  C   UNK N   1      27.816  19.109   7.069  0.00  0.00     0.121 C 
HETATM    9  C   UNK N   1      27.683  18.329   5.759  0.00  0.00     0.169 C 
HETATM   10  O   UNK N   1      28.941  18.117   5.208  0.00  0.00    -0.340 OA
HETATM   11  O   UNK N   1      28.587  18.357   9.178  0.00  0.00    -0.292 OA
ENDROOT
BRANCH   9  12
HETATM   12  C   UNK N   1      26.747  18.962   4.766  0.00  0.00    -0.028 A 
HETATM   13  C   UNK N   1      25.375  18.662   4.777  0.00  0.00     0.012 A 
HETATM   14  C   UNK N   1      24.496  19.341   3.929  0.00  0.00     0.037 A 
HETATM   15  C   UNK N   1      24.982  20.325   3.064  0.00  0.00     0.065 A 
HETATM   16  C   UNK N   1      26.348  20.619   3.034  0.00  0.00     0.037 A 
HETATM   17  C   UNK N   1      27.227  19.943   3.886  0.00  0.00     0.012 A 
BRANCH  15  18
HETATM   18  O   UNK N   1      24.133  20.995   2.267  0.00  0.00    -0.361 OA
HETATM   19  H   UNK N   1      23.355  21.376   2.625  0.00  0.00     0.217 HD
ENDBRANCH  15  18
ENDBRANCH   9  12
BRANCH   4  20
HETATM   20  O   UNK N   1      30.848  16.924   9.440  0.00  0.00    -0.360 OA
HETATM   21  H   UNK N   1      30.608  16.142   9.896  0.00  0.00     0.217 HD
ENDBRANCH   4  20
BRANCH   2  22
HETATM   22  O   UNK N   1      33.014  15.682   5.411  0.00  0.00    -0.361 OA
HETATM   23  H   UNK N   1      33.154  15.825   4.495  0.00  0.00     0.217 HD
ENDBRANCH   2  22
TORSDOF 4
ENDMDL
MODEL 7
REMARK VINA RESULT:      -6.4      6.858     10.397
REMARK  4 active torsions:
REMARK  status: ('A' for Active; 'I' for Inactive)
REMARK    1  A    between atoms: C_2  and  O_19 
REMARK    2  A    between atoms: C_4  and  O_20 
REMARK    3  A    between atoms: C_9  and  C_12 
REMARK    4  A    between atoms: C_15  and  O_18 
ROOT
HETATM    1  C   UNK N   1      33.851  10.253  12.647  0.00  0.00     0.074 A 
HETATM    2  C   UNK N   1      33.799   9.955  11.284  0.00  0.00     0.071 A 
HETATM    3  C   UNK N   1      34.474  10.762  10.364  0.00  0.00     0.074 A 
HETATM    4  C   UNK N   1      35.187  11.886  10.796  0.00  0.00     0.085 A 
HETATM    5  C   UNK N   1      35.227  12.202  12.171  0.00  0.00     0.076 A 
HETATM    6  C   UNK N   1      34.573  11.361  13.093  0.00  0.00     0.089 A 
HETATM    7  C   UNK N   1      35.927  13.400  12.714  0.00  0.00     0.167 C 
HETATM    8  C   UNK N   1      35.794  13.704  14.187  0.00  0.00     0.121 C 
HETATM    9  C   UNK N   1      35.715  12.370  14.934  0.00  0.00     0.169 C 
HETATM   10  O   UNK N   1      34.672  11.607  14.424  0.00  0.00    -0.340 OA
HETATM   11  O   UNK N   1      36.579  14.139  11.996  0.00  0.00    -0.292 OA
ENDROOT
BRANCH   9  12
HETATM   12  C   UNK N   1      35.612  12.515  16.428  0.00  0.00    -0.028 A 
HETATM   13  C   UNK N   1      35.439  13.777  17.019  0.00  0.00     0.012 A 
HETATM   14  C   UNK N   1      35.229  13.889  18.396  0.00  0.00     0.037 A 
HETATM   15  C   UNK N   1      35.189  12.742  19.192  0.00  0.00     0.065 A 
HETATM   16  C   UNK N   1      35.378  11.483  18.616  0.00  0.00     0.037 A 
HETATM   17  C   UNK N   1      35.583  11.369  17.237  0.00  0.00     0.012 A 
BRANCH  15  18
HETATM   18  O   UNK N   1      34.963  12.849  20.512  0.00  0.00    -0.361 OA
HETATM   19  H   UNK N   1      34.094  13.006  20.827  0.00  0.00     0.217 HD
ENDBRANCH  15  18
ENDBRANCH   9  12
BRANCH   4  20
HETATM   20  O   UNK N   1      35.820  12.650   9.890  0.00  0.00    -0.360 OA
HETATM   21  H   UNK N   1      36.742  12.800   9.964  0.00  0.00     0.217 HD
ENDBRANCH   4  20
BRANCH   2  22
HETATM   22  O   UNK N   1      33.109   8.885  10.860  0.00  0.00    -0.361 OA
HETATM   23  H   UNK N   1      32.855   8.219  11.469  0.00  0.00     0.217 HD
ENDBRANCH   2  22
TORSDOF 4
ENDMDL
MODEL 8
REMARK VINA RESULT:      -6.4      9.557     11.305
REMARK  4 active torsions:
REMARK  status: ('A' for Active; 'I' for Inactive)
REMARK    1  A    between atoms: C_2  and  O_19 
REMARK    2  A    between atoms: C_4  and  O_20 
REMARK    3  A    between atoms: C_9  and  C_12 
REMARK    4  A    between atoms: C_15  and  O_18 
ROOT
HETATM    1  C   UNK N   1      21.054  12.831   9.993  0.00  0.00     0.074 A 
HETATM    2  C   UNK N   1      21.614  12.205  11.107  0.00  0.00     0.071 A 
HETATM    3  C   UNK N   1      23.003  12.114  11.236  0.00  0.00     0.074 A 
HETATM    4  C   UNK N   1      23.843  12.628  10.241  0.00  0.00     0.085 A 
HETATM    5  C   UNK N   1      23.280  13.245   9.103  0.00  0.00     0.076 A 
HETATM    6  C   UNK N   1      21.880  13.363   9.002  0.00  0.00     0.089 A 
HETATM    7  C   UNK N   1      24.096  13.783   7.978  0.00  0.00     0.167 C 
HETATM    8  C   UNK N   1      23.380  14.307   6.757  0.00  0.00     0.121 C 
HETATM    9  C   UNK N   1      22.070  14.948   7.222  0.00  0.00     0.169 C 
HETATM   10  O   UNK N   1      21.330  14.027   7.954  0.00  0.00    -0.340 OA
HETATM   11  O   UNK N   1      25.315  13.789   8.019  0.00  0.00    -0.292 OA
ENDROOT
BRANCH   9  12
HETATM   12  C   UNK N   1      21.256  15.548   6.108  0.00  0.00    -0.028 A 
HETATM   13  C   UNK N   1      19.875  15.309   6.015  0.00  0.00     0.012 A 
HETATM   14  C   UNK N   1      19.109  15.963   5.046  0.00  0.00     0.037 A 
HETATM   15  C   UNK N   1      19.717  16.859   4.164  0.00  0.00     0.065 A 
HETATM   16  C   UNK N   1      21.093  17.090   4.237  0.00  0.00     0.037 A 
HETATM   17  C   UNK N   1      21.860  16.440   5.210  0.00  0.00     0.012 A 
BRANCH  15  18
HETATM   18  O   UNK N   1      18.976  17.506   3.249  0.00  0.00    -0.361 OA
HETATM   19  H   UNK N   1      18.058  17.631   3.393  0.00  0.00     0.217 HD
ENDBRANCH  15  18
ENDBRANCH   9  12
BRANCH   4  20
HETATM   20  O   UNK N   1      25.174  12.520  10.386  0.00  0.00    -0.360 OA
HETATM   21  H   UNK N   1      25.640  11.838   9.946  0.00  0.00     0.217 HD
ENDBRANCH   4  20
BRANCH   2  22
HETATM   22  O   UNK N   1      20.817  11.699  12.062  0.00  0.00    -0.361 OA
HETATM   23  H   UNK N   1      19.950  11.413  11.845  0.00  0.00     0.217 HD
ENDBRANCH   2  22
TORSDOF 4
ENDMDL
MODEL 9
REMARK VINA RESULT:      -6.4     12.492     16.652
REMARK  4 active torsions:
REMARK  status: ('A' for Active; 'I' for Inactive)
REMARK    1  A    between atoms: C_2  and  O_19 
REMARK    2  A    between atoms: C_4  and  O_20 
REMARK    3  A    between atoms: C_9  and  C_12 
REMARK    4  A    between atoms: C_15  and  O_18 
ROOT
HETATM    1  C   UNK N   1      27.840  27.738  -3.491  0.00  0.00     0.074 A 
HETATM    2  C   UNK N   1      26.887  28.757  -3.548  0.00  0.00     0.071 A 
HETATM    3  C   UNK N   1      25.698  28.565  -4.256  0.00  0.00     0.074 A 
HETATM    4  C   UNK N   1      25.460  27.362  -4.931  0.00  0.00     0.085 A 
HETATM    5  C   UNK N   1      26.429  26.336  -4.891  0.00  0.00     0.076 A 
HETATM    6  C   UNK N   1      27.607  26.527  -4.144  0.00  0.00     0.089 A 
HETATM    7  C   UNK N   1      26.277  25.041  -5.612  0.00  0.00     0.167 C 
HETATM    8  C   UNK N   1      27.434  24.071  -5.598  0.00  0.00     0.121 C 
HETATM    9  C   UNK N   1      28.135  24.198  -4.243  0.00  0.00     0.169 C 
HETATM   10  O   UNK N   1      28.509  25.519  -4.029  0.00  0.00    -0.340 OA
HETATM   11  O   UNK N   1      25.257  24.763  -6.220  0.00  0.00    -0.292 OA
ENDROOT
BRANCH   9  12
HETATM   12  C   UNK N   1      29.299  23.260  -4.070  0.00  0.00    -0.028 A 
HETATM   13  C   UNK N   1      30.034  23.238  -2.872  0.00  0.00     0.012 A 
HETATM   14  C   UNK N   1      31.038  22.286  -2.678  0.00  0.00     0.037 A 
HETATM   15  C   UNK N   1      31.314  21.349  -3.677  0.00  0.00     0.065 A 
HETATM   16  C   UNK N   1      30.601  21.375  -4.878  0.00  0.00     0.037 A 
HETATM   17  C   UNK N   1      29.593  22.324  -5.072  0.00  0.00     0.012 A 
BRANCH  15  18
HETATM   18  O   UNK N   1      32.263  20.419  -3.480  0.00  0.00    -0.361 OA
HETATM   19  H   UNK N   1      32.865  20.508  -2.766  0.00  0.00     0.217 HD
ENDBRANCH  15  18
ENDBRANCH   9  12
BRANCH   4  20
HETATM   20  O   UNK N   1      24.312  27.206  -5.611  0.00  0.00    -0.360 OA
HETATM   21  H   UNK N   1      24.293  27.342  -6.538  0.00  0.00     0.217 HD
ENDBRANCH   4  20
BRANCH   2  22
HETATM   22  O   UNK N   1      27.111  29.918  -2.913  0.00  0.00    -0.361 OA
HETATM   23  H   UNK N   1      26.921  29.996  -1.998  0.00  0.00     0.217 HD
ENDBRANCH   2  22
TORSDOF 4
ENDMDL
