MODEL 1
REMARK VINA RESULT:      -6.2      0.000      0.000
REMARK  5 active torsions:
REMARK  status: ('A' for Active; 'I' for Inactive)
REMARK    1  A    between atoms: C_7  and  C_2 
REMARK    2  A    between atoms: C_4  and  O_13 
REMARK    3  A    between atoms: C_12  and  C_14 
REMARK    4  A    between atoms: C_14  and  O_15 
REMARK    5  A    between atoms: O_15  and  C_16 
ROOT
HETATM    1  C   UNK N   1      26.470  23.938  -4.991  0.00  0.00     0.158 A 
HETATM    2  N   UNK N   1      25.563  23.312  -5.937  0.00  0.00    -0.354 N 
HETATM    3  C   UNK N   1      26.004  22.501  -7.001  0.00  0.00     0.172 A 
HETATM    4  N   UNK N   1      27.374  22.230  -7.147  0.00  0.00    -0.337 N 
HETATM    5  C   UNK N   1      28.337  22.804  -6.285  0.00  0.00     0.022 A 
HETATM    6  C   UNK N   1      27.968  23.647  -5.266  0.00  0.00     0.066 A 
HETATM    7  C   UNK N   1      29.747  22.347  -6.483  0.00  0.00     0.069 C 
HETATM    8  S   UNK N   1      25.053  21.878  -7.873  0.00  0.00    -0.041 SA
HETATM    9  H   UNK N   1      24.596  23.462  -5.831  0.00  0.00     0.163 HD
HETATM   10  H   UNK N   1      27.671  21.627  -7.867  0.00  0.00     0.168 HD
ENDROOT
BRANCH   1  11
HETATM   11  C   UNK N   1      26.090  25.406  -4.863  0.00  0.00    -0.028 A 
HETATM   12  C   UNK N   1      25.273  25.975  -5.857  0.00  0.00     0.010 A 
HETATM   13  C   UNK N   1      24.836  27.296  -5.753  0.00  0.00     0.003 A 
HETATM   14  C   UNK N   1      25.188  28.062  -4.641  0.00  0.00     0.036 A 
HETATM   15  C   UNK N   1      25.993  27.512  -3.641  0.00  0.00     0.066 A 
HETATM   16  C   UNK N   1      26.453  26.194  -3.755  0.00  0.00     0.046 A 
BRANCH  15  17
HETATM   17  O   UNK N   1      26.312  28.244  -2.562  0.00  0.00    -0.361 OA
HETATM   18  H   UNK N   1      27.035  28.067  -1.992  0.00  0.00     0.217 HD
ENDBRANCH  15  17
ENDBRANCH   1  11
BRANCH   6  19
HETATM   19  C   UNK N   1      28.975  24.243  -4.304  0.00  0.00     0.293 C 
HETATM   20  O   UNK N   1      29.687  25.152  -4.694  0.00  0.00    -0.259 OA
BRANCH  19  21
HETATM   21  O   UNK N   1      29.163  23.786  -3.036  0.00  0.00    -0.318 OA
BRANCH  21  22
HETATM   22  C   UNK N   1      29.682  22.543  -2.747  0.00  0.00     0.174 C 
HETATM   23  C   UNK N   1      31.184  22.562  -2.946  0.00  0.00     0.034 C 
ENDBRANCH  21  22
ENDBRANCH  19  21
ENDBRANCH   6  19
TORSDOF 5
ENDMDL
MODEL 2
REMARK VINA RESULT:      -6.1     13.287     15.699
REMARK  5 active torsions:
REMARK  status: ('A' for Active; 'I' for Inactive)
REMARK    1  A    between atoms: C_7  and  C_2 
REMARK    2  A    between atoms: C_4  and  O_13 
REMARK    3  A    between atoms: C_12  and  C_14 
REMARK    4  A    between atoms: C_14  and  O_15 
REMARK    5  A    between atoms: O_15  and  C_16 
ROOT
HETATM    1  C   UNK N   1      30.894  16.321   7.700  0.00  0.00     0.158 A 
HETATM    2  N   UNK N   1      29.978  17.373   8.107  0.00  0.00    -0.354 N 
HETATM    3  C   UNK N   1      29.141  18.053   7.202  0.00  0.00     0.172 A 
HETATM    4  N   UNK N   1      29.136  17.685   5.847  0.00  0.00    -0.337 N 
HETATM    5  C   UNK N   1      30.002  16.682   5.351  0.00  0.00     0.022 A 
HETATM    6  C   UNK N   1      30.879  16.026   6.177  0.00  0.00     0.066 A 
HETATM    7  C   UNK N   1      29.818  16.312   3.913  0.00  0.00     0.069 C 
HETATM    8  S   UNK N   1      28.229  19.051   7.676  0.00  0.00    -0.041 SA
HETATM    9  H   UNK N   1      29.941  17.622   9.058  0.00  0.00     0.163 HD
HETATM   10  H   UNK N   1      28.517  18.136   5.227  0.00  0.00     0.168 HD
ENDROOT
BRANCH   1  11
HETATM   11  C   UNK N   1      32.259  16.613   8.308  0.00  0.00    -0.028 A 
HETATM   12  C   UNK N   1      32.870  15.615   9.087  0.00  0.00     0.010 A 
HETATM   13  C   UNK N   1      34.151  15.801   9.610  0.00  0.00     0.003 A 
HETATM   14  C   UNK N   1      34.851  16.977   9.338  0.00  0.00     0.036 A 
HETATM   15  C   UNK N   1      34.262  17.976   8.560  0.00  0.00     0.066 A 
HETATM   16  C   UNK N   1      32.968  17.802   8.055  0.00  0.00     0.046 A 
BRANCH  15  17
HETATM   17  O   UNK N   1      34.947  19.097   8.283  0.00  0.00    -0.361 OA
HETATM   18  H   UNK N   1      34.954  19.864   8.822  0.00  0.00     0.217 HD
ENDBRANCH  15  17
ENDBRANCH   1  11
BRANCH   6  19
HETATM   19  C   UNK N   1      31.788  14.921   5.680  0.00  0.00     0.293 C 
HETATM   20  O   UNK N   1      31.634  13.796   6.125  0.00  0.00    -0.259 OA
BRANCH  19  21
HETATM   21  O   UNK N   1      32.803  15.124   4.797  0.00  0.00    -0.318 OA
BRANCH  21  22
HETATM   22  C   UNK N   1      33.829  16.016   5.012  0.00  0.00     0.174 C 
HETATM   23  C   UNK N   1      34.893  15.367   5.874  0.00  0.00     0.034 C 
ENDBRANCH  21  22
ENDBRANCH  19  21
ENDBRANCH   6  19
TORSDOF 5
ENDMDL
MODEL 3
REMARK VINA RESULT:      -6.0      2.376      2.929
REMARK  5 active torsions:
REMARK  status: ('A' for Active; 'I' for Inactive)
REMARK    1  A    between atoms: C_7  and  C_2 
REMARK    2  A    between atoms: C_4  and  O_13 
REMARK    3  A    between atoms: C_12  and  C_14 
REMARK    4  A    between atoms: C_14  and  O_15 
REMARK    5  A    between atoms: O_15  and  C_16 
ROOT
HETATM    1  C   UNK N   1      25.801  26.105  -6.402  0.00  0.00     0.158 A 
HETATM    2  N   UNK N   1      25.486  26.283  -7.809  0.00  0.00    -0.354 N 
HETATM    3  C   UNK N   1      25.852  25.352  -8.800  0.00  0.00     0.172 A 
HETATM    4  N   UNK N   1      26.509  24.166  -8.433  0.00  0.00    -0.337 N 
HETATM    5  C   UNK N   1      26.871  23.908  -7.090  0.00  0.00     0.022 A 
HETATM    6  C   UNK N   1      26.590  24.806  -6.091  0.00  0.00     0.066 A 
HETATM    7  C   UNK N   1      27.466  22.563  -6.821  0.00  0.00     0.069 C 
HETATM    8  S   UNK N   1      25.472  25.567 -10.165  0.00  0.00    -0.041 SA
HETATM    9  H   UNK N   1      24.995  27.091  -8.082  0.00  0.00     0.163 HD
HETATM   10  H   UNK N   1      26.723  23.500  -9.126  0.00  0.00     0.168 HD
ENDROOT
BRANCH   1  11
HETATM   11  C   UNK N   1      26.415  27.397  -5.882  0.00  0.00    -0.028 A 
HETATM   12  C   UNK N   1      27.406  28.025  -6.656  0.00  0.00     0.010 A 
HETATM   13  C   UNK N   1      27.953  29.248  -6.262  0.00  0.00     0.003 A 
HETATM   14  C   UNK N   1      27.496  29.874  -5.102  0.00  0.00     0.036 A 
HETATM   15  C   UNK N   1      26.508  29.268  -4.324  0.00  0.00     0.066 A 
HETATM   16  C   UNK N   1      25.975  28.030  -4.704  0.00  0.00     0.046 A 
BRANCH  15  17
HETATM   17  O   UNK N   1      26.056  29.883  -3.220  0.00  0.00    -0.361 OA
HETATM   18  H   UNK N   1      26.194  29.576  -2.344  0.00  0.00     0.217 HD
ENDBRANCH  15  17
ENDBRANCH   1  11
BRANCH   6  19
HETATM   19  C   UNK N   1      26.930  24.537  -4.640  0.00  0.00     0.293 C 
HETATM   20  O   UNK N   1      26.022  24.294  -3.864  0.00  0.00    -0.259 OA
BRANCH  19  21
HETATM   21  O   UNK N   1      28.195  24.598  -4.142  0.00  0.00    -0.318 OA
BRANCH  21  22
HETATM   22  C   UNK N   1      29.213  25.305  -4.741  0.00  0.00     0.174 C 
HETATM   23  C   UNK N   1      29.500  26.559  -3.939  0.00  0.00     0.034 C 
ENDBRANCH  21  22
ENDBRANCH  19  21
ENDBRANCH   6  19
TORSDOF 5
ENDMDL
MODEL 4
REMARK VINA RESULT:      -6.0     12.577     14.325
REMARK  5 active torsions:
REMARK  status: ('A' for Active; 'I' for Inactive)
REMARK    1  A    between atoms: C_7  and  C_2 
REMARK    2  A    between atoms: C_4  and  O_13 
REMARK    3  A    between atoms: C_12  and  C_14 
REMARK    4  A    between atoms: C_14  and  O_15 
REMARK    5  A    between atoms: O_15  and  C_16 
ROOT
HETATM    1  C   UNK N   1      30.718  16.345   5.971  0.00  0.00     0.158 A 
HETATM    2  N   UNK N   1      31.294  16.145   4.653  0.00  0.00    -0.354 N 
HETATM    3  C   UNK N   1      32.591  16.571   4.310  0.00  0.00     0.172 A 
HETATM    4  N   UNK N   1      33.404  17.176   5.281  0.00  0.00    -0.337 N 
HETATM    5  C   UNK N   1      32.930  17.427   6.590  0.00  0.00     0.022 A 
HETATM    6  C   UNK N   1      31.654  17.084   6.963  0.00  0.00     0.066 A 
HETATM    7  C   UNK N   1      33.933  17.975   7.555  0.00  0.00     0.069 C 
HETATM    8  S   UNK N   1      33.114  16.303   3.003  0.00  0.00    -0.041 SA
HETATM    9  H   UNK N   1      30.752  15.691   3.968  0.00  0.00     0.163 HD
HETATM   10  H   UNK N   1      34.326  17.432   5.046  0.00  0.00     0.168 HD
ENDROOT
BRANCH   1  11
HETATM   11  C   UNK N   1      29.327  16.939   5.802  0.00  0.00    -0.028 A 
HETATM   12  C   UNK N   1      29.199  18.151   5.101  0.00  0.00     0.010 A 
HETATM   13  C   UNK N   1      27.941  18.704   4.855  0.00  0.00     0.003 A 
HETATM   14  C   UNK N   1      26.791  18.040   5.282  0.00  0.00     0.036 A 
HETATM   15  C   UNK N   1      26.899  16.832   5.974  0.00  0.00     0.066 A 
HETATM   16  C   UNK N   1      28.161  16.287   6.244  0.00  0.00     0.046 A 
BRANCH  15  17
HETATM   17  O   UNK N   1      25.790  16.185   6.366  0.00  0.00    -0.361 OA
HETATM   18  H   UNK N   1      25.291  16.397   7.130  0.00  0.00     0.217 HD
ENDBRANCH  15  17
ENDBRANCH   1  11
BRANCH   6  19
HETATM   19  C   UNK N   1      31.135  17.305   8.368  0.00  0.00     0.293 C 
HETATM   20  O   UNK N   1      31.094  16.354   9.130  0.00  0.00    -0.259 OA
BRANCH  19  21
HETATM   21  O   UNK N   1      30.663  18.501   8.816  0.00  0.00    -0.318 OA
BRANCH  21  22
HETATM   22  C   UNK N   1      29.654  18.619   9.746  0.00  0.00     0.174 C 
HETATM   23  C   UNK N   1      28.312  18.473   9.058  0.00  0.00     0.034 C 
ENDBRANCH  21  22
ENDBRANCH  19  21
ENDBRANCH   6  19
TORSDOF 5
ENDMDL
MODEL 5
REMARK VINA RESULT:      -5.9     20.302     22.885
REMARK  5 active torsions:
REMARK  status: ('A' for Active; 'I' for Inactive)
REMARK    1  A    between atoms: C_7  and  C_2 
REMARK    2  A    between atoms: C_4  and  O_13 
REMARK    3  A    between atoms: C_12  and  C_14 
REMARK    4  A    between atoms: C_14  and  O_15 
REMARK    5  A    between atoms: O_15  and  C_16 
ROOT
HETATM    1  C   UNK N   1      35.103  13.387  11.822  0.00  0.00     0.158 A 
HETATM    2  N   UNK N   1      34.756  14.730  11.392  0.00  0.00    -0.354 N 
HETATM    3  C   UNK N   1      35.321  15.341  10.256  0.00  0.00     0.172 A 
HETATM    4  N   UNK N   1      36.227  14.624   9.458  0.00  0.00    -0.337 N 
HETATM    5  C   UNK N   1      36.638  13.315   9.801  0.00  0.00     0.022 A 
HETATM    6  C   UNK N   1      36.163  12.692  10.928  0.00  0.00     0.066 A 
HETATM    7  C   UNK N   1      37.520  12.626   8.809  0.00  0.00     0.069 C 
HETATM    8  S   UNK N   1      34.902  16.654   9.862  0.00  0.00    -0.041 SA
HETATM    9  H   UNK N   1      34.097  15.236  11.918  0.00  0.00     0.163 HD
HETATM   10  H   UNK N   1      36.585  15.043   8.641  0.00  0.00     0.168 HD
ENDROOT
BRANCH   1  11
HETATM   11  C   UNK N   1      35.412  13.425  13.311  0.00  0.00    -0.028 A 
HETATM   12  C   UNK N   1      34.714  12.549  14.162  0.00  0.00     0.010 A 
HETATM   13  C   UNK N   1      35.007  12.491  15.525  0.00  0.00     0.003 A 
HETATM   14  C   UNK N   1      36.021  13.290  16.055  0.00  0.00     0.036 A 
HETATM   15  C   UNK N   1      36.729  14.162  15.224  0.00  0.00     0.066 A 
HETATM   16  C   UNK N   1      36.420  14.239  13.860  0.00  0.00     0.046 A 
BRANCH  15  17
HETATM   17  O   UNK N   1      37.718  14.914  15.733  0.00  0.00    -0.361 OA
HETATM   18  H   UNK N   1      38.601  14.916  15.419  0.00  0.00     0.217 HD
ENDBRANCH  15  17
ENDBRANCH   1  11
BRANCH   6  19
HETATM   19  C   UNK N   1      36.556  11.276  11.296  0.00  0.00     0.293 C 
HETATM   20  O   UNK N   1      35.883  10.355  10.868  0.00  0.00    -0.259 OA
BRANCH  19  21
HETATM   21  O   UNK N   1      37.594  10.976  12.123  0.00  0.00    -0.318 OA
BRANCH  21  22
HETATM   22  C   UNK N   1      37.460  10.218  13.265  0.00  0.00     0.174 C 
HETATM   23  C   UNK N   1      38.264  10.843  14.387  0.00  0.00     0.034 C 
ENDBRANCH  21  22
ENDBRANCH  19  21
ENDBRANCH   6  19
TORSDOF 5
ENDMDL
MODEL 6
REMARK VINA RESULT:      -5.9     14.023     15.392
REMARK  5 active torsions:
REMARK  status: ('A' for Active; 'I' for Inactive)
REMARK    1  A    between atoms: C_7  and  C_2 
REMARK    2  A    between atoms: C_4  and  O_13 
REMARK    3  A    between atoms: C_12  and  C_14 
REMARK    4  A    between atoms: C_14  and  O_15 
REMARK    5  A    between atoms: O_15  and  C_16 
ROOT
HETATM    1  C   UNK N   1      31.700  16.539   5.678  0.00  0.00     0.158 A 
HETATM    2  N   UNK N   1      32.385  15.552   4.861  0.00  0.00    -0.354 N 
HETATM    3  C   UNK N   1      31.739  14.423   4.321  0.00  0.00     0.172 A 
HETATM    4  N   UNK N   1      30.362  14.244   4.526  0.00  0.00    -0.337 N 
HETATM    5  C   UNK N   1      29.611  15.142   5.319  0.00  0.00     0.022 A 
HETATM    6  C   UNK N   1      30.199  16.229   5.916  0.00  0.00     0.066 A 
HETATM    7  C   UNK N   1      28.136  14.896   5.366  0.00  0.00     0.069 C 
HETATM    8  S   UNK N   1      32.465  13.511   3.486  0.00  0.00    -0.041 SA
HETATM    9  H   UNK N   1      33.343  15.678   4.677  0.00  0.00     0.163 HD
HETATM   10  H   UNK N   1      29.909  13.475   4.109  0.00  0.00     0.168 HD
ENDROOT
BRANCH   1  11
HETATM   11  C   UNK N   1      32.534  16.788   6.927  0.00  0.00    -0.028 A 
HETATM   12  C   UNK N   1      32.526  15.815   7.942  0.00  0.00     0.010 A 
HETATM   13  C   UNK N   1      33.327  15.958   9.076  0.00  0.00     0.003 A 
HETATM   14  C   UNK N   1      34.168  17.064   9.201  0.00  0.00     0.036 A 
HETATM   15  C   UNK N   1      34.193  18.038   8.200  0.00  0.00     0.066 A 
HETATM   16  C   UNK N   1      33.373  17.908   7.072  0.00  0.00     0.046 A 
BRANCH  15  17
HETATM   17  O   UNK N   1      35.018  19.091   8.314  0.00  0.00    -0.361 OA
HETATM   18  H   UNK N   1      34.798  19.970   8.073  0.00  0.00     0.217 HD
ENDBRANCH  15  17
ENDBRANCH   1  11
BRANCH   6  19
HETATM   19  C   UNK N   1      29.410  17.228   6.737  0.00  0.00     0.293 C 
HETATM   20  O   UNK N   1      28.953  18.209   6.177  0.00  0.00    -0.259 OA
BRANCH  19  21
HETATM   21  O   UNK N   1      29.223  17.116   8.080  0.00  0.00    -0.318 OA
BRANCH  21  22
HETATM   22  C   UNK N   1      28.942  18.187   8.899  0.00  0.00     0.174 C 
HETATM   23  C   UNK N   1      30.237  18.823   9.365  0.00  0.00     0.034 C 
ENDBRANCH  21  22
ENDBRANCH  19  21
ENDBRANCH   6  19
TORSDOF 5
ENDMDL
MODEL 7
REMARK VINA RESULT:      -5.8     13.484     14.616
REMARK  5 active torsions:
REMARK  status: ('A' for Active; 'I' for Inactive)
REMARK    1  A    between atoms: C_7  and  C_2 
REMARK    2  A    between atoms: C_4  and  O_13 
REMARK    3  A    between atoms: C_12  and  C_14 
REMARK    4  A    between atoms: C_14  and  O_15 
REMARK    5  A    between atoms: O_15  and  C_16 
ROOT
HETATM    1  C   UNK N   1      31.498  15.587   6.363  0.00  0.00     0.158 A 
HETATM    2  N   UNK N   1      30.646  14.475   5.981  0.00  0.00    -0.354 N 
HETATM    3  C   UNK N   1      30.717  13.853   4.719  0.00  0.00     0.172 A 
HETATM    4  N   UNK N   1      31.677  14.278   3.787  0.00  0.00    -0.337 N 
HETATM    5  C   UNK N   1      32.543  15.362   4.060  0.00  0.00     0.022 A 
HETATM    6  C   UNK N   1      32.480  16.041   5.252  0.00  0.00     0.066 A 
HETATM    7  C   UNK N   1      33.589  15.639   3.028  0.00  0.00     0.069 C 
HETATM    8  S   UNK N   1      29.876  12.731   4.422  0.00  0.00    -0.041 SA
HETATM    9  H   UNK N   1      29.990  14.140   6.633  0.00  0.00     0.163 HD
HETATM   10  H   UNK N   1      31.749  13.810   2.923  0.00  0.00     0.168 HD
ENDROOT
BRANCH   1  11
HETATM   11  C   UNK N   1      30.621  16.678   6.961  0.00  0.00    -0.028 A 
HETATM   12  C   UNK N   1      29.588  17.214   6.171  0.00  0.00     0.010 A 
HETATM   13  C   UNK N   1      28.710  18.165   6.692  0.00  0.00     0.003 A 
HETATM   14  C   UNK N   1      28.834  18.576   8.020  0.00  0.00     0.036 A 
HETATM   15  C   UNK N   1      29.849  18.050   8.821  0.00  0.00     0.066 A 
HETATM   16  C   UNK N   1      30.747  17.113   8.293  0.00  0.00     0.046 A 
BRANCH  15  17
HETATM   17  O   UNK N   1      29.953  18.431  10.104  0.00  0.00    -0.361 OA
HETATM   18  H   UNK N   1      30.758  18.479  10.583  0.00  0.00     0.217 HD
ENDBRANCH  15  17
ENDBRANCH   1  11
BRANCH   6  19
HETATM   19  C   UNK N   1      33.422  17.179   5.586  0.00  0.00     0.293 C 
HETATM   20  O   UNK N   1      33.342  18.210   4.940  0.00  0.00    -0.259 OA
BRANCH  19  21
HETATM   21  O   UNK N   1      34.389  17.098   6.540  0.00  0.00    -0.318 OA
BRANCH  21  22
HETATM   22  C   UNK N   1      34.386  17.855   7.690  0.00  0.00     0.174 C 
HETATM   23  C   UNK N   1      34.405  16.940   8.899  0.00  0.00     0.034 C 
ENDBRANCH  21  22
ENDBRANCH  19  21
ENDBRANCH   6  19
TORSDOF 5
ENDMDL
MODEL 8
REMARK VINA RESULT:      -5.7     13.959     16.057
REMARK  5 active torsions:
REMARK  status: ('A' for Active; 'I' for Inactive)
REMARK    1  A    between atoms: C_7  and  C_2 
REMARK    2  A    between atoms: C_4  and  O_13 
REMARK    3  A    between atoms: C_12  and  C_14 
REMARK    4  A    between atoms: C_14  and  O_15 
REMARK    5  A    between atoms: O_15  and  C_16 
ROOT
HETATM    1  C   UNK N   1      32.870  15.940   8.425  0.00  0.00     0.158 A 
HETATM    2  N   UNK N   1      32.689  14.594   8.937  0.00  0.00    -0.354 N 
HETATM    3  C   UNK N   1      33.455  13.497   8.497  0.00  0.00     0.172 A 
HETATM    4  N   UNK N   1      34.478  13.695   7.557  0.00  0.00    -0.337 N 
HETATM    5  C   UNK N   1      34.723  14.966   6.989  0.00  0.00     0.022 A 
HETATM    6  C   UNK N   1      33.971  16.060   7.338  0.00  0.00     0.066 A 
HETATM    7  C   UNK N   1      35.910  15.060   6.084  0.00  0.00     0.069 C 
HETATM    8  S   UNK N   1      33.254  12.201   9.076  0.00  0.00    -0.041 SA
HETATM    9  H   UNK N   1      32.000  14.440   9.623  0.00  0.00     0.163 HD
HETATM   10  H   UNK N   1      35.038  12.930   7.286  0.00  0.00     0.168 HD
ENDROOT
BRANCH   1  11
HETATM   11  C   UNK N   1      31.504  16.499   8.052  0.00  0.00    -0.028 A 
HETATM   12  C   UNK N   1      31.028  17.621   8.752  0.00  0.00     0.010 A 
HETATM   13  C   UNK N   1      29.814  18.218   8.405  0.00  0.00     0.003 A 
HETATM   14  C   UNK N   1      29.072  17.718   7.334  0.00  0.00     0.036 A 
HETATM   15  C   UNK N   1      29.533  16.608   6.624  0.00  0.00     0.066 A 
HETATM   16  C   UNK N   1      30.739  15.993   6.986  0.00  0.00     0.046 A 
BRANCH  15  17
HETATM   17  O   UNK N   1      28.828  16.142   5.582  0.00  0.00    -0.361 OA
HETATM   18  H   UNK N   1      28.990  15.325   5.150  0.00  0.00     0.217 HD
ENDBRANCH  15  17
ENDBRANCH   1  11
BRANCH   6  19
HETATM   19  C   UNK N   1      34.238  17.440   6.775  0.00  0.00     0.293 C 
HETATM   20  O   UNK N   1      34.765  18.271   7.495  0.00  0.00    -0.259 OA
BRANCH  19  21
HETATM   21  O   UNK N   1      33.876  17.822   5.520  0.00  0.00    -0.318 OA
BRANCH  21  22
HETATM   22  C   UNK N   1      33.219  16.997   4.635  0.00  0.00     0.174 C 
HETATM   23  C   UNK N   1      32.018  17.721   4.061  0.00  0.00     0.034 C 
ENDBRANCH  21  22
ENDBRANCH  19  21
ENDBRANCH   6  19
TORSDOF 5
ENDMDL
MODEL 9
REMARK VINA RESULT:      -5.6      3.007      3.546
REMARK  5 active torsions:
REMARK  status: ('A' for Active; 'I' for Inactive)
REMARK    1  A    between atoms: C_7  and  C_2 
REMARK    2  A    between atoms: C_4  and  O_13 
REMARK    3  A    between atoms: C_12  and  C_14 
REMARK    4  A    between atoms: C_14  and  O_15 
REMARK    5  A    between atoms: O_15  and  C_16 
ROOT
HETATM    1  C   UNK N   1      25.666  25.562  -7.945  0.00  0.00     0.158 A 
HETATM    2  N   UNK N   1      25.803  26.162  -9.261  0.00  0.00    -0.354 N 
HETATM    3  C   UNK N   1      26.580  25.591 -10.287  0.00  0.00     0.172 A 
HETATM    4  N   UNK N   1      27.224  24.363 -10.070  0.00  0.00    -0.337 N 
HETATM    5  C   UNK N   1      27.162  23.707  -8.819  0.00  0.00     0.022 A 
HETATM    6  C   UNK N   1      26.466  24.245  -7.766  0.00  0.00     0.066 A 
HETATM    7  C   UNK N   1      27.800  22.355  -8.757  0.00  0.00     0.069 C 
HETATM    8  S   UNK N   1      26.637  26.213 -11.577  0.00  0.00    -0.041 SA
HETATM    9  H   UNK N   1      25.331  27.006  -9.444  0.00  0.00     0.163 HD
HETATM   10  H   UNK N   1      27.730  23.948 -10.807  0.00  0.00     0.168 HD
ENDROOT
BRANCH   1  11
HETATM   11  C   UNK N   1      25.915  26.639  -6.899  0.00  0.00    -0.028 A 
HETATM   12  C   UNK N   1      25.005  26.759  -5.833  0.00  0.00     0.010 A 
HETATM   13  C   UNK N   1      25.223  27.681  -4.808  0.00  0.00     0.003 A 
HETATM   14  C   UNK N   1      26.368  28.479  -4.819  0.00  0.00     0.036 A 
HETATM   15  C   UNK N   1      27.285  28.369  -5.866  0.00  0.00     0.066 A 
HETATM   16  C   UNK N   1      27.057  27.461  -6.908  0.00  0.00     0.046 A 
BRANCH  15  17
HETATM   17  O   UNK N   1      28.396  29.123  -5.863  0.00  0.00    -0.361 OA
HETATM   18  H   UNK N   1      28.675  29.658  -5.145  0.00  0.00     0.217 HD
ENDBRANCH  15  17
ENDBRANCH   1  11
BRANCH   6  19
HETATM   19  C   UNK N   1      26.350  23.545  -6.428  0.00  0.00     0.293 C 
HETATM   20  O   UNK N   1      25.271  23.079  -6.106  0.00  0.00    -0.259 OA
BRANCH  19  21
HETATM   21  O   UNK N   1      27.377  23.448  -5.540  0.00  0.00    -0.318 OA
BRANCH  21  22
HETATM   22  C   UNK N   1      27.822  24.504  -4.777  0.00  0.00     0.174 C 
HETATM   23  C   UNK N   1      27.012  24.583  -3.498  0.00  0.00     0.034 C 
ENDBRANCH  21  22
ENDBRANCH  19  21
ENDBRANCH   6  19
TORSDOF 5
ENDMDL
