MODEL 1
REMARK VINA RESULT:      -7.0      0.000      0.000
REMARK  8 active torsions:
REMARK  status: ('A' for Active; 'I' for Inactive)
REMARK    1  A    between atoms: C_2  and  C_4 
REMARK    2  A    between atoms: C_4  and  C_5 
REMARK    3  A    between atoms: C_5  and  N_6 
REMARK    4  A    between atoms: C_5  and  C_17 
REMARK       I    between atoms: N_6  and  C_7 
REMARK    5  A    between atoms: C_7  and  O_9 
REMARK    6  A    between atoms: O_9  and  C_10 
REMARK    7  A    between atoms: C_10  and  C_11 
REMARK       I    between atoms: C_17  and  N_19 
REMARK    8  A    between atoms: C_20  and  N_19 
ROOT
HETATM    1  C   UNK N   1      33.255  16.664   9.069  0.00  0.00     0.104 C 
HETATM    2  C   UNK N   1      33.730  17.248   7.730  0.00  0.00     0.047 C 
HETATM    3  C   UNK N   1      32.609  17.025   6.740  0.00  0.00     0.136 C 
HETATM    4  N   UNK N   1      31.797  15.998   7.328  0.00  0.00    -0.318 N 
HETATM    5  C   UNK N   1      32.092  15.754   8.706  0.00  0.00     0.159 C 
HETATM    6  C   UNK N   1      31.449  14.917   6.531  0.00  0.00     0.179 C 
HETATM    7  N   UNK N   1      31.145  14.009   5.880  0.00  0.00    -0.172 NA
ENDROOT
BRANCH   1   8
HETATM    8  N   UNK N   1      34.255  15.861   9.761  0.00  0.00    -0.353 N 
HETATM    9  C   UNK N   1      35.382  16.335  10.360  0.00  0.00     0.240 C 
HETATM   10  O   UNK N   1      35.536  17.533  10.544  0.00  0.00    -0.271 OA
HETATM   11  H   UNK N   1      34.102  14.890   9.799  0.00  0.00     0.163 HD
BRANCH   9  12
HETATM   12  C   UNK N   1      36.473  15.392  10.787  0.00  0.00     0.179 C 
BRANCH  12  13
HETATM   13  C   UNK N   1      36.890  14.325   9.748  0.00  0.00     0.038 C 
BRANCH  13  14
HETATM   14  C   UNK N   1      37.618  13.089  10.273  0.00  0.00    -0.020 C 
HETATM   15  C   UNK N   1      39.017  13.050   9.691  0.00  0.00     0.009 C 
HETATM   16  C   UNK N   1      36.890  11.814   9.905  0.00  0.00     0.009 C 
ENDBRANCH  13  14
ENDBRANCH  12  13
BRANCH  12  17
HETATM   17  N   UNK N   1      36.271  14.927  12.146  0.00  0.00    -0.324 N 
HETATM   18  C   UNK N   1      35.327  14.087  12.643  0.00  0.00     0.361 C 
HETATM   19  O   UNK N   1      34.491  13.571  11.925  0.00  0.00    -0.238 OA
HETATM   20  H   UNK N   1      36.915  15.271  12.808  0.00  0.00     0.165 HD
BRANCH  18  21
HETATM   21  O   UNK N   1      35.310  13.818  13.963  0.00  0.00    -0.299 OA
BRANCH  21  22
HETATM   22  C   UNK N   1      34.839  12.614  14.437  0.00  0.00     0.219 C 
BRANCH  22  23
HETATM   23  C   UNK N   1      34.846  12.448  15.923  0.00  0.00    -0.034 A 
HETATM   24  C   UNK N   1      34.893  13.556  16.779  0.00  0.00     0.009 A 
HETATM   25  C   UNK N   1      35.127  13.370  18.147  0.00  0.00     0.001 A 
HETATM   26  C   UNK N   1      35.342  12.085  18.656  0.00  0.00     0.000 A 
HETATM   27  C   UNK N   1      35.284  10.978  17.804  0.00  0.00     0.001 A 
HETATM   28  C   UNK N   1      35.040  11.163  16.440  0.00  0.00     0.009 A 
ENDBRANCH  22  23
ENDBRANCH  21  22
ENDBRANCH  18  21
ENDBRANCH  12  17
ENDBRANCH   9  12
ENDBRANCH   1   8
TORSDOF 8
ENDMDL
MODEL 2
REMARK VINA RESULT:      -6.9      7.521     10.415
REMARK  8 active torsions:
REMARK  status: ('A' for Active; 'I' for Inactive)
REMARK    1  A    between atoms: C_2  and  C_4 
REMARK    2  A    between atoms: C_4  and  C_5 
REMARK    3  A    between atoms: C_5  and  N_6 
REMARK    4  A    between atoms: C_5  and  C_17 
REMARK       I    between atoms: N_6  and  C_7 
REMARK    5  A    between atoms: C_7  and  O_9 
REMARK    6  A    between atoms: O_9  and  C_10 
REMARK    7  A    between atoms: C_10  and  C_11 
REMARK       I    between atoms: C_17  and  N_19 
REMARK    8  A    between atoms: C_20  and  N_19 
ROOT
HETATM    1  C   UNK N   1      31.430  16.362   5.894  0.00  0.00     0.104 C 
HETATM    2  C   UNK N   1      32.037  17.313   4.851  0.00  0.00     0.047 C 
HETATM    3  C   UNK N   1      33.478  17.531   5.255  0.00  0.00     0.136 C 
HETATM    4  N   UNK N   1      33.537  17.142   6.635  0.00  0.00    -0.318 N 
HETATM    5  C   UNK N   1      32.386  16.418   7.075  0.00  0.00     0.159 C 
HETATM    6  C   UNK N   1      34.141  18.018   7.525  0.00  0.00     0.179 C 
HETATM    7  N   UNK N   1      34.644  18.735   8.282  0.00  0.00    -0.172 NA
ENDROOT
BRANCH   1   8
HETATM    8  N   UNK N   1      30.108  16.755   6.367  0.00  0.00    -0.353 N 
HETATM    9  C   UNK N   1      28.935  16.562   5.704  0.00  0.00     0.240 C 
HETATM   10  O   UNK N   1      28.883  15.833   4.724  0.00  0.00    -0.271 OA
HETATM   11  H   UNK N   1      30.060  17.201   7.242  0.00  0.00     0.163 HD
BRANCH   9  12
HETATM   12  C   UNK N   1      27.681  17.260   6.153  0.00  0.00     0.179 C 
BRANCH  12  13
HETATM   13  C   UNK N   1      27.811  18.778   6.420  0.00  0.00     0.038 C 
BRANCH  13  14
HETATM   14  C   UNK N   1      27.747  19.706   5.208  0.00  0.00    -0.020 C 
HETATM   15  C   UNK N   1      27.135  21.028   5.625  0.00  0.00     0.009 C 
HETATM   16  C   UNK N   1      26.923  19.107   4.089  0.00  0.00     0.009 C 
ENDBRANCH  13  14
ENDBRANCH  12  13
BRANCH  12  17
HETATM   17  N   UNK N   1      26.970  16.486   7.153  0.00  0.00    -0.324 N 
HETATM   18  C   UNK N   1      26.175  15.396   7.001  0.00  0.00     0.361 C 
HETATM   19  O   UNK N   1      25.982  14.896   5.908  0.00  0.00    -0.238 OA
HETATM   20  H   UNK N   1      27.079  16.798   8.081  0.00  0.00     0.165 HD
BRANCH  18  21
HETATM   21  O   UNK N   1      25.581  14.854   8.082  0.00  0.00    -0.299 OA
BRANCH  21  22
HETATM   22  C   UNK N   1      24.879  13.674   7.990  0.00  0.00     0.219 C 
BRANCH  22  23
HETATM   23  C   UNK N   1      24.122  13.266   9.214  0.00  0.00    -0.034 A 
HETATM   24  C   UNK N   1      24.732  12.524  10.233  0.00  0.00     0.009 A 
HETATM   25  C   UNK N   1      23.950  11.966  11.252  0.00  0.00     0.001 A 
HETATM   26  C   UNK N   1      22.559  12.121  11.237  0.00  0.00     0.000 A 
HETATM   27  C   UNK N   1      21.952  12.871  10.225  0.00  0.00     0.001 A 
HETATM   28  C   UNK N   1      22.733  13.438   9.215  0.00  0.00     0.009 A 
ENDBRANCH  22  23
ENDBRANCH  21  22
ENDBRANCH  18  21
ENDBRANCH  12  17
ENDBRANCH   9  12
ENDBRANCH   1   8
TORSDOF 8
ENDMDL
MODEL 3
REMARK VINA RESULT:      -6.8      2.852      4.696
REMARK  8 active torsions:
REMARK  status: ('A' for Active; 'I' for Inactive)
REMARK    1  A    between atoms: C_2  and  C_4 
REMARK    2  A    between atoms: C_4  and  C_5 
REMARK    3  A    between atoms: C_5  and  N_6 
REMARK    4  A    between atoms: C_5  and  C_17 
REMARK       I    between atoms: N_6  and  C_7 
REMARK    5  A    between atoms: C_7  and  O_9 
REMARK    6  A    between atoms: O_9  and  C_10 
REMARK    7  A    between atoms: C_10  and  C_11 
REMARK       I    between atoms: C_17  and  N_19 
REMARK    8  A    between atoms: C_20  and  N_19 
ROOT
HETATM    1  C   UNK N   1      29.893  17.224   8.728  0.00  0.00     0.104 C 
HETATM    2  C   UNK N   1      29.220  18.331   9.554  0.00  0.00     0.047 C 
HETATM    3  C   UNK N   1      27.962  18.718   8.811  0.00  0.00     0.136 C 
HETATM    4  N   UNK N   1      28.159  18.233   7.474  0.00  0.00    -0.318 N 
HETATM    5  C   UNK N   1      29.253  17.320   7.353  0.00  0.00     0.159 C 
HETATM    6  C   UNK N   1      27.919  19.112   6.428  0.00  0.00     0.179 C 
HETATM    7  N   UNK N   1      27.721  19.830   5.542  0.00  0.00    -0.172 NA
ENDROOT
BRANCH   1   8
HETATM    8  N   UNK N   1      31.333  17.387   8.567  0.00  0.00    -0.353 N 
HETATM    9  C   UNK N   1      32.270  16.416   8.741  0.00  0.00     0.240 C 
HETATM   10  O   UNK N   1      31.942  15.243   8.848  0.00  0.00    -0.271 OA
HETATM   11  H   UNK N   1      31.656  18.280   8.309  0.00  0.00     0.163 HD
BRANCH   9  12
HETATM   12  C   UNK N   1      33.729  16.769   8.828  0.00  0.00     0.179 C 
BRANCH  12  13
HETATM   13  C   UNK N   1      34.522  16.697   7.502  0.00  0.00     0.038 C 
BRANCH  13  14
HETATM   14  C   UNK N   1      33.749  16.283   6.251  0.00  0.00    -0.020 C 
HETATM   15  C   UNK N   1      34.620  15.375   5.406  0.00  0.00     0.009 C 
HETATM   16  C   UNK N   1      33.336  17.484   5.427  0.00  0.00     0.009 C 
ENDBRANCH  13  14
ENDBRANCH  12  13
BRANCH  12  17
HETATM   17  N   UNK N   1      34.354  16.163   9.989  0.00  0.00    -0.324 N 
HETATM   18  C   UNK N   1      35.403  16.598  10.733  0.00  0.00     0.361 C 
HETATM   19  O   UNK N   1      35.960  17.654  10.494  0.00  0.00    -0.238 OA
HETATM   20  H   UNK N   1      33.960  15.309  10.280  0.00  0.00     0.165 HD
BRANCH  18  21
HETATM   21  O   UNK N   1      35.842  15.845  11.761  0.00  0.00    -0.299 OA
BRANCH  21  22
HETATM   22  C   UNK N   1      35.450  14.532  11.897  0.00  0.00     0.219 C 
BRANCH  22  23
HETATM   23  C   UNK N   1      36.269  13.700  12.832  0.00  0.00    -0.034 A 
HETATM   24  C   UNK N   1      36.767  12.449  12.447  0.00  0.00     0.009 A 
HETATM   25  C   UNK N   1      37.332  11.598  13.405  0.00  0.00     0.001 A 
HETATM   26  C   UNK N   1      37.371  11.981  14.750  0.00  0.00     0.000 A 
HETATM   27  C   UNK N   1      36.883  13.234  15.133  0.00  0.00     0.001 A 
HETATM   28  C   UNK N   1      36.330  14.088  14.175  0.00  0.00     0.009 A 
ENDBRANCH  22  23
ENDBRANCH  21  22
ENDBRANCH  18  21
ENDBRANCH  12  17
ENDBRANCH   9  12
ENDBRANCH   1   8
TORSDOF 8
ENDMDL
MODEL 4
REMARK VINA RESULT:      -6.6     17.892     21.190
REMARK  8 active torsions:
REMARK  status: ('A' for Active; 'I' for Inactive)
REMARK    1  A    between atoms: C_2  and  C_4 
REMARK    2  A    between atoms: C_4  and  C_5 
REMARK    3  A    between atoms: C_5  and  N_6 
REMARK    4  A    between atoms: C_5  and  C_17 
REMARK       I    between atoms: N_6  and  C_7 
REMARK    5  A    between atoms: C_7  and  O_9 
REMARK    6  A    between atoms: O_9  and  C_10 
REMARK    7  A    between atoms: C_10  and  C_11 
REMARK       I    between atoms: C_17  and  N_19 
REMARK    8  A    between atoms: C_20  and  N_19 
ROOT
HETATM    1  C   UNK N   1      26.338  28.150  -5.308  0.00  0.00     0.104 C 
HETATM    2  C   UNK N   1      26.035  28.308  -3.810  0.00  0.00     0.047 C 
HETATM    3  C   UNK N   1      26.622  29.636  -3.390  0.00  0.00     0.136 C 
HETATM    4  N   UNK N   1      27.571  29.961  -4.416  0.00  0.00    -0.318 N 
HETATM    5  C   UNK N   1      27.443  29.155  -5.590  0.00  0.00     0.159 C 
HETATM    6  C   UNK N   1      28.845  30.341  -4.018  0.00  0.00     0.179 C 
HETATM    7  N   UNK N   1      29.911  30.664  -3.704  0.00  0.00    -0.172 NA
ENDROOT
BRANCH   1   8
HETATM    8  N   UNK N   1      26.824  26.829  -5.686  0.00  0.00    -0.353 N 
HETATM    9  C   UNK N   1      26.081  25.690  -5.737  0.00  0.00     0.240 C 
HETATM   10  O   UNK N   1      24.861  25.736  -5.667  0.00  0.00    -0.271 OA
HETATM   11  H   UNK N   1      27.776  26.754  -5.924  0.00  0.00     0.163 HD
BRANCH   9  12
HETATM   12  C   UNK N   1      26.747  24.347  -5.859  0.00  0.00     0.179 C 
BRANCH  12  13
HETATM   13  C   UNK N   1      25.801  23.136  -6.024  0.00  0.00     0.038 C 
BRANCH  13  14
HETATM   14  C   UNK N   1      25.773  22.455  -7.392  0.00  0.00    -0.020 C 
HETATM   15  C   UNK N   1      24.737  21.350  -7.378  0.00  0.00     0.009 C 
HETATM   16  C   UNK N   1      27.122  21.868  -7.750  0.00  0.00     0.009 C 
ENDBRANCH  13  14
ENDBRANCH  12  13
BRANCH  12  17
HETATM   17  N   UNK N   1      27.825  24.200  -4.899  0.00  0.00    -0.324 N 
HETATM   18  C   UNK N   1      27.771  24.081  -3.548  0.00  0.00     0.361 C 
HETATM   19  O   UNK N   1      26.710  24.058  -2.952  0.00  0.00    -0.238 OA
HETATM   20  H   UNK N   1      28.731  24.185  -5.284  0.00  0.00     0.165 HD
BRANCH  18  21
HETATM   21  O   UNK N   1      28.917  23.989  -2.845  0.00  0.00    -0.299 OA
BRANCH  21  22
HETATM   22  C   UNK N   1      29.377  22.773  -2.392  0.00  0.00     0.219 C 
BRANCH  22  23
HETATM   23  C   UNK N   1      30.437  22.124  -3.225  0.00  0.00    -0.034 A 
HETATM   24  C   UNK N   1      30.111  21.372  -4.360  0.00  0.00     0.009 A 
HETATM   25  C   UNK N   1      31.093  20.594  -4.986  0.00  0.00     0.001 A 
HETATM   26  C   UNK N   1      32.389  20.542  -4.462  0.00  0.00     0.000 A 
HETATM   27  C   UNK N   1      32.717  21.301  -3.335  0.00  0.00     0.001 A 
HETATM   28  C   UNK N   1      31.740  22.087  -2.717  0.00  0.00     0.009 A 
ENDBRANCH  22  23
ENDBRANCH  21  22
ENDBRANCH  18  21
ENDBRANCH  12  17
ENDBRANCH   9  12
ENDBRANCH   1   8
TORSDOF 8
ENDMDL
MODEL 5
REMARK VINA RESULT:      -6.5      3.823      9.528
REMARK  8 active torsions:
REMARK  status: ('A' for Active; 'I' for Inactive)
REMARK    1  A    between atoms: C_2  and  C_4 
REMARK    2  A    between atoms: C_4  and  C_5 
REMARK    3  A    between atoms: C_5  and  N_6 
REMARK    4  A    between atoms: C_5  and  C_17 
REMARK       I    between atoms: N_6  and  C_7 
REMARK    5  A    between atoms: C_7  and  O_9 
REMARK    6  A    between atoms: O_9  and  C_10 
REMARK    7  A    between atoms: C_10  and  C_11 
REMARK       I    between atoms: C_17  and  N_19 
REMARK    8  A    between atoms: C_20  and  N_19 
ROOT
HETATM    1  C   UNK N   1      35.468  15.168   9.789  0.00  0.00     0.104 C 
HETATM    2  C   UNK N   1      34.699  15.273  11.115  0.00  0.00     0.047 C 
HETATM    3  C   UNK N   1      34.983  14.000  11.880  0.00  0.00     0.136 C 
HETATM    4  N   UNK N   1      35.458  13.074  10.892  0.00  0.00    -0.318 N 
HETATM    5  C   UNK N   1      35.799  13.690   9.647  0.00  0.00     0.159 C 
HETATM    6  C   UNK N   1      34.882  11.812  10.862  0.00  0.00     0.179 C 
HETATM    7  N   UNK N   1      34.416  10.753  10.825  0.00  0.00    -0.172 NA
ENDROOT
BRANCH   1   8
HETATM    8  N   UNK N   1      34.700  15.571   8.618  0.00  0.00    -0.353 N 
HETATM    9  C   UNK N   1      34.164  16.803   8.401  0.00  0.00     0.240 C 
HETATM   10  O   UNK N   1      34.475  17.753   9.106  0.00  0.00    -0.271 OA
HETATM   11  H   UNK N   1      34.556  14.891   7.921  0.00  0.00     0.163 HD
BRANCH   9  12
HETATM   12  C   UNK N   1      33.158  17.017   7.304  0.00  0.00     0.179 C 
BRANCH  12  13
HETATM   13  C   UNK N   1      33.717  17.576   5.975  0.00  0.00     0.038 C 
BRANCH  13  14
HETATM   14  C   UNK N   1      33.314  16.854   4.691  0.00  0.00    -0.020 C 
HETATM   15  C   UNK N   1      32.146  17.581   4.055  0.00  0.00     0.009 C 
HETATM   16  C   UNK N   1      32.918  15.417   4.959  0.00  0.00     0.009 C 
ENDBRANCH  13  14
ENDBRANCH  12  13
BRANCH  12  17
HETATM   17  N   UNK N   1      31.946  17.634   7.806  0.00  0.00    -0.324 N 
HETATM   18  C   UNK N   1      30.649  17.286   7.606  0.00  0.00     0.361 C 
HETATM   19  O   UNK N   1      30.346  16.311   6.943  0.00  0.00    -0.238 OA
HETATM   20  H   UNK N   1      32.083  18.425   8.377  0.00  0.00     0.165 HD
BRANCH  18  21
HETATM   21  O   UNK N   1      29.671  18.035   8.151  0.00  0.00    -0.299 OA
BRANCH  21  22
HETATM   22  C   UNK N   1      28.353  17.849   7.799  0.00  0.00     0.219 C 
BRANCH  22  23
HETATM   23  C   UNK N   1      27.857  18.681   6.659  0.00  0.00    -0.034 A 
HETATM   24  C   UNK N   1      27.807  18.174   5.355  0.00  0.00     0.009 A 
HETATM   25  C   UNK N   1      27.557  19.037   4.281  0.00  0.00     0.001 A 
HETATM   26  C   UNK N   1      27.387  20.407   4.504  0.00  0.00     0.000 A 
HETATM   27  C   UNK N   1      27.426  20.912   5.807  0.00  0.00     0.001 A 
HETATM   28  C   UNK N   1      27.665  20.049   6.880  0.00  0.00     0.009 A 
ENDBRANCH  22  23
ENDBRANCH  21  22
ENDBRANCH  18  21
ENDBRANCH  12  17
ENDBRANCH   9  12
ENDBRANCH   1   8
TORSDOF 8
ENDMDL
MODEL 6
REMARK VINA RESULT:      -6.5     10.869     14.414
REMARK  8 active torsions:
REMARK  status: ('A' for Active; 'I' for Inactive)
REMARK    1  A    between atoms: C_2  and  C_4 
REMARK    2  A    between atoms: C_4  and  C_5 
REMARK    3  A    between atoms: C_5  and  N_6 
REMARK    4  A    between atoms: C_5  and  C_17 
REMARK       I    between atoms: N_6  and  C_7 
REMARK    5  A    between atoms: C_7  and  O_9 
REMARK    6  A    between atoms: O_9  and  C_10 
REMARK    7  A    between atoms: C_10  and  C_11 
REMARK       I    between atoms: C_17  and  N_19 
REMARK    8  A    between atoms: C_20  and  N_19 
ROOT
HETATM    1  C   UNK N   1      26.084  20.012   4.032  0.00  0.00     0.104 C 
HETATM    2  C   UNK N   1      26.274  20.764   5.358  0.00  0.00     0.047 C 
HETATM    3  C   UNK N   1      27.677  20.455   5.831  0.00  0.00     0.136 C 
HETATM    4  N   UNK N   1      28.057  19.275   5.109  0.00  0.00    -0.318 N 
HETATM    5  C   UNK N   1      27.191  18.970   4.013  0.00  0.00     0.159 C 
HETATM    6  C   UNK N   1      28.593  18.220   5.834  0.00  0.00     0.179 C 
HETATM    7  N   UNK N   1      29.044  17.331   6.422  0.00  0.00    -0.172 NA
ENDROOT
BRANCH   1   8
HETATM    8  N   UNK N   1      24.808  19.316   3.915  0.00  0.00    -0.353 N 
HETATM    9  C   UNK N   1      23.629  19.873   3.528  0.00  0.00     0.240 C 
HETATM   10  O   UNK N   1      23.598  20.991   3.034  0.00  0.00    -0.271 OA
HETATM   11  H   UNK N   1      24.800  18.358   4.137  0.00  0.00     0.163 HD
BRANCH   9  12
HETATM   12  C   UNK N   1      22.334  19.132   3.721  0.00  0.00     0.179 C 
BRANCH  12  13
HETATM   13  C   UNK N   1      21.045  19.961   3.517  0.00  0.00     0.038 C 
BRANCH  13  14
HETATM   14  C   UNK N   1      20.246  19.702   2.241  0.00  0.00    -0.020 C 
HETATM   15  C   UNK N   1      20.342  18.233   1.882  0.00  0.00     0.009 C 
HETATM   16  C   UNK N   1      20.758  20.532   1.083  0.00  0.00     0.009 C 
ENDBRANCH  13  14
ENDBRANCH  12  13
BRANCH  12  17
HETATM   17  N   UNK N   1      22.378  18.283   4.896  0.00  0.00    -0.324 N 
HETATM   18  C   UNK N   1      22.389  16.928   4.986  0.00  0.00     0.361 C 
HETATM   19  O   UNK N   1      22.389  16.224   3.993  0.00  0.00    -0.238 OA
HETATM   20  H   UNK N   1      22.404  18.759   5.758  0.00  0.00     0.165 HD
BRANCH  18  21
HETATM   21  O   UNK N   1      22.397  16.346   6.201  0.00  0.00    -0.299 OA
BRANCH  21  22
HETATM   22  C   UNK N   1      22.053  15.022   6.356  0.00  0.00     0.219 C 
BRANCH  22  23
HETATM   23  C   UNK N   1      21.962  14.531   7.766  0.00  0.00    -0.034 A 
HETATM   24  C   UNK N   1      22.945  13.694   8.309  0.00  0.00     0.009 A 
HETATM   25  C   UNK N   1      22.724  13.070   9.544  0.00  0.00     0.001 A 
HETATM   26  C   UNK N   1      21.513  13.257  10.219  0.00  0.00     0.000 A 
HETATM   27  C   UNK N   1      20.537  14.100   9.681  0.00  0.00     0.001 A 
HETATM   28  C   UNK N   1      20.762  14.732   8.455  0.00  0.00     0.009 A 
ENDBRANCH  22  23
ENDBRANCH  21  22
ENDBRANCH  18  21
ENDBRANCH  12  17
ENDBRANCH   9  12
ENDBRANCH   1   8
TORSDOF 8
ENDMDL
MODEL 7
REMARK VINA RESULT:      -6.5      7.695     13.274
REMARK  8 active torsions:
REMARK  status: ('A' for Active; 'I' for Inactive)
REMARK    1  A    between atoms: C_2  and  C_4 
REMARK    2  A    between atoms: C_4  and  C_5 
REMARK    3  A    between atoms: C_5  and  N_6 
REMARK    4  A    between atoms: C_5  and  C_17 
REMARK       I    between atoms: N_6  and  C_7 
REMARK    5  A    between atoms: C_7  and  O_9 
REMARK    6  A    between atoms: O_9  and  C_10 
REMARK    7  A    between atoms: C_10  and  C_11 
REMARK       I    between atoms: C_17  and  N_19 
REMARK    8  A    between atoms: C_20  and  N_19 
ROOT
HETATM    1  C   UNK N   1      31.148  16.838   5.697  0.00  0.00     0.104 C 
HETATM    2  C   UNK N   1      32.094  17.462   4.659  0.00  0.00     0.047 C 
HETATM    3  C   UNK N   1      33.481  17.417   5.258  0.00  0.00     0.136 C 
HETATM    4  N   UNK N   1      33.270  17.238   6.666  0.00  0.00    -0.318 N 
HETATM    5  C   UNK N   1      31.932  16.860   7.000  0.00  0.00     0.159 C 
HETATM    6  C   UNK N   1      33.947  18.084   7.532  0.00  0.00     0.179 C 
HETATM    7  N   UNK N   1      34.507  18.779   8.269  0.00  0.00    -0.172 NA
ENDROOT
BRANCH   1   8
HETATM    8  N   UNK N   1      29.911  17.579   5.904  0.00  0.00    -0.353 N 
HETATM    9  C   UNK N   1      28.655  17.120   5.651  0.00  0.00     0.240 C 
HETATM   10  O   UNK N   1      28.457  15.936   5.418  0.00  0.00    -0.271 OA
HETATM   11  H   UNK N   1      29.990  18.494   6.257  0.00  0.00     0.163 HD
BRANCH   9  12
HETATM   12  C   UNK N   1      27.486  18.066   5.630  0.00  0.00     0.179 C 
BRANCH  12  13
HETATM   13  C   UNK N   1      27.643  19.353   6.471  0.00  0.00     0.038 C 
BRANCH  13  14
HETATM   14  C   UNK N   1      27.564  20.685   5.727  0.00  0.00    -0.020 C 
HETATM   15  C   UNK N   1      26.703  21.648   6.519  0.00  0.00     0.009 C 
HETATM   16  C   UNK N   1      26.975  20.517   4.342  0.00  0.00     0.009 C 
ENDBRANCH  13  14
ENDBRANCH  12  13
BRANCH  12  17
HETATM   17  N   UNK N   1      26.226  17.357   5.761  0.00  0.00    -0.324 N 
HETATM   18  C   UNK N   1      25.335  16.990   4.805  0.00  0.00     0.361 C 
HETATM   19  O   UNK N   1      25.536  17.217   3.625  0.00  0.00    -0.238 OA
HETATM   20  H   UNK N   1      25.980  17.105   6.681  0.00  0.00     0.165 HD
BRANCH  18  21
HETATM   21  O   UNK N   1      24.200  16.361   5.165  0.00  0.00    -0.299 OA
BRANCH  21  22
HETATM   22  C   UNK N   1      23.064  17.072   5.482  0.00  0.00     0.219 C 
BRANCH  22  23
HETATM   23  C   UNK N   1      22.239  17.536   4.324  0.00  0.00    -0.034 A 
HETATM   24  C   UNK N   1      22.134  18.896   4.005  0.00  0.00     0.009 A 
HETATM   25  C   UNK N   1      21.185  19.320   3.066  0.00  0.00     0.001 A 
HETATM   26  C   UNK N   1      20.322  18.394   2.470  0.00  0.00     0.000 A 
HETATM   27  C   UNK N   1      20.435  17.036   2.781  0.00  0.00     0.001 A 
HETATM   28  C   UNK N   1      21.389  16.611   3.709  0.00  0.00     0.009 A 
ENDBRANCH  22  23
ENDBRANCH  21  22
ENDBRANCH  18  21
ENDBRANCH  12  17
ENDBRANCH   9  12
ENDBRANCH   1   8
TORSDOF 8
ENDMDL
MODEL 8
REMARK VINA RESULT:      -6.5     17.915     21.091
REMARK  8 active torsions:
REMARK  status: ('A' for Active; 'I' for Inactive)
REMARK    1  A    between atoms: C_2  and  C_4 
REMARK    2  A    between atoms: C_4  and  C_5 
REMARK    3  A    between atoms: C_5  and  N_6 
REMARK    4  A    between atoms: C_5  and  C_17 
REMARK       I    between atoms: N_6  and  C_7 
REMARK    5  A    between atoms: C_7  and  O_9 
REMARK    6  A    between atoms: O_9  and  C_10 
REMARK    7  A    between atoms: C_10  and  C_11 
REMARK       I    between atoms: C_17  and  N_19 
REMARK    8  A    between atoms: C_20  and  N_19 
ROOT
HETATM    1  C   UNK N   1      27.124  21.861  -8.334  0.00  0.00     0.104 C 
HETATM    2  C   UNK N   1      27.825  22.596  -9.488  0.00  0.00     0.047 C 
HETATM    3  C   UNK N   1      28.707  21.579 -10.175  0.00  0.00     0.136 C 
HETATM    4  N   UNK N   1      28.860  20.519  -9.220  0.00  0.00    -0.318 N 
HETATM    5  C   UNK N   1      27.941  20.595  -8.128  0.00  0.00     0.159 C 
HETATM    6  C   UNK N   1      30.145  20.063  -8.964  0.00  0.00     0.179 C 
HETATM    7  N   UNK N   1      31.211  19.668  -8.740  0.00  0.00    -0.172 NA
ENDROOT
BRANCH   1   8
HETATM    8  N   UNK N   1      27.109  22.596  -7.076  0.00  0.00    -0.353 N 
HETATM    9  C   UNK N   1      25.997  22.999  -6.402  0.00  0.00     0.240 C 
HETATM   10  O   UNK N   1      24.892  22.578  -6.711  0.00  0.00    -0.271 OA
HETATM   11  H   UNK N   1      27.980  22.822  -6.679  0.00  0.00     0.163 HD
BRANCH   9  12
HETATM   12  C   UNK N   1      26.104  23.991  -5.276  0.00  0.00     0.179 C 
BRANCH  12  13
HETATM   13  C   UNK N   1      25.466  25.376  -5.533  0.00  0.00     0.038 C 
BRANCH  13  14
HETATM   14  C   UNK N   1      26.405  26.510  -5.939  0.00  0.00    -0.020 C 
HETATM   15  C   UNK N   1      25.900  27.811  -5.348  0.00  0.00     0.009 C 
HETATM   16  C   UNK N   1      26.495  26.650  -7.444  0.00  0.00     0.009 C 
ENDBRANCH  13  14
ENDBRANCH  12  13
BRANCH  12  17
HETATM   17  N   UNK N   1      27.431  23.989  -4.690  0.00  0.00    -0.324 N 
HETATM   18  C   UNK N   1      27.801  23.980  -3.384  0.00  0.00     0.361 C 
HETATM   19  O   UNK N   1      26.977  23.944  -2.489  0.00  0.00    -0.238 OA
HETATM   20  H   UNK N   1      28.175  23.995  -5.336  0.00  0.00     0.165 HD
BRANCH  18  21
HETATM   21  O   UNK N   1      29.110  24.016  -3.067  0.00  0.00    -0.299 OA
BRANCH  21  22
HETATM   22  C   UNK N   1      29.731  22.931  -2.490  0.00  0.00     0.219 C 
BRANCH  22  23
HETATM   23  C   UNK N   1      30.648  22.153  -3.379  0.00  0.00    -0.034 A 
HETATM   24  C   UNK N   1      30.178  21.528  -4.540  0.00  0.00     0.009 A 
HETATM   25  C   UNK N   1      31.000  20.625  -5.227  0.00  0.00     0.001 A 
HETATM   26  C   UNK N   1      32.276  20.324  -4.739  0.00  0.00     0.000 A 
HETATM   27  C   UNK N   1      32.749  20.957  -3.586  0.00  0.00     0.001 A 
HETATM   28  C   UNK N   1      31.933  21.866  -2.906  0.00  0.00     0.009 A 
ENDBRANCH  22  23
ENDBRANCH  21  22
ENDBRANCH  18  21
ENDBRANCH  12  17
ENDBRANCH   9  12
ENDBRANCH   1   8
TORSDOF 8
ENDMDL
MODEL 9
REMARK VINA RESULT:      -6.4     17.945     22.261
REMARK  8 active torsions:
REMARK  status: ('A' for Active; 'I' for Inactive)
REMARK    1  A    between atoms: C_2  and  C_4 
REMARK    2  A    between atoms: C_4  and  C_5 
REMARK    3  A    between atoms: C_5  and  N_6 
REMARK    4  A    between atoms: C_5  and  C_17 
REMARK       I    between atoms: N_6  and  C_7 
REMARK    5  A    between atoms: C_7  and  O_9 
REMARK    6  A    between atoms: O_9  and  C_10 
REMARK    7  A    between atoms: C_10  and  C_11 
REMARK       I    between atoms: C_17  and  N_19 
REMARK    8  A    between atoms: C_20  and  N_19 
ROOT
HETATM    1  C   UNK N   1      30.754  21.097  -6.084  0.00  0.00     0.104 C 
HETATM    2  C   UNK N   1      31.907  22.113  -6.109  0.00  0.00     0.047 C 
HETATM    3  C   UNK N   1      32.475  22.154  -4.709  0.00  0.00     0.136 C 
HETATM    4  N   UNK N   1      31.448  21.593  -3.877  0.00  0.00    -0.318 N 
HETATM    5  C   UNK N   1      30.420  20.923  -4.611  0.00  0.00     0.159 C 
HETATM    6  C   UNK N   1      31.088  22.296  -2.737  0.00  0.00     0.179 C 
HETATM    7  N   UNK N   1      30.776  22.867  -1.779  0.00  0.00    -0.172 NA
ENDROOT
BRANCH   1   8
HETATM    8  N   UNK N   1      29.547  21.542  -6.769  0.00  0.00    -0.353 N 
HETATM    9  C   UNK N   1      28.824  20.815  -7.664  0.00  0.00     0.240 C 
HETATM   10  O   UNK N   1      29.027  19.618  -7.806  0.00  0.00    -0.271 OA
HETATM   11  H   UNK N   1      29.227  22.450  -6.567  0.00  0.00     0.163 HD
BRANCH   9  12
HETATM   12  C   UNK N   1      27.774  21.476  -8.514  0.00  0.00     0.179 C 
BRANCH  12  13
HETATM   13  C   UNK N   1      28.195  21.821  -9.962  0.00  0.00     0.038 C 
BRANCH  13  14
HETATM   14  C   UNK N   1      27.680  20.908 -11.073  0.00  0.00    -0.020 C 
HETATM   15  C   UNK N   1      28.812  20.023 -11.556  0.00  0.00     0.009 C 
HETATM   16  C   UNK N   1      27.136  21.702 -12.241  0.00  0.00     0.009 C 
ENDBRANCH  13  14
ENDBRANCH  12  13
BRANCH  12  17
HETATM   17  N   UNK N   1      27.071  22.512  -7.781  0.00  0.00    -0.324 N 
HETATM   18  C   UNK N   1      25.748  22.813  -7.761  0.00  0.00     0.361 C 
HETATM   19  O   UNK N   1      24.937  22.165  -8.398  0.00  0.00    -0.238 OA
HETATM   20  H   UNK N   1      27.638  23.083  -7.213  0.00  0.00     0.165 HD
BRANCH  18  21
HETATM   21  O   UNK N   1      25.317  23.854  -7.023  0.00  0.00    -0.299 OA
BRANCH  21  22
HETATM   22  C   UNK N   1      25.610  23.943  -5.681  0.00  0.00     0.219 C 
BRANCH  22  23
HETATM   23  C   UNK N   1      25.765  25.327  -5.135  0.00  0.00    -0.034 A 
HETATM   24  C   UNK N   1      26.406  25.559  -3.913  0.00  0.00     0.009 A 
HETATM   25  C   UNK N   1      26.339  26.827  -3.320  0.00  0.00     0.001 A 
HETATM   26  C   UNK N   1      25.608  27.851  -3.931  0.00  0.00     0.000 A 
HETATM   27  C   UNK N   1      24.977  27.622  -5.157  0.00  0.00     0.001 A 
HETATM   28  C   UNK N   1      25.054  26.361  -5.754  0.00  0.00     0.009 A 
ENDBRANCH  22  23
ENDBRANCH  21  22
ENDBRANCH  18  21
ENDBRANCH  12  17
ENDBRANCH   9  12
ENDBRANCH   1   8
TORSDOF 8
ENDMDL
