MODEL 1
REMARK VINA RESULT:      -5.4      0.000      0.000
REMARK  4 active torsions:
REMARK  status: ('A' for Active; 'I' for Inactive)
REMARK    1  A    between atoms: C_2  and  N_1 
REMARK    2  A    between atoms: C_2  and  C_3 
REMARK    3  A    between atoms: C_2  and  C_5 
REMARK       I    between atoms: C_3  and  N_12 
REMARK    4  A    between atoms: C_5  and  C_6 
ROOT
HETATM    1  C   UNK N   1      36.211  13.643  14.659  0.00  0.00     0.171 C 
ENDROOT
BRANCH   1   2
HETATM    2  N   UNK N   1      37.498  12.971  14.730  0.00  0.00    -0.418 N 
HETATM    3  H   UNK N   1      38.285  12.897  14.087  0.00  0.00     0.150 HD
HETATM    4  H   UNK N   1      37.644  12.470  15.607  0.00  0.00     0.150 HD
ENDBRANCH   1   2
BRANCH   1   5
HETATM    5  C   UNK N   1      35.868  13.920  13.215  0.00  0.00     0.237 C 
HETATM    6  O   UNK N   1      34.715  13.759  12.827  0.00  0.00    -0.271 OA
HETATM    7  N   UNK N   1      36.805  14.327  12.338  0.00  0.00    -0.368 N 
HETATM    8  H   UNK N   1      37.745  14.456  12.604  0.00  0.00     0.159 HD
HETATM    9  H   UNK N   1      36.544  14.502  11.405  0.00  0.00     0.159 HD
ENDBRANCH   1   5
BRANCH   1  10
HETATM   10  C   UNK N   1      35.128  12.761  15.299  0.00  0.00     0.072 C 
BRANCH  10  11
HETATM   11  C   UNK N   1      35.195  12.539  16.781  0.00  0.00    -0.056 A 
HETATM   12  C   UNK N   1      35.395  11.232  17.238  0.00  0.00     0.007 A 
HETATM   13  C   UNK N   1      35.484  10.965  18.606  0.00  0.00     0.001 A 
HETATM   14  C   UNK N   1      35.378  12.008  19.529  0.00  0.00     0.000 A 
HETATM   15  C   UNK N   1      35.184  13.320  19.081  0.00  0.00     0.001 A 
HETATM   16  C   UNK N   1      35.094  13.587  17.709  0.00  0.00     0.007 A 
ENDBRANCH  10  11
ENDBRANCH   1  10
TORSDOF 4
ENDMDL
MODEL 2
REMARK VINA RESULT:      -5.0      1.427      1.992
REMARK  4 active torsions:
REMARK  status: ('A' for Active; 'I' for Inactive)
REMARK    1  A    between atoms: C_2  and  N_1 
REMARK    2  A    between atoms: C_2  and  C_3 
REMARK    3  A    between atoms: C_2  and  C_5 
REMARK       I    between atoms: C_3  and  N_12 
REMARK    4  A    between atoms: C_5  and  C_6 
ROOT
HETATM    1  C   UNK N   1      36.913  13.030  14.815  0.00  0.00     0.171 C 
ENDROOT
BRANCH   1   2
HETATM    2  N   UNK N   1      37.175  12.353  13.556  0.00  0.00    -0.418 N 
HETATM    3  H   UNK N   1      36.679  12.313  12.666  0.00  0.00     0.150 HD
HETATM    4  H   UNK N   1      38.036  11.805  13.563  0.00  0.00     0.150 HD
ENDBRANCH   1   2
BRANCH   1   5
HETATM    5  C   UNK N   1      36.860  14.521  14.582  0.00  0.00     0.237 C 
HETATM    6  O   UNK N   1      37.196  15.285  15.482  0.00  0.00    -0.271 OA
HETATM    7  N   UNK N   1      36.438  15.033  13.411  0.00  0.00    -0.368 N 
HETATM    8  H   UNK N   1      36.146  14.457  12.667  0.00  0.00     0.159 HD
HETATM    9  H   UNK N   1      36.420  16.010  13.294  0.00  0.00     0.159 HD
ENDBRANCH   1   5
BRANCH   1  10
HETATM   10  C   UNK N   1      35.581  12.539  15.402  0.00  0.00     0.072 C 
BRANCH  10  11
HETATM   11  C   UNK N   1      35.535  12.238  16.871  0.00  0.00    -0.056 A 
HETATM   12  C   UNK N   1      35.173  13.273  17.739  0.00  0.00     0.007 A 
HETATM   13  C   UNK N   1      35.096  13.050  19.116  0.00  0.00     0.001 A 
HETATM   14  C   UNK N   1      35.378  11.783  19.633  0.00  0.00     0.000 A 
HETATM   15  C   UNK N   1      35.736  10.740  18.772  0.00  0.00     0.001 A 
HETATM   16  C   UNK N   1      35.813  10.964  17.391  0.00  0.00     0.007 A 
ENDBRANCH  10  11
ENDBRANCH   1  10
TORSDOF 4
ENDMDL
MODEL 3
REMARK VINA RESULT:      -5.0      9.404     10.588
REMARK  4 active torsions:
REMARK  status: ('A' for Active; 'I' for Inactive)
REMARK    1  A    between atoms: C_2  and  N_1 
REMARK    2  A    between atoms: C_2  and  C_3 
REMARK    3  A    between atoms: C_2  and  C_5 
REMARK       I    between atoms: C_3  and  N_12 
REMARK    4  A    between atoms: C_5  and  C_6 
ROOT
HETATM    1  C   UNK N   1      33.100  17.555   8.635  0.00  0.00     0.171 C 
ENDROOT
BRANCH   1   2
HETATM    2  N   UNK N   1      33.524  16.340   9.312  0.00  0.00    -0.418 N 
HETATM    3  H   UNK N   1      34.128  16.160  10.113  0.00  0.00     0.150 HD
HETATM    4  H   UNK N   1      33.134  15.492   8.900  0.00  0.00     0.150 HD
ENDBRANCH   1   2
BRANCH   1   5
HETATM    5  C   UNK N   1      34.290  18.194   7.958  0.00  0.00     0.237 C 
HETATM    6  O   UNK N   1      34.507  17.959   6.774  0.00  0.00    -0.271 OA
HETATM    7  N   UNK N   1      35.127  19.006   8.632  0.00  0.00    -0.368 N 
HETATM    8  H   UNK N   1      34.997  19.210   9.587  0.00  0.00     0.159 HD
HETATM    9  H   UNK N   1      35.890  19.407   8.156  0.00  0.00     0.159 HD
ENDBRANCH   1   5
BRANCH   1  10
HETATM   10  C   UNK N   1      32.017  17.222   7.598  0.00  0.00     0.072 C 
BRANCH  10  11
HETATM   11  C   UNK N   1      30.590  17.499   7.967  0.00  0.00    -0.056 A 
HETATM   12  C   UNK N   1      29.588  16.980   7.139  0.00  0.00     0.007 A 
HETATM   13  C   UNK N   1      28.240  17.190   7.440  0.00  0.00     0.001 A 
HETATM   14  C   UNK N   1      27.885  17.918   8.578  0.00  0.00     0.000 A 
HETATM   15  C   UNK N   1      28.880  18.435   9.415  0.00  0.00     0.001 A 
HETATM   16  C   UNK N   1      30.232  18.226   9.113  0.00  0.00     0.007 A 
ENDBRANCH  10  11
ENDBRANCH   1  10
TORSDOF 4
ENDMDL
MODEL 4
REMARK VINA RESULT:      -4.9     15.721     16.603
REMARK  4 active torsions:
REMARK  status: ('A' for Active; 'I' for Inactive)
REMARK    1  A    between atoms: C_2  and  N_1 
REMARK    2  A    between atoms: C_2  and  C_3 
REMARK    3  A    between atoms: C_2  and  C_5 
REMARK       I    between atoms: C_3  and  N_12 
REMARK    4  A    between atoms: C_5  and  C_6 
ROOT
HETATM    1  C   UNK N   1      20.514  16.174   8.679  0.00  0.00     0.171 C 
ENDROOT
BRANCH   1   2
HETATM    2  N   UNK N   1      21.180  16.567   7.448  0.00  0.00    -0.418 N 
HETATM    3  H   UNK N   1      21.072  17.361   6.817  0.00  0.00     0.150 HD
HETATM    4  H   UNK N   1      21.907  15.914   7.156  0.00  0.00     0.150 HD
ENDBRANCH   1   2
BRANCH   1   5
HETATM    5  C   UNK N   1      19.241  16.972   8.839  0.00  0.00     0.237 C 
HETATM    6  O   UNK N   1      18.160  16.430   8.630  0.00  0.00    -0.271 OA
HETATM    7  N   UNK N   1      19.268  18.271   9.191  0.00  0.00    -0.368 N 
HETATM    8  H   UNK N   1      20.114  18.748   9.353  0.00  0.00     0.159 HD
HETATM    9  H   UNK N   1      18.418  18.758   9.289  0.00  0.00     0.159 HD
ENDBRANCH   1   5
BRANCH   1  10
HETATM   10  C   UNK N   1      20.194  14.671   8.640  0.00  0.00     0.072 C 
BRANCH  10  11
HETATM   11  C   UNK N   1      20.975  13.770   9.550  0.00  0.00    -0.056 A 
HETATM   12  C   UNK N   1      22.361  13.705   9.375  0.00  0.00     0.007 A 
HETATM   13  C   UNK N   1      23.144  12.896  10.202  0.00  0.00     0.001 A 
HETATM   14  C   UNK N   1      22.542  12.148  11.217  0.00  0.00     0.000 A 
HETATM   15  C   UNK N   1      21.156  12.211  11.404  0.00  0.00     0.001 A 
HETATM   16  C   UNK N   1      20.372  13.022  10.574  0.00  0.00     0.007 A 
ENDBRANCH  10  11
ENDBRANCH   1  10
TORSDOF 4
ENDMDL
MODEL 5
REMARK VINA RESULT:      -4.8     10.849     12.216
REMARK  4 active torsions:
REMARK  status: ('A' for Active; 'I' for Inactive)
REMARK    1  A    between atoms: C_2  and  N_1 
REMARK    2  A    between atoms: C_2  and  C_3 
REMARK    3  A    between atoms: C_2  and  C_5 
REMARK       I    between atoms: C_3  and  N_12 
REMARK    4  A    between atoms: C_5  and  C_6 
ROOT
HETATM    1  C   UNK N   1      28.894  18.320   7.799  0.00  0.00     0.171 C 
ENDROOT
BRANCH   1   2
HETATM    2  N   UNK N   1      27.583  18.703   7.302  0.00  0.00    -0.418 N 
HETATM    3  H   UNK N   1      26.716  18.189   7.145  0.00  0.00     0.150 HD
HETATM    4  H   UNK N   1      27.515  19.692   7.062  0.00  0.00     0.150 HD
ENDBRANCH   1   2
BRANCH   1   5
HETATM    5  C   UNK N   1      28.786  17.930   9.254  0.00  0.00     0.237 C 
HETATM    6  O   UNK N   1      27.802  17.307   9.640  0.00  0.00    -0.271 OA
HETATM    7  N   UNK N   1      29.740  18.265  10.142  0.00  0.00    -0.368 N 
HETATM    8  H   UNK N   1      30.540  18.777   9.879  0.00  0.00     0.159 HD
HETATM    9  H   UNK N   1      29.638  17.991  11.082  0.00  0.00     0.159 HD
ENDBRANCH   1   5
BRANCH   1  10
HETATM   10  C   UNK N   1      29.439  17.143   6.975  0.00  0.00     0.072 C 
BRANCH  10  11
HETATM   11  C   UNK N   1      30.845  17.244   6.462  0.00  0.00    -0.056 A 
HETATM   12  C   UNK N   1      31.031  17.324   5.078  0.00  0.00     0.007 A 
HETATM   13  C   UNK N   1      32.316  17.436   4.540  0.00  0.00     0.001 A 
HETATM   14  C   UNK N   1      33.426  17.474   5.388  0.00  0.00     0.000 A 
HETATM   15  C   UNK N   1      33.248  17.400   6.774  0.00  0.00     0.001 A 
HETATM   16  C   UNK N   1      31.960  17.287   7.313  0.00  0.00     0.007 A 
ENDBRANCH  10  11
ENDBRANCH   1  10
TORSDOF 4
ENDMDL
MODEL 6
REMARK VINA RESULT:      -4.8     13.833     15.104
REMARK  4 active torsions:
REMARK  status: ('A' for Active; 'I' for Inactive)
REMARK    1  A    between atoms: C_2  and  N_1 
REMARK    2  A    between atoms: C_2  and  C_3 
REMARK    3  A    between atoms: C_2  and  C_5 
REMARK       I    between atoms: C_3  and  N_12 
REMARK    4  A    between atoms: C_5  and  C_6 
ROOT
HETATM    1  C   UNK N   1      23.902  12.054  10.917  0.00  0.00     0.171 C 
ENDROOT
BRANCH   1   2
HETATM    2  N   UNK N   1      25.149  12.777  11.102  0.00  0.00    -0.418 N 
HETATM    3  H   UNK N   1      25.449  13.724  10.873  0.00  0.00     0.150 HD
HETATM    4  H   UNK N   1      25.874  12.222  11.555  0.00  0.00     0.150 HD
ENDBRANCH   1   2
BRANCH   1   5
HETATM    5  C   UNK N   1      23.195  11.923  12.245  0.00  0.00     0.237 C 
HETATM    6  O   UNK N   1      23.831  12.071  13.284  0.00  0.00    -0.271 OA
HETATM    7  N   UNK N   1      21.882  11.631  12.315  0.00  0.00    -0.368 N 
HETATM    8  H   UNK N   1      21.337  11.490  11.507  0.00  0.00     0.159 HD
HETATM    9  H   UNK N   1      21.455  11.557  13.198  0.00  0.00     0.159 HD
ENDBRANCH   1   5
BRANCH   1  10
HETATM   10  C   UNK N   1      23.009  12.803   9.915  0.00  0.00     0.072 C 
BRANCH  10  11
HETATM   11  C   UNK N   1      22.702  12.124   8.613  0.00  0.00    -0.056 A 
HETATM   12  C   UNK N   1      23.553  11.096   8.194  0.00  0.00     0.007 A 
HETATM   13  C   UNK N   1      23.309  10.416   6.999  0.00  0.00     0.001 A 
HETATM   14  C   UNK N   1      22.205  10.757   6.215  0.00  0.00     0.000 A 
HETATM   15  C   UNK N   1      21.344  11.780   6.629  0.00  0.00     0.001 A 
HETATM   16  C   UNK N   1      21.589  12.463   7.827  0.00  0.00     0.007 A 
ENDBRANCH  10  11
ENDBRANCH   1  10
TORSDOF 4
ENDMDL
MODEL 7
REMARK VINA RESULT:      -4.8      7.698     10.759
REMARK  4 active torsions:
REMARK  status: ('A' for Active; 'I' for Inactive)
REMARK    1  A    between atoms: C_2  and  N_1 
REMARK    2  A    between atoms: C_2  and  C_3 
REMARK    3  A    between atoms: C_2  and  C_5 
REMARK       I    between atoms: C_3  and  N_12 
REMARK    4  A    between atoms: C_5  and  C_6 
ROOT
HETATM    1  C   UNK N   1      34.093  16.526   9.049  0.00  0.00     0.171 C 
ENDROOT
BRANCH   1   2
HETATM    2  N   UNK N   1      34.768  17.132  10.184  0.00  0.00    -0.418 N 
HETATM    3  H   UNK N   1      34.809  16.905  11.178  0.00  0.00     0.150 HD
HETATM    4  H   UNK N   1      35.317  17.955   9.935  0.00  0.00     0.150 HD
ENDBRANCH   1   2
BRANCH   1   5
HETATM    5  C   UNK N   1      33.519  15.191   9.461  0.00  0.00     0.237 C 
HETATM    6  O   UNK N   1      33.389  14.305   8.621  0.00  0.00    -0.271 OA
HETATM    7  N   UNK N   1      33.131  14.955  10.728  0.00  0.00    -0.368 N 
HETATM    8  H   UNK N   1      33.205  15.642  11.431  0.00  0.00     0.159 HD
HETATM    9  H   UNK N   1      32.765  14.071  10.960  0.00  0.00     0.159 HD
ENDBRANCH   1   5
BRANCH   1  10
HETATM   10  C   UNK N   1      32.972  17.453   8.555  0.00  0.00     0.072 C 
BRANCH  10  11
HETATM   11  C   UNK N   1      32.612  17.396   7.100  0.00  0.00    -0.056 A 
HETATM   12  C   UNK N   1      31.266  17.208   6.767  0.00  0.00     0.007 A 
HETATM   13  C   UNK N   1      30.866  17.163   5.429  0.00  0.00     0.001 A 
HETATM   14  C   UNK N   1      31.813  17.312   4.413  0.00  0.00     0.000 A 
HETATM   15  C   UNK N   1      33.160  17.507   4.737  0.00  0.00     0.001 A 
HETATM   16  C   UNK N   1      33.561  17.551   6.078  0.00  0.00     0.007 A 
ENDBRANCH  10  11
ENDBRANCH   1  10
TORSDOF 4
ENDMDL
MODEL 8
REMARK VINA RESULT:      -4.8     25.745     26.927
REMARK  4 active torsions:
REMARK  status: ('A' for Active; 'I' for Inactive)
REMARK    1  A    between atoms: C_2  and  N_1 
REMARK    2  A    between atoms: C_2  and  C_3 
REMARK    3  A    between atoms: C_2  and  C_5 
REMARK       I    between atoms: C_3  and  N_12 
REMARK    4  A    between atoms: C_5  and  C_6 
ROOT
HETATM    1  C   UNK N   1      26.404  23.427  -6.953  0.00  0.00     0.171 C 
ENDROOT
BRANCH   1   2
HETATM    2  N   UNK N   1      27.593  22.592  -6.946  0.00  0.00    -0.418 N 
HETATM    3  H   UNK N   1      28.192  22.220  -7.683  0.00  0.00     0.150 HD
HETATM    4  H   UNK N   1      27.893  22.323  -6.009  0.00  0.00     0.150 HD
ENDBRANCH   1   2
BRANCH   1   5
HETATM    5  C   UNK N   1      25.321  22.752  -7.761  0.00  0.00     0.237 C 
HETATM    6  O   UNK N   1      24.652  23.416  -8.546  0.00  0.00    -0.271 OA
HETATM    7  N   UNK N   1      25.063  21.437  -7.626  0.00  0.00    -0.368 N 
HETATM    8  H   UNK N   1      25.566  20.870  -6.997  0.00  0.00     0.159 HD
HETATM    9  H   UNK N   1      24.352  21.031  -8.172  0.00  0.00     0.159 HD
ENDBRANCH   1   5
BRANCH   1  10
HETATM   10  C   UNK N   1      25.922  23.659  -5.513  0.00  0.00     0.072 C 
BRANCH  10  11
HETATM   11  C   UNK N   1      25.852  25.074  -5.021  0.00  0.00    -0.056 A 
HETATM   12  C   UNK N   1      25.158  26.004  -5.803  0.00  0.00     0.007 A 
HETATM   13  C   UNK N   1      25.043  27.333  -5.389  0.00  0.00     0.001 A 
HETATM   14  C   UNK N   1      25.620  27.741  -4.184  0.00  0.00     0.000 A 
HETATM   15  C   UNK N   1      26.311  26.816  -3.393  0.00  0.00     0.001 A 
HETATM   16  C   UNK N   1      26.426  25.484  -3.808  0.00  0.00     0.007 A 
ENDBRANCH  10  11
ENDBRANCH   1  10
TORSDOF 4
ENDMDL
MODEL 9
REMARK VINA RESULT:      -4.7     14.402     15.638
REMARK  4 active torsions:
REMARK  status: ('A' for Active; 'I' for Inactive)
REMARK    1  A    between atoms: C_2  and  N_1 
REMARK    2  A    between atoms: C_2  and  C_3 
REMARK    3  A    between atoms: C_2  and  C_5 
REMARK       I    between atoms: C_3  and  N_12 
REMARK    4  A    between atoms: C_5  and  C_6 
ROOT
HETATM    1  C   UNK N   1      22.758  12.638  10.649  0.00  0.00     0.171 C 
ENDROOT
BRANCH   1   2
HETATM    2  N   UNK N   1      22.381  11.575  11.566  0.00  0.00    -0.418 N 
HETATM    3  H   UNK N   1      22.485  10.561  11.543  0.00  0.00     0.150 HD
HETATM    4  H   UNK N   1      21.916  11.914  12.408  0.00  0.00     0.150 HD
ENDBRANCH   1   2
BRANCH   1   5
HETATM    5  C   UNK N   1      24.183  12.429  10.196  0.00  0.00     0.237 C 
HETATM    6  O   UNK N   1      24.399  11.890   9.115  0.00  0.00    -0.271 OA
HETATM    7  N   UNK N   1      25.224  12.807  10.961  0.00  0.00    -0.368 N 
HETATM    8  H   UNK N   1      25.096  13.230  11.841  0.00  0.00     0.159 HD
HETATM    9  H   UNK N   1      26.140  12.658  10.631  0.00  0.00     0.159 HD
ENDBRANCH   1   5
BRANCH   1  10
HETATM   10  C   UNK N   1      21.812  12.640   9.438  0.00  0.00     0.072 C 
BRANCH  10  11
HETATM   11  C   UNK N   1      21.426  13.968   8.858  0.00  0.00    -0.056 A 
HETATM   12  C   UNK N   1      22.138  14.427   7.744  0.00  0.00     0.007 A 
HETATM   13  C   UNK N   1      21.813  15.649   7.149  0.00  0.00     0.001 A 
HETATM   14  C   UNK N   1      20.767  16.419   7.663  0.00  0.00     0.000 A 
HETATM   15  C   UNK N   1      20.046  15.965   8.773  0.00  0.00     0.001 A 
HETATM   16  C   UNK N   1      20.371  14.740   9.370  0.00  0.00     0.007 A 
ENDBRANCH  10  11
ENDBRANCH   1  10
TORSDOF 4
ENDMDL
