MODEL 1
REMARK VINA RESULT:      -6.3      0.000      0.000
REMARK  5 active torsions:
REMARK  status: ('A' for Active; 'I' for Inactive)
REMARK    1  A    between atoms: C_3  and  N_10 
REMARK    2  A    between atoms: C_4  and  C_16 
REMARK       I    between atoms: N_10  and  C_11 
REMARK    3  A    between atoms: C_11  and  C_12 
REMARK    4  A    between atoms: C_12  and  O_14 
REMARK    5  A    between atoms: C_16  and  O_18 
ROOT
HETATM    1  C   UNK N   1      35.758  12.687  16.291  0.00  0.00     0.044 A 
HETATM    2  C   UNK N   1      35.875  13.715  15.370  0.00  0.00     0.061 A 
HETATM    3  C   UNK N   1      36.459  13.434  14.113  0.00  0.00     0.054 A 
HETATM    4  C   UNK N   1      36.910  12.104  13.825  0.00  0.00     0.065 A 
HETATM    5  C   UNK N   1      36.759  11.092  14.802  0.00  0.00     0.034 A 
HETATM    6  C   UNK N   1      36.180  11.427  16.021  0.00  0.00    -0.007 A 
HETATM    7  C   UNK N   1      35.927  10.653  17.127  0.00  0.00     0.030 A 
HETATM    8  C   UNK N   1      35.339  11.523  18.050  0.00  0.00     0.089 A 
HETATM    9  N   UNK N   1      35.240  12.768  17.524  0.00  0.00    -0.365 N 
HETATM   10  H   UNK N   1      34.866  13.569  17.960  0.00  0.00     0.165 HD
ENDROOT
BRANCH   3  11
HETATM   11  N   UNK N   1      36.601  14.460  13.133  0.00  0.00    -0.317 N 
HETATM   12  C   UNK N   1      35.668  14.848  12.223  0.00  0.00     0.319 C 
HETATM   13  O   UNK N   1      34.569  14.313  12.175  0.00  0.00    -0.261 OA
HETATM   14  H   UNK N   1      37.463  14.937  13.113  0.00  0.00     0.169 HD
BRANCH  12  15
HETATM   15  C   UNK N   1      35.990  15.934  11.284  0.00  0.00     0.237 C 
HETATM   16  O   UNK N   1      35.170  16.805  11.044  0.00  0.00    -0.643 OA
BRANCH  15  17
HETATM   17  O   UNK N   1      37.196  15.970  10.684  0.00  0.00    -0.769 OA
HETATM   18  H   UNK N   1      37.920  15.509  11.059  0.00  0.00     0.168 HD
ENDBRANCH  15  17
ENDBRANCH  12  15
ENDBRANCH   3  11
BRANCH   4  19
HETATM   19  C   UNK N   1      37.544  11.749  12.524  0.00  0.00     0.178 C 
HETATM   20  O   UNK N   1      37.397  10.629  12.059  0.00  0.00    -0.646 OA
BRANCH  19  21
HETATM   21  O   UNK N   1      38.293  12.642  11.848  0.00  0.00    -0.773 OA
HETATM   22  H   UNK N   1      38.651  12.418  11.011  0.00  0.00     0.167 HD
ENDBRANCH  19  21
ENDBRANCH   4  19
TORSDOF 5
ENDMDL
MODEL 2
REMARK VINA RESULT:      -6.2      2.696      6.026
REMARK  5 active torsions:
REMARK  status: ('A' for Active; 'I' for Inactive)
REMARK    1  A    between atoms: C_3  and  N_10 
REMARK    2  A    between atoms: C_4  and  C_16 
REMARK       I    between atoms: N_10  and  C_11 
REMARK    3  A    between atoms: C_11  and  C_12 
REMARK    4  A    between atoms: C_12  and  O_14 
REMARK    5  A    between atoms: C_16  and  O_18 
ROOT
HETATM    1  C   UNK N   1      34.827  16.407   9.943  0.00  0.00     0.044 A 
HETATM    2  C   UNK N   1      35.265  16.192  11.239  0.00  0.00     0.061 A 
HETATM    3  C   UNK N   1      36.101  15.081  11.495  0.00  0.00     0.054 A 
HETATM    4  C   UNK N   1      36.473  14.213  10.417  0.00  0.00     0.065 A 
HETATM    5  C   UNK N   1      36.001  14.484   9.111  0.00  0.00     0.034 A 
HETATM    6  C   UNK N   1      35.179  15.589   8.919  0.00  0.00    -0.007 A 
HETATM    7  C   UNK N   1      34.585  16.069   7.777  0.00  0.00     0.030 A 
HETATM    8  C   UNK N   1      33.874  17.199   8.186  0.00  0.00     0.089 A 
HETATM    9  N   UNK N   1      34.031  17.397   9.518  0.00  0.00    -0.365 N 
HETATM   10  H   UNK N   1      33.638  18.119  10.061  0.00  0.00     0.165 HD
ENDROOT
BRANCH   3  11
HETATM   11  N   UNK N   1      36.577  14.819  12.814  0.00  0.00    -0.317 N 
HETATM   12  C   UNK N   1      35.959  14.068  13.765  0.00  0.00     0.319 C 
HETATM   13  O   UNK N   1      34.883  13.528  13.547  0.00  0.00    -0.261 OA
HETATM   14  H   UNK N   1      37.441  15.222  13.061  0.00  0.00     0.169 HD
BRANCH  12  15
HETATM   15  C   UNK N   1      36.602  13.903  15.078  0.00  0.00     0.237 C 
HETATM   16  O   UNK N   1      36.236  13.021  15.837  0.00  0.00    -0.643 OA
BRANCH  15  17
HETATM   17  O   UNK N   1      37.601  14.729  15.447  0.00  0.00    -0.769 OA
HETATM   18  H   UNK N   1      38.477  14.561  15.162  0.00  0.00     0.168 HD
ENDBRANCH  15  17
ENDBRANCH  12  15
ENDBRANCH   3  11
BRANCH   4  19
HETATM   19  C   UNK N   1      37.342  13.020  10.625  0.00  0.00     0.178 C 
HETATM   20  O   UNK N   1      36.979  11.923  10.228  0.00  0.00    -0.646 OA
BRANCH  19  21
HETATM   21  O   UNK N   1      38.526  13.124  11.260  0.00  0.00    -0.773 OA
HETATM   22  H   UNK N   1      38.931  12.363  11.627  0.00  0.00     0.167 HD
ENDBRANCH  19  21
ENDBRANCH   4  19
TORSDOF 5
ENDMDL
MODEL 3
REMARK VINA RESULT:      -6.2     11.719     14.373
REMARK  5 active torsions:
REMARK  status: ('A' for Active; 'I' for Inactive)
REMARK    1  A    between atoms: C_3  and  N_10 
REMARK    2  A    between atoms: C_4  and  C_16 
REMARK       I    between atoms: N_10  and  C_11 
REMARK    3  A    between atoms: C_11  and  C_12 
REMARK    4  A    between atoms: C_12  and  O_14 
REMARK    5  A    between atoms: C_16  and  O_18 
ROOT
HETATM    1  C   UNK N   1      28.977  17.727   5.821  0.00  0.00     0.044 A 
HETATM    2  C   UNK N   1      28.207  18.328   4.841  0.00  0.00     0.061 A 
HETATM    3  C   UNK N   1      27.388  19.424   5.200  0.00  0.00     0.054 A 
HETATM    4  C   UNK N   1      27.377  19.882   6.558  0.00  0.00     0.065 A 
HETATM    5  C   UNK N   1      28.189  19.233   7.518  0.00  0.00     0.034 A 
HETATM    6  C   UNK N   1      28.972  18.159   7.107  0.00  0.00    -0.007 A 
HETATM    7  C   UNK N   1      29.831  17.360   7.822  0.00  0.00     0.030 A 
HETATM    8  C   UNK N   1      30.332  16.446   6.893  0.00  0.00     0.089 A 
HETATM    9  N   UNK N   1      29.802  16.682   5.668  0.00  0.00    -0.365 N 
HETATM   10  H   UNK N   1      29.984  16.186   4.836  0.00  0.00     0.165 HD
ENDROOT
BRANCH   3  11
HETATM   11  N   UNK N   1      26.577  20.075   4.224  0.00  0.00    -0.317 N 
HETATM   12  C   UNK N   1      25.278  19.795   3.931  0.00  0.00     0.319 C 
HETATM   13  O   UNK N   1      24.671  18.911   4.520  0.00  0.00    -0.261 OA
HETATM   14  H   UNK N   1      27.000  20.801   3.710  0.00  0.00     0.169 HD
BRANCH  12  15
HETATM   15  C   UNK N   1      24.594  20.576   2.889  0.00  0.00     0.237 C 
HETATM   16  O   UNK N   1      25.125  20.755   1.805  0.00  0.00    -0.643 OA
BRANCH  15  17
HETATM   17  O   UNK N   1      23.374  21.097   3.129  0.00  0.00    -0.769 OA
HETATM   18  H   UNK N   1      23.166  21.960   2.831  0.00  0.00     0.168 HD
ENDBRANCH  15  17
ENDBRANCH  12  15
ENDBRANCH   3  11
BRANCH   4  19
HETATM   19  C   UNK N   1      26.526  21.023   7.001  0.00  0.00     0.178 C 
HETATM   20  O   UNK N   1      26.470  22.040   6.326  0.00  0.00    -0.646 OA
BRANCH  19  21
HETATM   21  O   UNK N   1      25.821  20.962   8.147  0.00  0.00    -0.773 OA
HETATM   22  H   UNK N   1      26.158  20.487   8.881  0.00  0.00     0.167 HD
ENDBRANCH  19  21
ENDBRANCH   4  19
TORSDOF 5
ENDMDL
MODEL 4
REMARK VINA RESULT:      -6.1      4.928      7.293
REMARK  5 active torsions:
REMARK  status: ('A' for Active; 'I' for Inactive)
REMARK    1  A    between atoms: C_3  and  N_10 
REMARK    2  A    between atoms: C_4  and  C_16 
REMARK       I    between atoms: N_10  and  C_11 
REMARK    3  A    between atoms: C_11  and  C_12 
REMARK    4  A    between atoms: C_12  and  O_14 
REMARK    5  A    between atoms: C_16  and  O_18 
ROOT
HETATM    1  C   UNK N   1      34.175  14.864  10.683  0.00  0.00     0.044 A 
HETATM    2  C   UNK N   1      33.246  15.007   9.668  0.00  0.00     0.061 A 
HETATM    3  C   UNK N   1      33.369  16.107   8.788  0.00  0.00     0.054 A 
HETATM    4  C   UNK N   1      34.444  17.038   8.967  0.00  0.00     0.065 A 
HETATM    5  C   UNK N   1      35.369  16.839  10.018  0.00  0.00     0.034 A 
HETATM    6  C   UNK N   1      35.196  15.741  10.854  0.00  0.00    -0.007 A 
HETATM    7  C   UNK N   1      35.931  15.324  11.937  0.00  0.00     0.030 A 
HETATM    8  C   UNK N   1      35.289  14.167  12.386  0.00  0.00     0.089 A 
HETATM    9  N   UNK N   1      34.213  13.894  11.608  0.00  0.00    -0.365 N 
HETATM   10  H   UNK N   1      33.587  13.140  11.703  0.00  0.00     0.165 HD
ENDROOT
BRANCH   3  11
HETATM   11  N   UNK N   1      32.434  16.296   7.727  0.00  0.00    -0.317 N 
HETATM   12  C   UNK N   1      31.224  16.912   7.812  0.00  0.00     0.319 C 
HETATM   13  O   UNK N   1      30.822  17.378   8.869  0.00  0.00    -0.261 OA
HETATM   14  H   UNK N   1      32.691  15.947   6.843  0.00  0.00     0.169 HD
BRANCH  12  15
HETATM   15  C   UNK N   1      30.388  17.019   6.606  0.00  0.00     0.237 C 
HETATM   16  O   UNK N   1      30.892  17.289   5.529  0.00  0.00    -0.643 OA
BRANCH  15  17
HETATM   17  O   UNK N   1      29.058  16.817   6.689  0.00  0.00    -0.769 OA
HETATM   18  H   UNK N   1      28.590  16.469   5.955  0.00  0.00     0.168 HD
ENDBRANCH  15  17
ENDBRANCH  12  15
ENDBRANCH   3  11
BRANCH   4  19
HETATM   19  C   UNK N   1      34.619  18.223   8.079  0.00  0.00     0.178 C 
HETATM   20  O   UNK N   1      35.041  19.273   8.539  0.00  0.00    -0.646 OA
BRANCH  19  21
HETATM   21  O   UNK N   1      34.308  18.164   6.770  0.00  0.00    -0.773 OA
HETATM   22  H   UNK N   1      34.987  18.187   6.124  0.00  0.00     0.167 HD
ENDBRANCH  19  21
ENDBRANCH   4  19
TORSDOF 5
ENDMDL
MODEL 5
REMARK VINA RESULT:      -6.0      6.236      9.481
REMARK  5 active torsions:
REMARK  status: ('A' for Active; 'I' for Inactive)
REMARK    1  A    between atoms: C_3  and  N_10 
REMARK    2  A    between atoms: C_4  and  C_16 
REMARK       I    between atoms: N_10  and  C_11 
REMARK    3  A    between atoms: C_11  and  C_12 
REMARK    4  A    between atoms: C_12  and  O_14 
REMARK    5  A    between atoms: C_16  and  O_18 
ROOT
HETATM    1  C   UNK N   1      29.683  17.229   7.729  0.00  0.00     0.044 A 
HETATM    2  C   UNK N   1      30.738  17.297   8.622  0.00  0.00     0.061 A 
HETATM    3  C   UNK N   1      32.057  17.284   8.113  0.00  0.00     0.054 A 
HETATM    4  C   UNK N   1      32.268  17.202   6.698  0.00  0.00     0.065 A 
HETATM    5  C   UNK N   1      31.151  17.142   5.831  0.00  0.00     0.034 A 
HETATM    6  C   UNK N   1      29.878  17.155   6.388  0.00  0.00    -0.007 A 
HETATM    7  C   UNK N   1      28.643  17.099   5.787  0.00  0.00     0.030 A 
HETATM    8  C   UNK N   1      27.726  17.143   6.840  0.00  0.00     0.089 A 
HETATM    9  N   UNK N   1      28.376  17.223   8.027  0.00  0.00    -0.365 N 
HETATM   10  H   UNK N   1      27.971  17.267   8.924  0.00  0.00     0.165 HD
ENDROOT
BRANCH   3  11
HETATM   11  N   UNK N   1      33.176  17.352   8.995  0.00  0.00    -0.317 N 
HETATM   12  C   UNK N   1      33.861  16.300   9.520  0.00  0.00     0.319 C 
HETATM   13  O   UNK N   1      33.549  15.146   9.258  0.00  0.00    -0.261 OA
HETATM   14  H   UNK N   1      33.485  18.252   9.250  0.00  0.00     0.169 HD
BRANCH  12  15
HETATM   15  C   UNK N   1      34.998  16.559  10.416  0.00  0.00     0.237 C 
HETATM   16  O   UNK N   1      35.697  17.547  10.255  0.00  0.00    -0.643 OA
BRANCH  15  17
HETATM   17  O   UNK N   1      35.273  15.705  11.421  0.00  0.00    -0.769 OA
HETATM   18  H   UNK N   1      35.555  16.034  12.252  0.00  0.00     0.168 HD
ENDBRANCH  15  17
ENDBRANCH  12  15
ENDBRANCH   3  11
BRANCH   4  19
HETATM   19  C   UNK N   1      33.634  17.173   6.102  0.00  0.00     0.178 C 
HETATM   20  O   UNK N   1      34.477  17.977   6.469  0.00  0.00    -0.646 OA
BRANCH  19  21
HETATM   21  O   UNK N   1      33.958  16.277   5.150  0.00  0.00    -0.773 OA
HETATM   22  H   UNK N   1      33.402  16.162   4.404  0.00  0.00     0.167 HD
ENDBRANCH  19  21
ENDBRANCH   4  19
TORSDOF 5
ENDMDL
MODEL 6
REMARK VINA RESULT:      -5.9      8.598      9.996
REMARK  5 active torsions:
REMARK  status: ('A' for Active; 'I' for Inactive)
REMARK    1  A    between atoms: C_3  and  N_10 
REMARK    2  A    between atoms: C_4  and  C_16 
REMARK       I    between atoms: N_10  and  C_11 
REMARK    3  A    between atoms: C_11  and  C_12 
REMARK    4  A    between atoms: C_12  and  O_14 
REMARK    5  A    between atoms: C_16  and  O_18 
ROOT
HETATM    1  C   UNK N   1      29.679  17.283   7.787  0.00  0.00     0.044 A 
HETATM    2  C   UNK N   1      30.361  16.630   6.774  0.00  0.00     0.061 A 
HETATM    3  C   UNK N   1      31.769  16.746   6.722  0.00  0.00     0.054 A 
HETATM    4  C   UNK N   1      32.451  17.529   7.710  0.00  0.00     0.065 A 
HETATM    5  C   UNK N   1      31.703  18.169   8.727  0.00  0.00     0.034 A 
HETATM    6  C   UNK N   1      30.321  18.022   8.726  0.00  0.00    -0.007 A 
HETATM    7  C   UNK N   1      29.372  18.533   9.578  0.00  0.00     0.030 A 
HETATM    8  C   UNK N   1      28.152  18.058   9.088  0.00  0.00     0.089 A 
HETATM    9  N   UNK N   1      28.354  17.291   7.989  0.00  0.00    -0.365 N 
HETATM   10  H   UNK N   1      27.668  16.834   7.449  0.00  0.00     0.165 HD
ENDROOT
BRANCH   3  11
HETATM   11  N   UNK N   1      32.514  16.092   5.696  0.00  0.00    -0.317 N 
HETATM   12  C   UNK N   1      32.699  16.531   4.422  0.00  0.00     0.319 C 
HETATM   13  O   UNK N   1      32.211  17.584   4.037  0.00  0.00    -0.261 OA
HETATM   14  H   UNK N   1      32.938  15.236   5.935  0.00  0.00     0.169 HD
BRANCH  12  15
HETATM   15  C   UNK N   1      33.505  15.722   3.494  0.00  0.00     0.237 C 
HETATM   16  O   UNK N   1      33.491  15.959   2.298  0.00  0.00    -0.643 OA
BRANCH  15  17
HETATM   17  O   UNK N   1      34.264  14.713   3.966  0.00  0.00    -0.769 OA
HETATM   18  H   UNK N   1      33.929  13.837   3.970  0.00  0.00     0.168 HD
ENDBRANCH  15  17
ENDBRANCH  12  15
ENDBRANCH   3  11
BRANCH   4  19
HETATM   19  C   UNK N   1      33.932  17.699   7.701  0.00  0.00     0.178 C 
HETATM   20  O   UNK N   1      34.493  18.105   6.696  0.00  0.00    -0.646 OA
BRANCH  19  21
HETATM   21  O   UNK N   1      34.672  17.398   8.786  0.00  0.00    -0.773 OA
HETATM   22  H   UNK N   1      34.743  18.012   9.491  0.00  0.00     0.167 HD
ENDBRANCH  19  21
ENDBRANCH   4  19
TORSDOF 5
ENDMDL
MODEL 7
REMARK VINA RESULT:      -5.8      9.399     11.693
REMARK  5 active torsions:
REMARK  status: ('A' for Active; 'I' for Inactive)
REMARK    1  A    between atoms: C_3  and  N_10 
REMARK    2  A    between atoms: C_4  and  C_16 
REMARK       I    between atoms: N_10  and  C_11 
REMARK    3  A    between atoms: C_11  and  C_12 
REMARK    4  A    between atoms: C_12  and  O_14 
REMARK    5  A    between atoms: C_16  and  O_18 
ROOT
HETATM    1  C   UNK N   1      31.767  17.277   6.625  0.00  0.00     0.044 A 
HETATM    2  C   UNK N   1      30.549  17.186   5.971  0.00  0.00     0.061 A 
HETATM    3  C   UNK N   1      29.365  17.400   6.714  0.00  0.00     0.054 A 
HETATM    4  C   UNK N   1      29.453  17.704   8.112  0.00  0.00     0.065 A 
HETATM    5  C   UNK N   1      30.724  17.791   8.726  0.00  0.00     0.034 A 
HETATM    6  C   UNK N   1      31.854  17.568   7.947  0.00  0.00    -0.007 A 
HETATM    7  C   UNK N   1      33.185  17.582   8.286  0.00  0.00     0.030 A 
HETATM    8  C   UNK N   1      33.864  17.286   7.101  0.00  0.00     0.089 A 
HETATM    9  N   UNK N   1      32.982  17.102   6.088  0.00  0.00    -0.365 N 
HETATM   10  H   UNK N   1      33.192  16.882   5.151  0.00  0.00     0.165 HD
ENDROOT
BRANCH   3  11
HETATM   11  N   UNK N   1      28.088  17.316   6.084  0.00  0.00    -0.317 N 
HETATM   12  C   UNK N   1      27.487  18.280   5.335  0.00  0.00     0.319 C 
HETATM   13  O   UNK N   1      28.032  19.357   5.134  0.00  0.00    -0.261 OA
HETATM   14  H   UNK N   1      27.591  16.474   6.202  0.00  0.00     0.169 HD
BRANCH  12  15
HETATM   15  C   UNK N   1      26.161  18.017   4.757  0.00  0.00     0.237 C 
HETATM   16  O   UNK N   1      26.060  17.544   3.637  0.00  0.00    -0.643 OA
BRANCH  15  17
HETATM   17  O   UNK N   1      25.049  18.297   5.466  0.00  0.00    -0.769 OA
HETATM   18  H   UNK N   1      24.209  18.039   5.141  0.00  0.00     0.168 HD
ENDBRANCH  15  17
ENDBRANCH  12  15
ENDBRANCH   3  11
BRANCH   4  19
HETATM   19  C   UNK N   1      28.240  17.927   8.950  0.00  0.00     0.178 C 
HETATM   20  O   UNK N   1      27.925  17.108   9.799  0.00  0.00    -0.646 OA
BRANCH  19  21
HETATM   21  O   UNK N   1      27.470  19.020   8.780  0.00  0.00    -0.773 OA
HETATM   22  H   UNK N   1      26.791  19.020   8.133  0.00  0.00     0.167 HD
ENDBRANCH  19  21
ENDBRANCH   4  19
TORSDOF 5
ENDMDL
MODEL 8
REMARK VINA RESULT:      -5.6      4.703      5.698
REMARK  5 active torsions:
REMARK  status: ('A' for Active; 'I' for Inactive)
REMARK    1  A    between atoms: C_3  and  N_10 
REMARK    2  A    between atoms: C_4  and  C_16 
REMARK       I    between atoms: N_10  and  C_11 
REMARK    3  A    between atoms: C_11  and  C_12 
REMARK    4  A    between atoms: C_12  and  O_14 
REMARK    5  A    between atoms: C_16  and  O_18 
ROOT
HETATM    1  C   UNK N   1      33.648  12.384   9.306  0.00  0.00     0.044 A 
HETATM    2  C   UNK N   1      33.732  13.593   8.637  0.00  0.00     0.061 A 
HETATM    3  C   UNK N   1      34.804  14.463   8.944  0.00  0.00     0.054 A 
HETATM    4  C   UNK N   1      35.768  14.076   9.931  0.00  0.00     0.065 A 
HETATM    5  C   UNK N   1      35.636  12.826  10.579  0.00  0.00     0.034 A 
HETATM    6  C   UNK N   1      34.560  12.013  10.239  0.00  0.00    -0.007 A 
HETATM    7  C   UNK N   1      34.197  10.775  10.712  0.00  0.00     0.030 A 
HETATM    8  C   UNK N   1      33.032  10.448  10.012  0.00  0.00     0.089 A 
HETATM    9  N   UNK N   1      32.706  11.444   9.152  0.00  0.00    -0.365 N 
HETATM   10  H   UNK N   1      31.935  11.470   8.540  0.00  0.00     0.165 HD
ENDROOT
BRANCH   3  11
HETATM   11  N   UNK N   1      34.932  15.720   8.280  0.00  0.00    -0.317 N 
HETATM   12  C   UNK N   1      34.260  16.866   8.575  0.00  0.00     0.319 C 
HETATM   13  O   UNK N   1      33.446  16.907   9.488  0.00  0.00    -0.261 OA
HETATM   14  H   UNK N   1      35.572  15.762   7.533  0.00  0.00     0.169 HD
BRANCH  12  15
HETATM   15  C   UNK N   1      34.523  18.075   7.781  0.00  0.00     0.237 C 
HETATM   16  O   UNK N   1      34.307  18.083   6.580  0.00  0.00    -0.643 OA
BRANCH  15  17
HETATM   17  O   UNK N   1      35.003  19.183   8.379  0.00  0.00    -0.769 OA
HETATM   18  H   UNK N   1      35.924  19.277   8.521  0.00  0.00     0.168 HD
ENDBRANCH  15  17
ENDBRANCH  12  15
ENDBRANCH   3  11
BRANCH   4  19
HETATM   19  C   UNK N   1      36.912  14.955  10.306  0.00  0.00     0.178 C 
HETATM   20  O   UNK N   1      36.703  16.080  10.736  0.00  0.00    -0.646 OA
BRANCH  19  21
HETATM   21  O   UNK N   1      38.185  14.536  10.170  0.00  0.00    -0.773 OA
HETATM   22  H   UNK N   1      38.365  13.690   9.809  0.00  0.00     0.167 HD
ENDBRANCH  19  21
ENDBRANCH   4  19
TORSDOF 5
ENDMDL
MODEL 9
REMARK VINA RESULT:      -5.6      1.874      2.645
REMARK  5 active torsions:
REMARK  status: ('A' for Active; 'I' for Inactive)
REMARK    1  A    between atoms: C_3  and  N_10 
REMARK    2  A    between atoms: C_4  and  C_16 
REMARK       I    between atoms: N_10  and  C_11 
REMARK    3  A    between atoms: C_11  and  C_12 
REMARK    4  A    between atoms: C_12  and  O_14 
REMARK    5  A    between atoms: C_16  and  O_18 
ROOT
HETATM    1  C   UNK N   1      35.188  12.672  17.921  0.00  0.00     0.044 A 
HETATM    2  C   UNK N   1      35.100  13.309  16.695  0.00  0.00     0.061 A 
HETATM    3  C   UNK N   1      34.982  12.518  15.529  0.00  0.00     0.054 A 
HETATM    4  C   UNK N   1      34.954  11.089  15.644  0.00  0.00     0.065 A 
HETATM    5  C   UNK N   1      35.041  10.493  16.924  0.00  0.00     0.034 A 
HETATM    6  C   UNK N   1      35.159  11.321  18.034  0.00  0.00    -0.007 A 
HETATM    7  C   UNK N   1      35.267  11.009  19.368  0.00  0.00     0.030 A 
HETATM    8  C   UNK N   1      35.361  12.241  20.021  0.00  0.00     0.089 A 
HETATM    9  N   UNK N   1      35.310  13.254  19.122  0.00  0.00    -0.365 N 
HETATM   10  H   UNK N   1      35.356  14.220  19.312  0.00  0.00     0.165 HD
ENDROOT
BRANCH   3  11
HETATM   11  N   UNK N   1      34.889  13.129  14.243  0.00  0.00    -0.317 N 
HETATM   12  C   UNK N   1      35.807  13.951  13.667  0.00  0.00     0.319 C 
HETATM   13  O   UNK N   1      36.845  14.244  14.244  0.00  0.00    -0.261 OA
HETATM   14  H   UNK N   1      34.077  12.936  13.719  0.00  0.00     0.169 HD
BRANCH  12  15
HETATM   15  C   UNK N   1      35.544  14.491  12.324  0.00  0.00     0.237 C 
HETATM   16  O   UNK N   1      34.432  14.398  11.830  0.00  0.00    -0.643 OA
BRANCH  15  17
HETATM   17  O   UNK N   1      36.533  15.093  11.635  0.00  0.00    -0.769 OA
HETATM   18  H   UNK N   1      37.428  14.904  11.838  0.00  0.00     0.168 HD
ENDBRANCH  15  17
ENDBRANCH  12  15
ENDBRANCH   3  11
BRANCH   4  19
HETATM   19  C   UNK N   1      34.842  10.202  14.451  0.00  0.00     0.178 C 
HETATM   20  O   UNK N   1      35.661   9.314  14.272  0.00  0.00    -0.646 OA
BRANCH  19  21
HETATM   21  O   UNK N   1      33.854  10.369  13.550  0.00  0.00    -0.773 OA
HETATM   22  H   UNK N   1      33.041  10.754  13.812  0.00  0.00     0.167 HD
ENDBRANCH  19  21
ENDBRANCH   4  19
TORSDOF 5
ENDMDL
