MODEL 1
REMARK VINA RESULT:      -6.0      0.000      0.000
REMARK  5 active torsions:
REMARK  status: ('A' for Active; 'I' for Inactive)
REMARK    1  A    between atoms: C_3  and  O_18 
REMARK    2  A    between atoms: C_9  and  C_4 
REMARK    3  A    between atoms: C_4  and  O_21 
REMARK    4  A    between atoms: C_10  and  C_11 
REMARK    5  A    between atoms: C_11  and  C_12 
ROOT
HETATM    1  C   UNK N   1      36.224  14.071   8.154  0.00  0.00     0.084 C 
HETATM    2  C   UNK N   1      36.047  12.796   8.939  0.00  0.00     0.158 C 
HETATM    3  C   UNK N   1      34.974  12.756   9.989  0.00  0.00     0.230 C 
HETATM    4  C   UNK N   1      35.134  13.928  11.033  0.00  0.00     0.154 C 
HETATM    5  C   UNK N   1      35.836  15.189  10.369  0.00  0.00     0.091 C 
HETATM    6  C   UNK N   1      35.521  15.250   8.866  0.00  0.00     0.048 C 
HETATM    7  O   UNK N   1      37.229  15.115  10.483  0.00  0.00    -0.387 OA
HETATM    8  C   UNK N   1      35.408  16.486  11.037  0.00  0.00     0.049 C 
HETATM    9  O   UNK N   1      36.737  11.817   8.697  0.00  0.00    -0.295 OA
HETATM   10  H   UNK N   1      38.185  14.983  10.580  0.00  0.00     0.210 HD
ENDROOT
BRANCH   4  11
HETATM   11  C   UNK N   1      35.897  13.475  12.329  0.00  0.00     0.121 A 
HETATM   12  C   UNK N   1      35.733  14.206  13.641  0.00  0.00     0.163 A 
HETATM   13  O   UNK N   1      34.976  13.067  13.304  0.00  0.00    -0.366 OA
HETATM   14  C   UNK N   1      36.983  12.410  12.223  0.00  0.00     0.052 C 
BRANCH  12  15
HETATM   15  C   UNK N   1      36.690  13.857  14.796  0.00  0.00     0.062 C 
BRANCH  15  16
HETATM   16  C   UNK N   1      35.992  13.413  16.062  0.00  0.00    -0.022 C 
HETATM   17  C   UNK N   1      35.937  12.145  16.490  0.00  0.00    -0.091 C 
HETATM   18  C   UNK N   1      35.245  11.847  17.776  0.00  0.00     0.042 C 
HETATM   19  C   UNK N   1      36.546  11.022  15.716  0.00  0.00     0.042 C 
ENDBRANCH  15  16
ENDBRANCH  12  15
ENDBRANCH   4  11
BRANCH   4  20
HETATM   20  O   UNK N   1      33.825  14.284  11.391  0.00  0.00    -0.380 OA
HETATM   21  H   UNK N   1      33.049  14.867  11.402  0.00  0.00     0.211 HD
ENDBRANCH   4  20
BRANCH   3  22
HETATM   22  O   UNK N   1      34.888  11.475  10.584  0.00  0.00    -0.380 OA
HETATM   23  C   UNK N   1      33.712  10.845  10.143  0.00  0.00     0.202 C 
ENDBRANCH   3  22
TORSDOF 5
ENDMDL
MODEL 2
REMARK VINA RESULT:      -5.8     18.855     21.997
REMARK  5 active torsions:
REMARK  status: ('A' for Active; 'I' for Inactive)
REMARK    1  A    between atoms: C_3  and  O_18 
REMARK    2  A    between atoms: C_9  and  C_4 
REMARK    3  A    between atoms: C_4  and  O_21 
REMARK    4  A    between atoms: C_10  and  C_11 
REMARK    5  A    between atoms: C_11  and  C_12 
ROOT
HETATM    1  C   UNK N   1      24.833  27.199  -5.583  0.00  0.00     0.084 C 
HETATM    2  C   UNK N   1      25.779  27.415  -4.429  0.00  0.00     0.158 C 
HETATM    3  C   UNK N   1      27.245  27.190  -4.664  0.00  0.00     0.230 C 
HETATM    4  C   UNK N   1      27.530  25.748  -5.238  0.00  0.00     0.154 C 
HETATM    5  C   UNK N   1      26.290  25.213  -6.074  0.00  0.00     0.091 C 
HETATM    6  C   UNK N   1      25.520  26.386  -6.704  0.00  0.00     0.048 C 
HETATM    7  O   UNK N   1      25.381  24.531  -5.257  0.00  0.00    -0.387 OA
HETATM    8  C   UNK N   1      26.723  24.240  -7.160  0.00  0.00     0.049 C 
HETATM    9  O   UNK N   1      25.359  27.796  -3.346  0.00  0.00    -0.295 OA
HETATM   10  H   UNK N   1      24.789  24.094  -4.626  0.00  0.00     0.210 HD
ENDROOT
BRANCH   4  11
HETATM   11  C   UNK N   1      27.936  24.728  -4.116  0.00  0.00     0.121 A 
HETATM   12  C   UNK N   1      29.090  23.768  -4.298  0.00  0.00     0.163 A 
HETATM   13  O   UNK N   1      29.229  25.015  -3.657  0.00  0.00    -0.366 OA
HETATM   14  C   UNK N   1      27.028  24.548  -2.904  0.00  0.00     0.052 C 
BRANCH  12  15
HETATM   15  C   UNK N   1      29.274  22.642  -3.263  0.00  0.00     0.062 C 
BRANCH  15  16
HETATM   16  C   UNK N   1      30.706  22.432  -2.828  0.00  0.00    -0.022 C 
HETATM   17  C   UNK N   1      31.508  21.472  -3.306  0.00  0.00    -0.091 C 
HETATM   18  C   UNK N   1      32.914  21.395  -2.817  0.00  0.00     0.042 C 
HETATM   19  C   UNK N   1      31.035  20.475  -4.314  0.00  0.00     0.042 C 
ENDBRANCH  15  16
ENDBRANCH  12  15
ENDBRANCH   4  11
BRANCH   4  20
HETATM   20  O   UNK N   1      28.619  25.907  -6.108  0.00  0.00    -0.380 OA
HETATM   21  H   UNK N   1      29.240  25.616  -6.796  0.00  0.00     0.211 HD
ENDBRANCH   4  20
BRANCH   3  22
HETATM   22  O   UNK N   1      28.002  27.501  -3.510  0.00  0.00    -0.380 OA
HETATM   23  C   UNK N   1      28.833  28.598  -3.790  0.00  0.00     0.202 C 
ENDBRANCH   3  22
TORSDOF 5
ENDMDL
MODEL 3
REMARK VINA RESULT:      -5.7     14.558     16.488
REMARK  5 active torsions:
REMARK  status: ('A' for Active; 'I' for Inactive)
REMARK    1  A    between atoms: C_3  and  O_18 
REMARK    2  A    between atoms: C_9  and  C_4 
REMARK    3  A    between atoms: C_4  and  O_21 
REMARK    4  A    between atoms: C_10  and  C_11 
REMARK    5  A    between atoms: C_11  and  C_12 
ROOT
HETATM    1  C   UNK N   1      19.813  18.765   2.469  0.00  0.00     0.084 C 
HETATM    2  C   UNK N   1      20.804  19.107   3.552  0.00  0.00     0.158 C 
HETATM    3  C   UNK N   1      21.931  18.147   3.806  0.00  0.00     0.230 C 
HETATM    4  C   UNK N   1      21.404  16.690   4.100  0.00  0.00     0.154 C 
HETATM    5  C   UNK N   1      20.016  16.430   3.372  0.00  0.00     0.091 C 
HETATM    6  C   UNK N   1      19.917  17.270   2.088  0.00  0.00     0.048 C 
HETATM    7  O   UNK N   1      18.938  16.809   4.181  0.00  0.00    -0.387 OA
HETATM    8  C   UNK N   1      19.822  14.959   3.040  0.00  0.00     0.049 C 
HETATM    9  O   UNK N   1      20.706  20.153   4.176  0.00  0.00    -0.295 OA
HETATM   10  H   UNK N   1      18.245  17.113   4.787  0.00  0.00     0.210 HD
ENDROOT
BRANCH   4  11
HETATM   11  C   UNK N   1      21.299  16.390   5.638  0.00  0.00     0.121 A 
HETATM   12  C   UNK N   1      21.321  14.977   6.173  0.00  0.00     0.163 A 
HETATM   13  O   UNK N   1      22.477  15.776   6.084  0.00  0.00    -0.366 OA
HETATM   14  C   UNK N   1      20.958  17.524   6.599  0.00  0.00     0.052 C 
BRANCH  12  15
HETATM   15  C   UNK N   1      20.972  14.751   7.656  0.00  0.00     0.062 C 
BRANCH  15  16
HETATM   16  C   UNK N   1      22.068  14.082   8.453  0.00  0.00    -0.022 C 
HETATM   17  C   UNK N   1      21.874  13.433   9.608  0.00  0.00    -0.091 C 
HETATM   18  C   UNK N   1      23.039  12.786  10.277  0.00  0.00     0.042 C 
HETATM   19  C   UNK N   1      20.527  13.339  10.246  0.00  0.00     0.042 C 
ENDBRANCH  15  16
ENDBRANCH  12  15
ENDBRANCH   4  11
BRANCH   4  20
HETATM   20  O   UNK N   1      22.365  15.832   3.545  0.00  0.00    -0.380 OA
HETATM   21  H   UNK N   1      23.243  15.421   3.489  0.00  0.00     0.211 HD
ENDBRANCH   4  20
BRANCH   3  22
HETATM   22  O   UNK N   1      22.810  18.643   4.799  0.00  0.00    -0.380 OA
HETATM   23  C   UNK N   1      24.071  18.867   4.222  0.00  0.00     0.202 C 
ENDBRANCH   3  22
TORSDOF 5
ENDMDL
MODEL 4
REMARK VINA RESULT:      -5.5      2.055      3.986
REMARK  5 active torsions:
REMARK  status: ('A' for Active; 'I' for Inactive)
REMARK    1  A    between atoms: C_3  and  O_18 
REMARK    2  A    between atoms: C_9  and  C_4 
REMARK    3  A    between atoms: C_4  and  O_21 
REMARK    4  A    between atoms: C_10  and  C_11 
REMARK    5  A    between atoms: C_11  and  C_12 
ROOT
HETATM    1  C   UNK N   1      36.664   9.287  11.338  0.00  0.00     0.084 C 
HETATM    2  C   UNK N   1      35.557  10.307  11.253  0.00  0.00     0.158 C 
HETATM    3  C   UNK N   1      35.865  11.719  11.660  0.00  0.00     0.230 C 
HETATM    4  C   UNK N   1      36.455  11.793  13.121  0.00  0.00     0.154 C 
HETATM    5  C   UNK N   1      37.232  10.456  13.487  0.00  0.00     0.091 C 
HETATM    6  C   UNK N   1      37.820   9.811  12.222  0.00  0.00     0.048 C 
HETATM    7  O   UNK N   1      36.373   9.508  14.056  0.00  0.00    -0.387 OA
HETATM    8  C   UNK N   1      38.340  10.709  14.498  0.00  0.00     0.049 C 
HETATM    9  O   UNK N   1      34.454   9.992  10.833  0.00  0.00    -0.295 OA
HETATM   10  H   UNK N   1      35.715   8.896  14.421  0.00  0.00     0.210 HD
ENDROOT
BRANCH   4  11
HETATM   11  C   UNK N   1      35.357  12.120  14.194  0.00  0.00     0.121 A 
HETATM   12  C   UNK N   1      35.653  13.000  15.386  0.00  0.00     0.163 A 
HETATM   13  O   UNK N   1      35.088  13.495  14.195  0.00  0.00    -0.366 OA
HETATM   14  C   UNK N   1      34.028  11.372  14.157  0.00  0.00     0.052 C 
BRANCH  12  15
HETATM   15  C   UNK N   1      34.607  13.078  16.515  0.00  0.00     0.062 C 
BRANCH  15  16
HETATM   16  C   UNK N   1      35.157  12.764  17.887  0.00  0.00    -0.022 C 
HETATM   17  C   UNK N   1      35.328  11.525  18.368  0.00  0.00    -0.091 C 
HETATM   18  C   UNK N   1      35.913  11.354  19.728  0.00  0.00     0.042 C 
HETATM   19  C   UNK N   1      34.949  10.313  17.583  0.00  0.00     0.042 C 
ENDBRANCH  15  16
ENDBRANCH  12  15
ENDBRANCH   4  11
BRANCH   4  20
HETATM   20  O   UNK N   1      37.378  12.849  13.093  0.00  0.00    -0.380 OA
HETATM   21  H   UNK N   1      38.205  13.295  13.334  0.00  0.00     0.211 HD
ENDBRANCH   4  20
BRANCH   3  22
HETATM   22  O   UNK N   1      34.748  12.565  11.457  0.00  0.00    -0.380 OA
HETATM   23  C   UNK N   1      35.079  13.537  10.500  0.00  0.00     0.202 C 
ENDBRANCH   3  22
TORSDOF 5
ENDMDL
MODEL 5
REMARK VINA RESULT:      -5.5     19.125     22.079
REMARK  5 active torsions:
REMARK  status: ('A' for Active; 'I' for Inactive)
REMARK    1  A    between atoms: C_3  and  O_18 
REMARK    2  A    between atoms: C_9  and  C_4 
REMARK    3  A    between atoms: C_4  and  O_21 
REMARK    4  A    between atoms: C_10  and  C_11 
REMARK    5  A    between atoms: C_11  and  C_12 
ROOT
HETATM    1  C   UNK N   1      25.187  26.938  -6.720  0.00  0.00     0.084 C 
HETATM    2  C   UNK N   1      25.923  25.681  -7.109  0.00  0.00     0.158 C 
HETATM    3  C   UNK N   1      26.032  24.582  -6.090  0.00  0.00     0.230 C 
HETATM    4  C   UNK N   1      26.667  25.096  -4.741  0.00  0.00     0.154 C 
HETATM    5  C   UNK N   1      26.357  26.638  -4.517  0.00  0.00     0.091 C 
HETATM    6  C   UNK N   1      25.025  27.021  -5.184  0.00  0.00     0.048 C 
HETATM    7  O   UNK N   1      27.341  27.445  -5.100  0.00  0.00    -0.387 OA
HETATM    8  C   UNK N   1      26.313  26.994  -3.040  0.00  0.00     0.049 C 
HETATM    9  O   UNK N   1      26.384  25.554  -8.233  0.00  0.00    -0.295 OA
HETATM   10  H   UNK N   1      28.048  27.937  -5.546  0.00  0.00     0.210 HD
ENDROOT
BRANCH   4  11
HETATM   11  C   UNK N   1      28.209  24.813  -4.660  0.00  0.00     0.121 A 
HETATM   12  C   UNK N   1      28.897  24.547  -3.341  0.00  0.00     0.163 A 
HETATM   13  O   UNK N   1      28.430  23.515  -4.178  0.00  0.00    -0.366 OA
HETATM   14  C   UNK N   1      29.073  25.015  -5.900  0.00  0.00     0.052 C 
BRANCH  12  15
HETATM   15  C   UNK N   1      30.437  24.520  -3.313  0.00  0.00     0.062 C 
BRANCH  15  16
HETATM   16  C   UNK N   1      31.024  23.178  -2.937  0.00  0.00    -0.022 C 
HETATM   17  C   UNK N   1      31.960  22.537  -3.649  0.00  0.00    -0.091 C 
HETATM   18  C   UNK N   1      32.479  21.233  -3.148  0.00  0.00     0.042 C 
HETATM   19  C   UNK N   1      32.497  23.089  -4.928  0.00  0.00     0.042 C 
ENDBRANCH  15  16
ENDBRANCH  12  15
ENDBRANCH   4  11
BRANCH   4  20
HETATM   20  O   UNK N   1      26.027  24.362  -3.730  0.00  0.00    -0.380 OA
HETATM   21  H   UNK N   1      25.492  24.262  -2.927  0.00  0.00     0.211 HD
ENDBRANCH   4  20
BRANCH   3  22
HETATM   22  O   UNK N   1      26.686  23.448  -6.629  0.00  0.00    -0.380 OA
HETATM   23  C   UNK N   1      25.737  22.438  -6.854  0.00  0.00     0.202 C 
ENDBRANCH   3  22
TORSDOF 5
ENDMDL
MODEL 6
REMARK VINA RESULT:      -5.4      5.325      8.503
REMARK  5 active torsions:
REMARK  status: ('A' for Active; 'I' for Inactive)
REMARK    1  A    between atoms: C_3  and  O_18 
REMARK    2  A    between atoms: C_9  and  C_4 
REMARK    3  A    between atoms: C_4  and  O_21 
REMARK    4  A    between atoms: C_10  and  C_11 
REMARK    5  A    between atoms: C_11  and  C_12 
ROOT
HETATM    1  C   UNK N   1      34.048  14.824   9.699  0.00  0.00     0.084 C 
HETATM    2  C   UNK N   1      33.254  14.248   8.554  0.00  0.00     0.158 C 
HETATM    3  C   UNK N   1      33.599  14.691   7.161  0.00  0.00     0.230 C 
HETATM    4  C   UNK N   1      33.552  16.261   7.018  0.00  0.00     0.154 C 
HETATM    5  C   UNK N   1      33.882  16.969   8.401  0.00  0.00     0.091 C 
HETATM    6  C   UNK N   1      34.817  16.088   9.247  0.00  0.00     0.048 C 
HETATM    7  O   UNK N   1      32.723  17.165   9.162  0.00  0.00    -0.387 OA
HETATM    8  C   UNK N   1      34.512  18.337   8.197  0.00  0.00     0.049 C 
HETATM    9  O   UNK N   1      32.380  13.420   8.760  0.00  0.00    -0.295 OA
HETATM   10  H   UNK N   1      31.883  17.247   9.639  0.00  0.00     0.210 HD
ENDROOT
BRANCH   4  11
HETATM   11  C   UNK N   1      32.184  16.768   6.437  0.00  0.00     0.121 A 
HETATM   12  C   UNK N   1      30.871  16.456   7.116  0.00  0.00     0.163 A 
HETATM   13  O   UNK N   1      31.581  17.651   7.344  0.00  0.00    -0.366 OA
HETATM   14  C   UNK N   1      32.151  17.408   5.053  0.00  0.00     0.052 C 
BRANCH  12  15
HETATM   15  C   UNK N   1      29.565  16.776   6.365  0.00  0.00     0.062 C 
BRANCH  15  16
HETATM   16  C   UNK N   1      28.831  17.987   6.893  0.00  0.00    -0.022 C 
HETATM   17  C   UNK N   1      28.207  18.889   6.123  0.00  0.00    -0.091 C 
HETATM   18  C   UNK N   1      27.489  20.021   6.774  0.00  0.00     0.042 C 
HETATM   19  C   UNK N   1      28.211  18.793   4.632  0.00  0.00     0.042 C 
ENDBRANCH  15  16
ENDBRANCH  12  15
ENDBRANCH   4  11
BRANCH   4  20
HETATM   20  O   UNK N   1      34.567  16.578   6.103  0.00  0.00    -0.380 OA
HETATM   21  H   UNK N   1      34.915  16.942   5.272  0.00  0.00     0.211 HD
ENDBRANCH   4  20
BRANCH   3  22
HETATM   22  O   UNK N   1      32.816  14.010   6.199  0.00  0.00    -0.380 OA
HETATM   23  C   UNK N   1      33.659  13.230   5.392  0.00  0.00     0.202 C 
ENDBRANCH   3  22
TORSDOF 5
ENDMDL
MODEL 7
REMARK VINA RESULT:      -5.4      8.801     11.067
REMARK  5 active torsions:
REMARK  status: ('A' for Active; 'I' for Inactive)
REMARK    1  A    between atoms: C_3  and  O_18 
REMARK    2  A    between atoms: C_9  and  C_4 
REMARK    3  A    between atoms: C_4  and  O_21 
REMARK    4  A    between atoms: C_10  and  C_11 
REMARK    5  A    between atoms: C_11  and  C_12 
ROOT
HETATM    1  C   UNK N   1      25.506  18.977   3.373  0.00  0.00     0.084 C 
HETATM    2  C   UNK N   1      25.900  17.547   3.637  0.00  0.00     0.158 C 
HETATM    3  C   UNK N   1      26.232  17.154   5.048  0.00  0.00     0.230 C 
HETATM    4  C   UNK N   1      27.361  18.069   5.661  0.00  0.00     0.154 C 
HETATM    5  C   UNK N   1      27.336  19.517   5.007  0.00  0.00     0.091 C 
HETATM    6  C   UNK N   1      25.910  19.882   4.561  0.00  0.00     0.048 C 
HETATM    7  O   UNK N   1      28.138  19.572   3.861  0.00  0.00    -0.387 OA
HETATM    8  C   UNK N   1      27.861  20.575   5.964  0.00  0.00     0.049 C 
HETATM    9  O   UNK N   1      25.915  16.730   2.729  0.00  0.00    -0.295 OA
HETATM   10  H   UNK N   1      28.694  19.527   3.067  0.00  0.00     0.210 HD
ENDROOT
BRANCH   4  11
HETATM   11  C   UNK N   1      28.787  17.422   5.543  0.00  0.00     0.121 A 
HETATM   12  C   UNK N   1      29.790  17.505   6.670  0.00  0.00     0.163 A 
HETATM   13  O   UNK N   1      28.927  16.405   6.497  0.00  0.00    -0.366 OA
HETATM   14  C   UNK N   1      29.253  16.881   4.196  0.00  0.00     0.052 C 
BRANCH  12  15
HETATM   15  C   UNK N   1      31.239  17.062   6.393  0.00  0.00     0.062 C 
BRANCH  15  16
HETATM   16  C   UNK N   1      32.257  17.658   7.338  0.00  0.00    -0.022 C 
HETATM   17  C   UNK N   1      33.583  17.590   7.161  0.00  0.00    -0.091 C 
HETATM   18  C   UNK N   1      34.478  18.251   8.153  0.00  0.00     0.042 C 
HETATM   19  C   UNK N   1      34.190  16.871   6.001  0.00  0.00     0.042 C 
ENDBRANCH  15  16
ENDBRANCH  12  15
ENDBRANCH   4  11
BRANCH   4  20
HETATM   20  O   UNK N   1      27.039  18.190   7.021  0.00  0.00    -0.380 OA
HETATM   21  H   UNK N   1      26.518  18.518   7.771  0.00  0.00     0.211 HD
ENDBRANCH   4  20
BRANCH   3  22
HETATM   22  O   UNK N   1      26.513  15.770   5.141  0.00  0.00    -0.380 OA
HETATM   23  C   UNK N   1      25.572  15.169   5.994  0.00  0.00     0.202 C 
ENDBRANCH   3  22
TORSDOF 5
ENDMDL
MODEL 8
REMARK VINA RESULT:      -5.4     10.830     13.740
REMARK  5 active torsions:
REMARK  status: ('A' for Active; 'I' for Inactive)
REMARK    1  A    between atoms: C_3  and  O_18 
REMARK    2  A    between atoms: C_9  and  C_4 
REMARK    3  A    between atoms: C_4  and  O_21 
REMARK    4  A    between atoms: C_10  and  C_11 
REMARK    5  A    between atoms: C_11  and  C_12 
ROOT
HETATM    1  C   UNK N   1      27.437  20.578   6.878  0.00  0.00     0.084 C 
HETATM    2  C   UNK N   1      27.962  19.172   7.015  0.00  0.00     0.158 C 
HETATM    3  C   UNK N   1      28.479  18.487   5.781  0.00  0.00     0.230 C 
HETATM    4  C   UNK N   1      27.405  18.475   4.626  0.00  0.00     0.154 C 
HETATM    5  C   UNK N   1      26.431  19.725   4.741  0.00  0.00     0.091 C 
HETATM    6  C   UNK N   1      27.156  20.913   5.395  0.00  0.00     0.048 C 
HETATM    7  O   UNK N   1      25.326  19.437   5.551  0.00  0.00    -0.387 OA
HETATM    8  C   UNK N   1      25.886  20.140   3.384  0.00  0.00     0.049 C 
HETATM    9  O   UNK N   1      27.993  18.624   8.106  0.00  0.00    -0.295 OA
HETATM   10  H   UNK N   1      24.603  19.172   6.139  0.00  0.00     0.210 HD
ENDROOT
BRANCH   4  11
HETATM   11  C   UNK N   1      26.594  17.132   4.576  0.00  0.00     0.121 A 
HETATM   12  C   UNK N   1      25.920  16.659   3.309  0.00  0.00     0.163 A 
HETATM   13  O   UNK N   1      27.209  16.238   3.689  0.00  0.00    -0.366 OA
HETATM   14  C   UNK N   1      26.298  16.388   5.875  0.00  0.00     0.052 C 
BRANCH  12  15
HETATM   15  C   UNK N   1      24.948  15.467   3.399  0.00  0.00     0.062 C 
BRANCH  15  16
HETATM   16  C   UNK N   1      24.825  14.675   2.118  0.00  0.00    -0.022 C 
HETATM   17  C   UNK N   1      23.666  14.416   1.497  0.00  0.00    -0.091 C 
HETATM   18  C   UNK N   1      23.688  13.651   0.218  0.00  0.00     0.042 C 
HETATM   19  C   UNK N   1      22.355  14.872   2.048  0.00  0.00     0.042 C 
ENDBRANCH  15  16
ENDBRANCH  12  15
ENDBRANCH   4  11
BRANCH   4  20
HETATM   20  O   UNK N   1      28.141  18.593   3.438  0.00  0.00    -0.380 OA
HETATM   21  H   UNK N   1      28.815  18.318   2.795  0.00  0.00     0.211 HD
ENDBRANCH   4  20
BRANCH   3  22
HETATM   22  O   UNK N   1      28.997  17.206   6.086  0.00  0.00    -0.380 OA
HETATM   23  C   UNK N   1      30.370  17.188   5.791  0.00  0.00     0.202 C 
ENDBRANCH   3  22
TORSDOF 5
ENDMDL
MODEL 9
REMARK VINA RESULT:      -5.4      2.073      5.972
REMARK  5 active torsions:
REMARK  status: ('A' for Active; 'I' for Inactive)
REMARK    1  A    between atoms: C_3  and  O_18 
REMARK    2  A    between atoms: C_9  and  C_4 
REMARK    3  A    between atoms: C_4  and  O_21 
REMARK    4  A    between atoms: C_10  and  C_11 
REMARK    5  A    between atoms: C_11  and  C_12 
ROOT
HETATM    1  C   UNK N   1      37.969  11.371  13.927  0.00  0.00     0.084 C 
HETATM    2  C   UNK N   1      37.001  12.409  14.433  0.00  0.00     0.158 C 
HETATM    3  C   UNK N   1      35.610  12.415  13.867  0.00  0.00     0.230 C 
HETATM    4  C   UNK N   1      35.620  12.515  12.293  0.00  0.00     0.154 C 
HETATM    5  C   UNK N   1      36.941  11.870  11.690  0.00  0.00     0.091 C 
HETATM    6  C   UNK N   1      37.458  10.748  12.606  0.00  0.00     0.048 C 
HETATM    7  O   UNK N   1      37.971  12.814  11.595  0.00  0.00    -0.387 OA
HETATM    8  C   UNK N   1      36.712  11.325  10.290  0.00  0.00     0.049 C 
HETATM    9  O   UNK N   1      37.337  13.198  15.304  0.00  0.00    -0.295 OA
HETATM   10  H   UNK N   1      38.639  13.516  11.580  0.00  0.00     0.210 HD
ENDROOT
BRANCH   4  11
HETATM   11  C   UNK N   1      35.429  13.988  11.785  0.00  0.00     0.121 A 
HETATM   12  C   UNK N   1      34.813  14.289  10.438  0.00  0.00     0.163 A 
HETATM   13  O   UNK N   1      34.064  14.265  11.631  0.00  0.00    -0.366 OA
HETATM   14  C   UNK N   1      36.065  15.136  12.564  0.00  0.00     0.052 C 
BRANCH  12  15
HETATM   15  C   UNK N   1      34.881  15.734   9.910  0.00  0.00     0.062 C 
BRANCH  15  16
HETATM   16  C   UNK N   1      33.575  16.246   9.346  0.00  0.00    -0.022 C 
HETATM   17  C   UNK N   1      33.455  17.357   8.607  0.00  0.00    -0.091 C 
HETATM   18  C   UNK N   1      32.112  17.733   8.082  0.00  0.00     0.042 C 
HETATM   19  C   UNK N   1      34.626  18.230   8.295  0.00  0.00     0.042 C 
ENDBRANCH  15  16
ENDBRANCH  12  15
ENDBRANCH   4  11
BRANCH   4  20
HETATM   20  O   UNK N   1      34.520  11.754  11.869  0.00  0.00    -0.380 OA
HETATM   21  H   UNK N   1      33.899  11.406  11.209  0.00  0.00     0.211 HD
ENDBRANCH   4  20
BRANCH   3  22
HETATM   22  O   UNK N   1      34.808  13.399  14.492  0.00  0.00    -0.380 OA
HETATM   23  C   UNK N   1      34.280  12.870  15.681  0.00  0.00     0.202 C 
ENDBRANCH   3  22
TORSDOF 5
ENDMDL
