REMARK  3 active torsions:
REMARK  status: ('A' for Active; 'I' for Inactive)
REMARK    1  A    between atoms: O_3  and  C_7 
REMARK    2  A    between atoms: C_4  and  C_13 
REMARK    3  A    between atoms: O_12  and  C_16 
ROOT
HETATM    1 Cl   UNK N   1       2.720  -3.684   0.000  0.00  0.00    -0.081 Cl
HETATM    2 Cl   UNK N   1      -2.781  -3.593   0.000  0.00  0.00    -0.081 Cl
HETATM    3  C   UNK N   1       0.016  -0.691  -0.000  0.00  0.00    -0.022 A 
HETATM    4  C   UNK N   1       1.215  -1.417  -0.000  0.00  0.00     0.039 A 
HETATM    5  C   UNK N   1       1.198  -2.813   0.000  0.00  0.00     0.069 A 
HETATM    6  C   UNK N   1      -0.027  -3.498   0.000  0.00  0.00     0.109 A 
HETATM    7  C   UNK N   1      -1.229  -2.775   0.000  0.00  0.00     0.069 A 
HETATM    8  C   UNK N   1      -1.203  -1.382  -0.000  0.00  0.00     0.039 A 
ENDROOT
BRANCH   3   9
HETATM    9  C   UNK N   1       0.031   0.784  -0.000  0.00  0.00    -0.022 A 
HETATM   10  C   UNK N   1      -1.174   1.499  -0.000  0.00  0.00     0.039 A 
HETATM   11  C   UNK N   1      -1.173   2.892  -0.000  0.00  0.00     0.069 A 
HETATM   12 Cl   UNK N   1      -2.707   3.743   0.000  0.00  0.00    -0.081 Cl
HETATM   13  C   UNK N   1       0.044   3.590  -0.000  0.00  0.00     0.109 A 
HETATM   14  C   UNK N   1       1.255   2.881  -0.000  0.00  0.00     0.069 A 
HETATM   15 Cl   UNK N   1       2.795   3.720  -0.000  0.00  0.00    -0.081 Cl
HETATM   16  C   UNK N   1       1.244   1.485  -0.000  0.00  0.00     0.039 A 
BRANCH  13  17
HETATM   17  O   UNK N   1       0.049   4.935   0.000  0.00  0.00    -0.357 OA
HETATM   18  H   UNK N   1       0.863   5.400   0.000  0.00  0.00     0.217 HD
ENDBRANCH  13  17
ENDBRANCH   3   9
BRANCH   6  19
HETATM   19  O   UNK N   1      -0.049  -4.842   0.000  0.00  0.00    -0.357 OA
HETATM   20  H   UNK N   1      -0.868  -5.298   0.000  0.00  0.00     0.217 HD
ENDBRANCH   6  19
TORSDOF 3
