MODEL 1
REMARK VINA RESULT:      -5.9      0.000      0.000
REMARK  3 active torsions:
REMARK  status: ('A' for Active; 'I' for Inactive)
REMARK    1  A    between atoms: O_3  and  C_7 
REMARK    2  A    between atoms: C_4  and  C_13 
REMARK    3  A    between atoms: O_12  and  C_16 
ROOT
HETATM    1 Cl   UNK N   1      26.236  19.700   3.826  0.00  0.00    -0.081 Cl
HETATM    2 Cl   UNK N   1      21.096  20.692   2.134  0.00  0.00    -0.081 Cl
HETATM    3  C   UNK N   1      22.636  18.305   4.993  0.00  0.00    -0.022 A 
HETATM    4  C   UNK N   1      24.014  18.540   4.883  0.00  0.00     0.039 A 
HETATM    5  C   UNK N   1      24.506  19.435   3.931  0.00  0.00     0.069 A 
HETATM    6  C   UNK N   1      23.618  20.106   3.076  0.00  0.00     0.109 A 
HETATM    7  C   UNK N   1      22.239  19.873   3.183  0.00  0.00     0.069 A 
HETATM    8  C   UNK N   1      21.756  18.979   4.136  0.00  0.00     0.039 A 
ENDROOT
BRANCH   3   9
HETATM    9  C   UNK N   1      22.113  17.360   5.997  0.00  0.00    -0.022 A 
HETATM   10  C   UNK N   1      21.020  17.718   6.797  0.00  0.00     0.039 A 
HETATM   11  C   UNK N   1      20.517  16.834   7.749  0.00  0.00     0.069 A 
HETATM   12 Cl   UNK N   1      19.146  17.328   8.726  0.00  0.00    -0.081 Cl
HETATM   13  C   UNK N   1      21.108  15.572   7.913  0.00  0.00     0.109 A 
HETATM   14  C   UNK N   1      22.203  15.206   7.116  0.00  0.00     0.069 A 
HETATM   15 Cl   UNK N   1      22.967  13.638   7.293  0.00  0.00    -0.081 Cl
HETATM   16  C   UNK N   1      22.700  16.099   6.164  0.00  0.00     0.039 A 
BRANCH  13  17
HETATM   17  O   UNK N   1      20.625  14.716   8.831  0.00  0.00    -0.357 OA
HETATM   18  H   UNK N   1      21.111  13.946   9.054  0.00  0.00     0.217 HD
ENDBRANCH  13  17
ENDBRANCH   3   9
BRANCH   6  19
HETATM   19  O   UNK N   1      24.087  20.969   2.158  0.00  0.00    -0.357 OA
HETATM   20  H   UNK N   1      24.337  21.835   2.413  0.00  0.00     0.217 HD
ENDBRANCH   6  19
TORSDOF 3
ENDMDL
MODEL 2
REMARK VINA RESULT:      -5.9      0.090      2.161
REMARK  3 active torsions:
REMARK  status: ('A' for Active; 'I' for Inactive)
REMARK    1  A    between atoms: O_3  and  C_7 
REMARK    2  A    between atoms: C_4  and  C_13 
REMARK    3  A    between atoms: O_12  and  C_16 
ROOT
HETATM    1 Cl   UNK N   1      21.166  20.613   1.994  0.00  0.00    -0.081 Cl
HETATM    2 Cl   UNK N   1      26.269  19.807   3.887  0.00  0.00    -0.081 Cl
HETATM    3  C   UNK N   1      22.676  18.321   4.949  0.00  0.00    -0.022 A 
HETATM    4  C   UNK N   1      21.803  18.951   4.052  0.00  0.00     0.039 A 
HETATM    5  C   UNK N   1      22.291  19.846   3.098  0.00  0.00     0.069 A 
HETATM    6  C   UNK N   1      23.667  20.120   3.036  0.00  0.00     0.109 A 
HETATM    7  C   UNK N   1      24.543  19.492   3.932  0.00  0.00     0.069 A 
HETATM    8  C   UNK N   1      24.047  18.600   4.880  0.00  0.00     0.039 A 
ENDROOT
BRANCH   3   9
HETATM    9  C   UNK N   1      22.163  17.375   5.958  0.00  0.00    -0.022 A 
HETATM   10  C   UNK N   1      21.058  17.720   6.748  0.00  0.00     0.039 A 
HETATM   11  C   UNK N   1      20.564  16.835   7.703  0.00  0.00     0.069 A 
HETATM   12 Cl   UNK N   1      19.179  17.313   8.668  0.00  0.00    -0.081 Cl
HETATM   13  C   UNK N   1      21.175  15.584   7.879  0.00  0.00     0.109 A 
HETATM   14  C   UNK N   1      22.281  15.231   7.092  0.00  0.00     0.069 A 
HETATM   15 Cl   UNK N   1      23.070  13.677   7.285  0.00  0.00    -0.081 Cl
HETATM   16  C   UNK N   1      22.769  16.125   6.137  0.00  0.00     0.039 A 
BRANCH  13  17
HETATM   17  O   UNK N   1      20.701  14.727   8.801  0.00  0.00    -0.357 OA
HETATM   18  H   UNK N   1      21.004  14.777   9.687  0.00  0.00     0.217 HD
ENDBRANCH  13  17
ENDBRANCH   3   9
BRANCH   6  19
HETATM   19  O   UNK N   1      24.142  20.982   2.120  0.00  0.00    -0.357 OA
HETATM   20  H   UNK N   1      25.042  21.245   2.145  0.00  0.00     0.217 HD
ENDBRANCH   6  19
TORSDOF 3
ENDMDL
MODEL 3
REMARK VINA RESULT:      -5.9      0.065      3.056
REMARK  3 active torsions:
REMARK  status: ('A' for Active; 'I' for Inactive)
REMARK    1  A    between atoms: O_3  and  C_7 
REMARK    2  A    between atoms: C_4  and  C_13 
REMARK    3  A    between atoms: O_12  and  C_16 
ROOT
HETATM    1 Cl   UNK N   1      21.203  20.723   2.092  0.00  0.00    -0.081 Cl
HETATM    2 Cl   UNK N   1      26.303  19.662   3.861  0.00  0.00    -0.081 Cl
HETATM    3  C   UNK N   1      22.672  18.313   4.973  0.00  0.00    -0.022 A 
HETATM    4  C   UNK N   1      21.809  18.996   4.106  0.00  0.00     0.039 A 
HETATM    5  C   UNK N   1      22.316  19.888   3.158  0.00  0.00     0.069 A 
HETATM    6  C   UNK N   1      23.700  20.103   3.071  0.00  0.00     0.109 A 
HETATM    7  C   UNK N   1      24.567  19.421   3.937  0.00  0.00     0.069 A 
HETATM    8  C   UNK N   1      24.052  18.533   4.880  0.00  0.00     0.039 A 
ENDROOT
BRANCH   3   9
HETATM    9  C   UNK N   1      22.138  17.371   5.975  0.00  0.00    -0.022 A 
HETATM   10  C   UNK N   1      22.722  16.107   6.132  0.00  0.00     0.039 A 
HETATM   11  C   UNK N   1      22.228  15.208   7.075  0.00  0.00     0.069 A 
HETATM   12 Cl   UNK N   1      22.992  13.637   7.234  0.00  0.00    -0.081 Cl
HETATM   13  C   UNK N   1      21.135  15.568   7.877  0.00  0.00     0.109 A 
HETATM   14  C   UNK N   1      20.545  16.832   7.726  0.00  0.00     0.069 A 
HETATM   15 Cl   UNK N   1      19.177  17.316   8.711  0.00  0.00    -0.081 Cl
HETATM   16  C   UNK N   1      21.047  17.726   6.778  0.00  0.00     0.039 A 
BRANCH  13  17
HETATM   17  O   UNK N   1      20.655  14.703   8.788  0.00  0.00    -0.357 OA
HETATM   18  H   UNK N   1      19.856  14.895   9.240  0.00  0.00     0.217 HD
ENDBRANCH  13  17
ENDBRANCH   3   9
BRANCH   6  19
HETATM   19  O   UNK N   1      24.194  20.960   2.161  0.00  0.00    -0.357 OA
HETATM   20  H   UNK N   1      24.667  20.636   1.419  0.00  0.00     0.217 HD
ENDBRANCH   6  19
TORSDOF 3
ENDMDL
MODEL 4
REMARK VINA RESULT:      -5.9      0.071      2.162
REMARK  3 active torsions:
REMARK  status: ('A' for Active; 'I' for Inactive)
REMARK    1  A    between atoms: O_3  and  C_7 
REMARK    2  A    between atoms: C_4  and  C_13 
REMARK    3  A    between atoms: O_12  and  C_16 
ROOT
HETATM    1 Cl   UNK N   1      26.290  19.758   3.929  0.00  0.00    -0.081 Cl
HETATM    2 Cl   UNK N   1      21.192  20.626   2.051  0.00  0.00    -0.081 Cl
HETATM    3  C   UNK N   1      22.680  18.305   4.990  0.00  0.00    -0.022 A 
HETATM    4  C   UNK N   1      24.055  18.566   4.924  0.00  0.00     0.039 A 
HETATM    5  C   UNK N   1      24.562  19.459   3.978  0.00  0.00     0.069 A 
HETATM    6  C   UNK N   1      23.691  20.102   3.085  0.00  0.00     0.109 A 
HETATM    7  C   UNK N   1      22.314  19.843   3.148  0.00  0.00     0.069 A 
HETATM    8  C   UNK N   1      21.816  18.950   4.095  0.00  0.00     0.039 A 
ENDROOT
BRANCH   3   9
HETATM    9  C   UNK N   1      22.142  17.362   5.989  0.00  0.00    -0.022 A 
HETATM   10  C   UNK N   1      22.724  16.097   6.147  0.00  0.00     0.039 A 
HETATM   11  C   UNK N   1      22.225  15.198   7.086  0.00  0.00     0.069 A 
HETATM   12 Cl   UNK N   1      22.987  13.626   7.247  0.00  0.00    -0.081 Cl
HETATM   13  C   UNK N   1      21.128  15.557   7.884  0.00  0.00     0.109 A 
HETATM   14  C   UNK N   1      20.540  16.822   7.732  0.00  0.00     0.069 A 
HETATM   15 Cl   UNK N   1      19.168  17.306   8.711  0.00  0.00    -0.081 Cl
HETATM   16  C   UNK N   1      21.047  17.717   6.788  0.00  0.00     0.039 A 
BRANCH  13  17
HETATM   17  O   UNK N   1      20.643  14.692   8.792  0.00  0.00    -0.357 OA
HETATM   18  H   UNK N   1      20.516  13.792   8.560  0.00  0.00     0.217 HD
ENDBRANCH  13  17
ENDBRANCH   3   9
BRANCH   6  19
HETATM   19  O   UNK N   1      24.174  20.963   2.173  0.00  0.00    -0.357 OA
HETATM   20  H   UNK N   1      23.591  21.389   1.575  0.00  0.00     0.217 HD
ENDBRANCH   6  19
TORSDOF 3
ENDMDL
MODEL 5
REMARK VINA RESULT:      -5.8      0.367      6.270
REMARK  3 active torsions:
REMARK  status: ('A' for Active; 'I' for Inactive)
REMARK    1  A    between atoms: O_3  and  C_7 
REMARK    2  A    between atoms: C_4  and  C_13 
REMARK    3  A    between atoms: O_12  and  C_16 
ROOT
HETATM    1 Cl   UNK N   1      22.136  13.469   6.972  0.00  0.00    -0.081 Cl
HETATM    2 Cl   UNK N   1      19.109  17.631   8.920  0.00  0.00    -0.081 Cl
HETATM    3  C   UNK N   1      21.847  17.367   5.974  0.00  0.00    -0.022 A 
HETATM    4  C   UNK N   1      22.219  16.016   6.018  0.00  0.00     0.039 A 
HETATM    5  C   UNK N   1      21.642  15.152   6.950  0.00  0.00     0.069 A 
HETATM    6  C   UNK N   1      20.682  15.636   7.852  0.00  0.00     0.109 A 
HETATM    7  C   UNK N   1      20.306  16.987   7.811  0.00  0.00     0.069 A 
HETATM    8  C   UNK N   1      20.887  17.842   6.877  0.00  0.00     0.039 A 
ENDROOT
BRANCH   3   9
HETATM    9  C   UNK N   1      22.455  18.282   4.989  0.00  0.00    -0.022 A 
HETATM   10  C   UNK N   1      21.642  19.013   4.114  0.00  0.00     0.039 A 
HETATM   11  C   UNK N   1      22.204  19.880   3.180  0.00  0.00     0.069 A 
HETATM   12 Cl   UNK N   1      21.145  20.774   2.105  0.00  0.00    -0.081 Cl
HETATM   13  C   UNK N   1      23.597  20.026   3.112  0.00  0.00     0.109 A 
HETATM   14  C   UNK N   1      24.419  19.298   3.986  0.00  0.00     0.069 A 
HETATM   15 Cl   UNK N   1      26.164  19.455   3.930  0.00  0.00    -0.081 Cl
HETATM   16  C   UNK N   1      23.846  18.431   4.918  0.00  0.00     0.039 A 
BRANCH  13  17
HETATM   17  O   UNK N   1      24.144  20.863   2.212  0.00  0.00    -0.357 OA
HETATM   18  H   UNK N   1      23.593  21.347   1.628  0.00  0.00     0.217 HD
ENDBRANCH  13  17
ENDBRANCH   3   9
BRANCH   6  19
HETATM   19  O   UNK N   1      20.123  14.808   8.751  0.00  0.00    -0.357 OA
HETATM   20  H   UNK N   1      19.251  14.966   9.056  0.00  0.00     0.217 HD
ENDBRANCH   6  19
TORSDOF 3
ENDMDL
MODEL 6
REMARK VINA RESULT:      -5.8      3.902      7.694
REMARK  3 active torsions:
REMARK  status: ('A' for Active; 'I' for Inactive)
REMARK    1  A    between atoms: O_3  and  C_7 
REMARK    2  A    between atoms: C_4  and  C_13 
REMARK    3  A    between atoms: O_12  and  C_16 
ROOT
HETATM    1 Cl   UNK N   1      25.146  12.523  10.360  0.00  0.00    -0.081 Cl
HETATM    2 Cl   UNK N   1      19.935  11.880  12.005  0.00  0.00    -0.081 Cl
HETATM    3  C   UNK N   1      21.610  13.742   8.848  0.00  0.00    -0.022 A 
HETATM    4  C   UNK N   1      22.979  13.514   9.045  0.00  0.00     0.039 A 
HETATM    5  C   UNK N   1      23.425  12.785  10.149  0.00  0.00     0.069 A 
HETATM    6  C   UNK N   1      22.497  12.275  11.071  0.00  0.00     0.109 A 
HETATM    7  C   UNK N   1      21.126  12.500  10.877  0.00  0.00     0.069 A 
HETATM    8  C   UNK N   1      20.691  13.229   9.772  0.00  0.00     0.039 A 
ENDROOT
BRANCH   3   9
HETATM    9  C   UNK N   1      21.137  14.512   7.682  0.00  0.00    -0.022 A 
HETATM   10  C   UNK N   1      20.388  13.881   6.680  0.00  0.00     0.039 A 
HETATM   11  C   UNK N   1      19.935  14.597   5.574  0.00  0.00     0.069 A 
HETATM   12 Cl   UNK N   1      19.001  13.763   4.346  0.00  0.00    -0.081 Cl
HETATM   13  C   UNK N   1      20.231  15.963   5.458  0.00  0.00     0.109 A 
HETATM   14  C   UNK N   1      20.981  16.602   6.458  0.00  0.00     0.069 A 
HETATM   15 Cl   UNK N   1      21.368  18.309   6.346  0.00  0.00    -0.081 Cl
HETATM   16  C   UNK N   1      21.430  15.876   7.562  0.00  0.00     0.039 A 
BRANCH  13  17
HETATM   17  O   UNK N   1      19.795  16.658   4.392  0.00  0.00    -0.357 OA
HETATM   18  H   UNK N   1      19.364  17.482   4.514  0.00  0.00     0.217 HD
ENDBRANCH  13  17
ENDBRANCH   3   9
BRANCH   6  19
HETATM   19  O   UNK N   1      22.920  11.572  12.136  0.00  0.00    -0.357 OA
HETATM   20  H   UNK N   1      23.394  12.000  12.822  0.00  0.00     0.217 HD
ENDBRANCH   6  19
TORSDOF 3
ENDMDL
MODEL 7
REMARK VINA RESULT:      -5.8      0.218      6.758
REMARK  3 active torsions:
REMARK  status: ('A' for Active; 'I' for Inactive)
REMARK    1  A    between atoms: O_3  and  C_7 
REMARK    2  A    between atoms: C_4  and  C_13 
REMARK    3  A    between atoms: O_12  and  C_16 
ROOT
HETATM    1 Cl   UNK N   1      18.905  17.051   8.671  0.00  0.00    -0.081 Cl
HETATM    2 Cl   UNK N   1      23.035  13.638   7.419  0.00  0.00    -0.081 Cl
HETATM    3  C   UNK N   1      21.956  17.269   6.042  0.00  0.00    -0.022 A 
HETATM    4  C   UNK N   1      20.812  17.559   6.797  0.00  0.00     0.039 A 
HETATM    5  C   UNK N   1      20.341  16.650   7.747  0.00  0.00     0.069 A 
HETATM    6  C   UNK N   1      21.016  15.437   7.950  0.00  0.00     0.109 A 
HETATM    7  C   UNK N   1      22.162  15.143   7.196  0.00  0.00     0.069 A 
HETATM    8  C   UNK N   1      22.625  16.055   6.250  0.00  0.00     0.039 A 
ENDROOT
BRANCH   3   9
HETATM    9  C   UNK N   1      22.456  18.227   5.038  0.00  0.00    -0.022 A 
HETATM   10  C   UNK N   1      23.834  18.427   4.883  0.00  0.00     0.039 A 
HETATM   11  C   UNK N   1      24.319  19.329   3.938  0.00  0.00     0.069 A 
HETATM   12 Cl   UNK N   1      26.052  19.547   3.781  0.00  0.00    -0.081 Cl
HETATM   13  C   UNK N   1      23.422  20.045   3.131  0.00  0.00     0.109 A 
HETATM   14  C   UNK N   1      22.040  19.850   3.280  0.00  0.00     0.069 A 
HETATM   15 Cl   UNK N   1      20.889  20.727   2.289  0.00  0.00    -0.081 Cl
HETATM   16  C   UNK N   1      21.564  18.944   4.230  0.00  0.00     0.039 A 
BRANCH  13  17
HETATM   17  O   UNK N   1      23.885  20.917   2.218  0.00  0.00    -0.357 OA
HETATM   18  H   UNK N   1      23.325  21.593   1.889  0.00  0.00     0.217 HD
ENDBRANCH  13  17
ENDBRANCH   3   9
BRANCH   6  19
HETATM   19  O   UNK N   1      20.567  14.559   8.863  0.00  0.00    -0.357 OA
HETATM   20  H   UNK N   1      20.149  13.767   8.587  0.00  0.00     0.217 HD
ENDBRANCH   6  19
TORSDOF 3
ENDMDL
MODEL 8
REMARK VINA RESULT:      -5.7     15.782     18.002
REMARK  3 active torsions:
REMARK  status: ('A' for Active; 'I' for Inactive)
REMARK    1  A    between atoms: O_3  and  C_7 
REMARK    2  A    between atoms: C_4  and  C_13 
REMARK    3  A    between atoms: O_12  and  C_16 
ROOT
HETATM    1 Cl   UNK N   1      35.300  15.447  18.721  0.00  0.00    -0.081 Cl
HETATM    2 Cl   UNK N   1      35.285   9.968  19.210  0.00  0.00    -0.081 Cl
HETATM    3  C   UNK N   1      35.171  12.444  16.032  0.00  0.00    -0.022 A 
HETATM    4  C   UNK N   1      35.204  13.713  16.627  0.00  0.00     0.039 A 
HETATM    5  C   UNK N   1      35.261  13.842  18.016  0.00  0.00     0.069 A 
HETATM    6  C   UNK N   1      35.287  12.696  18.826  0.00  0.00     0.109 A 
HETATM    7  C   UNK N   1      35.255  11.425  18.234  0.00  0.00     0.069 A 
HETATM    8  C   UNK N   1      35.197  11.304  16.847  0.00  0.00     0.039 A 
ENDROOT
BRANCH   3   9
HETATM    9  C   UNK N   1      35.111  12.304  14.565  0.00  0.00    -0.022 A 
HETATM   10  C   UNK N   1      35.681  13.283  13.741  0.00  0.00     0.039 A 
HETATM   11  C   UNK N   1      35.630  13.162  12.354  0.00  0.00     0.069 A 
HETATM   12 Cl   UNK N   1      36.359  14.414  11.365  0.00  0.00    -0.081 Cl
HETATM   13  C   UNK N   1      35.003  12.050  11.772  0.00  0.00     0.109 A 
HETATM   14  C   UNK N   1      34.429  11.065  12.591  0.00  0.00     0.069 A 
HETATM   15 Cl   UNK N   1      33.636   9.662  11.898  0.00  0.00    -0.081 Cl
HETATM   16  C   UNK N   1      34.485  11.195  13.980  0.00  0.00     0.039 A 
BRANCH  13  17
HETATM   17  O   UNK N   1      34.951  11.930  10.434  0.00  0.00    -0.357 OA
HETATM   18  H   UNK N   1      34.459  12.546   9.927  0.00  0.00     0.217 HD
ENDBRANCH  13  17
ENDBRANCH   3   9
BRANCH   6  19
HETATM   19  O   UNK N   1      35.342  12.816  20.163  0.00  0.00    -0.357 OA
HETATM   20  H   UNK N   1      34.666  13.274  20.622  0.00  0.00     0.217 HD
ENDBRANCH   6  19
TORSDOF 3
ENDMDL
MODEL 9
REMARK VINA RESULT:      -5.7     15.856     17.413
REMARK  3 active torsions:
REMARK  status: ('A' for Active; 'I' for Inactive)
REMARK    1  A    between atoms: O_3  and  C_7 
REMARK    2  A    between atoms: C_4  and  C_13 
REMARK    3  A    between atoms: O_12  and  C_16 
ROOT
HETATM    1 Cl   UNK N   1      34.169   9.314  12.113  0.00  0.00    -0.081 Cl
HETATM    2 Cl   UNK N   1      35.717  14.556  11.484  0.00  0.00    -0.081 Cl
HETATM    3  C   UNK N   1      35.085  12.247  14.726  0.00  0.00    -0.022 A 
HETATM    4  C   UNK N   1      34.710  11.019  14.164  0.00  0.00     0.039 A 
HETATM    5  C   UNK N   1      34.642  10.867  12.777  0.00  0.00     0.069 A 
HETATM    6  C   UNK N   1      34.950  11.949  11.938  0.00  0.00     0.109 A 
HETATM    7  C   UNK N   1      35.325  13.179  12.498  0.00  0.00     0.069 A 
HETATM    8  C   UNK N   1      35.391  13.323  13.882  0.00  0.00     0.039 A 
ENDROOT
BRANCH   3   9
HETATM    9  C   UNK N   1      35.158  12.411  16.190  0.00  0.00    -0.022 A 
HETATM   10  C   UNK N   1      35.173  13.694  16.754  0.00  0.00     0.039 A 
HETATM   11  C   UNK N   1      35.242  13.862  18.135  0.00  0.00     0.069 A 
HETATM   12 Cl   UNK N   1      35.258  15.488  18.794  0.00  0.00    -0.081 Cl
HETATM   13  C   UNK N   1      35.297  12.739  18.974  0.00  0.00     0.109 A 
HETATM   14  C   UNK N   1      35.282  11.451  18.417  0.00  0.00     0.069 A 
HETATM   15 Cl   UNK N   1      35.349  10.024  19.435  0.00  0.00    -0.081 Cl
HETATM   16  C   UNK N   1      35.213  11.292  17.032  0.00  0.00     0.039 A 
BRANCH  13  17
HETATM   17  O   UNK N   1      35.363  12.897  20.308  0.00  0.00    -0.357 OA
HETATM   18  H   UNK N   1      34.937  13.626  20.714  0.00  0.00     0.217 HD
ENDBRANCH  13  17
ENDBRANCH   3   9
BRANCH   6  19
HETATM   19  O   UNK N   1      34.885  11.807  10.603  0.00  0.00    -0.357 OA
HETATM   20  H   UNK N   1      35.262  12.458  10.043  0.00  0.00     0.217 HD
ENDBRANCH   6  19
TORSDOF 3
ENDMDL
