MODEL 1
REMARK VINA RESULT:      -8.5      0.000      0.000
REMARK  8 active torsions:
REMARK  status: ('A' for Active; 'I' for Inactive)
REMARK    1  A    between atoms: C_2  and  C_19 
REMARK    2  A    between atoms: C_4  and  C_6 
REMARK    3  A    between atoms: C_9  and  C_12 
REMARK       I    between atoms: C_19  and  N_21 
REMARK    4  A    between atoms: C_22  and  N_21 
REMARK    5  A    between atoms: C_22  and  C_23 
REMARK    6  A    between atoms: C_22  and  C_27 
REMARK    7  A    between atoms: C_23  and  C_24 
REMARK    8  A    between atoms: C_24  and  O_26 
ROOT
HETATM    1  S   UNK N   1      35.701  16.040  10.026  0.00  0.00    -0.096 SA
HETATM    2  C   UNK N   1      34.242  15.276  10.183  0.00  0.00     0.073 A 
HETATM    3  C   UNK N   1      34.246  14.630  11.389  0.00  0.00     0.037 A 
HETATM    4  C   UNK N   1      35.457  14.743  12.091  0.00  0.00    -0.018 A 
HETATM    5  C   UNK N   1      36.428  15.533  11.445  0.00  0.00     0.062 A 
ENDROOT
BRANCH   2   6
HETATM    6  C   UNK N   1      33.098  15.150   9.303  0.00  0.00     0.259 C 
HETATM    7  O   UNK N   1      32.560  14.061   9.112  0.00  0.00    -0.267 OA
HETATM    8  N   UNK N   1      32.727  16.259   8.618  0.00  0.00    -0.347 N 
HETATM    9  H   UNK N   1      33.087  17.118   8.939  0.00  0.00     0.163 HD
BRANCH   8  10
HETATM   10  C   UNK N   1      31.860  16.314   7.468  0.00  0.00     0.128 C 
BRANCH  10  11
HETATM   11  C   UNK N   1      32.616  16.839   6.242  0.00  0.00     0.140 C 
BRANCH  11  12
HETATM   12  C   UNK N   1      34.067  17.076   6.553  0.00  0.00     0.141 C 
HETATM   13  O   UNK N   1      34.899  16.221   6.287  0.00  0.00    -0.650 OA
BRANCH  12  14
HETATM   14  O   UNK N   1      34.453  18.229   7.125  0.00  0.00    -0.776 OA
HETATM   15  H   UNK N   1      35.108  18.319   7.789  0.00  0.00     0.167 HD
ENDBRANCH  12  14
ENDBRANCH  11  12
ENDBRANCH  10  11
BRANCH  10  16
HETATM   16  C   UNK N   1      30.607  17.109   7.811  0.00  0.00    -0.035 A 
HETATM   17  C   UNK N   1      29.490  17.101   6.948  0.00  0.00     0.009 A 
HETATM   18  C   UNK N   1      28.338  17.817   7.248  0.00  0.00     0.001 A 
HETATM   19  C   UNK N   1      28.286  18.570   8.417  0.00  0.00     0.000 A 
HETATM   20  C   UNK N   1      29.389  18.608   9.276  0.00  0.00     0.001 A 
HETATM   21  C   UNK N   1      30.548  17.883   8.975  0.00  0.00     0.009 A 
ENDBRANCH  10  16
ENDBRANCH   8  10
ENDBRANCH   2   6
BRANCH   4  22
HETATM   22  C   UNK N   1      35.732  13.698  13.078  0.00  0.00    -0.025 A 
HETATM   23  C   UNK N   1      36.710  13.974  14.050  0.00  0.00     0.013 A 
HETATM   24  C   UNK N   1      36.639  13.394  15.304  0.00  0.00     0.013 A 
HETATM   25  C   UNK N   1      35.584  12.534  15.611  0.00  0.00    -0.026 A 
HETATM   26  C   UNK N   1      34.677  12.160  14.602  0.00  0.00     0.013 A 
HETATM   27  C   UNK N   1      34.747  12.746  13.338  0.00  0.00     0.013 A 
BRANCH  25  28
HETATM   28  C   UNK N   1      35.330  12.168  17.016  0.00  0.00    -0.023 A 
HETATM   29  C   UNK N   1      35.291  10.820  17.403  0.00  0.00     0.029 A 
HETATM   30  C   UNK N   1      35.161  10.493  18.752  0.00  0.00     0.088 A 
HETATM   31  N   UNK N   1      35.082  11.478  19.687  0.00  0.00    -0.375 N 
HETATM   32  C   UNK N   1      35.125  12.792  19.340  0.00  0.00     0.088 A 
ATOM     33  HN  UNK N   1      34.989  11.225  20.670  1.00  0.00     0.164 HD
HETATM   34  C   UNK N   1      35.258  13.159  18.001  0.00  0.00     0.029 A 
ENDBRANCH  25  28
ENDBRANCH   4  22
TORSDOF 8
ENDMDL
MODEL 2
REMARK VINA RESULT:      -8.0      8.901     13.211
REMARK  8 active torsions:
REMARK  status: ('A' for Active; 'I' for Inactive)
REMARK    1  A    between atoms: C_2  and  C_19 
REMARK    2  A    between atoms: C_4  and  C_6 
REMARK    3  A    between atoms: C_9  and  C_12 
REMARK       I    between atoms: C_19  and  N_21 
REMARK    4  A    between atoms: C_22  and  N_21 
REMARK    5  A    between atoms: C_22  and  C_23 
REMARK    6  A    between atoms: C_22  and  C_27 
REMARK    7  A    between atoms: C_23  and  C_24 
REMARK    8  A    between atoms: C_24  and  O_26 
ROOT
HETATM    1  S   UNK N   1      21.824  18.971   3.451  0.00  0.00    -0.096 SA
HETATM    2  C   UNK N   1      21.887  18.026   4.806  0.00  0.00     0.073 A 
HETATM    3  C   UNK N   1      23.135  18.172   5.349  0.00  0.00     0.037 A 
HETATM    4  C   UNK N   1      23.989  18.997   4.600  0.00  0.00    -0.018 A 
HETATM    5  C   UNK N   1      23.392  19.554   3.452  0.00  0.00     0.062 A 
ENDROOT
BRANCH   2   6
HETATM    6  C   UNK N   1      20.940  17.114   5.415  0.00  0.00     0.259 C 
HETATM    7  O   UNK N   1      19.957  16.712   4.796  0.00  0.00    -0.267 OA
HETATM    8  N   UNK N   1      21.126  16.821   6.726  0.00  0.00    -0.347 N 
HETATM    9  H   UNK N   1      22.009  17.038   7.105  0.00  0.00     0.163 HD
BRANCH   8  10
HETATM   10  C   UNK N   1      20.168  16.226   7.622  0.00  0.00     0.128 C 
BRANCH  10  11
HETATM   11  C   UNK N   1      19.793  17.201   8.743  0.00  0.00     0.140 C 
BRANCH  11  12
HETATM   12  C   UNK N   1      18.303  17.289   8.917  0.00  0.00     0.141 C 
HETATM   13  O   UNK N   1      17.568  16.518   8.318  0.00  0.00    -0.650 OA
BRANCH  12  14
HETATM   14  O   UNK N   1      17.775  18.219   9.731  0.00  0.00    -0.776 OA
HETATM   15  H   UNK N   1      18.199  19.005  10.015  0.00  0.00     0.167 HD
ENDBRANCH  12  14
ENDBRANCH  11  12
ENDBRANCH  10  11
BRANCH  10  16
HETATM   16  C   UNK N   1      20.699  14.887   8.118  0.00  0.00    -0.035 A 
HETATM   17  C   UNK N   1      20.921  13.823   7.217  0.00  0.00     0.009 A 
HETATM   18  C   UNK N   1      21.408  12.596   7.651  0.00  0.00     0.001 A 
HETATM   19  C   UNK N   1      21.669  12.405   9.004  0.00  0.00     0.000 A 
HETATM   20  C   UNK N   1      21.436  13.439   9.917  0.00  0.00     0.001 A 
HETATM   21  C   UNK N   1      20.950  14.676   9.477  0.00  0.00     0.009 A 
ENDBRANCH  10  16
ENDBRANCH   8  10
ENDBRANCH   2   6
BRANCH   4  22
HETATM   22  C   UNK N   1      25.424  18.789   4.795  0.00  0.00    -0.025 A 
HETATM   23  C   UNK N   1      26.168  19.872   5.298  0.00  0.00     0.013 A 
HETATM   24  C   UNK N   1      27.303  19.654   6.056  0.00  0.00     0.013 A 
HETATM   25  C   UNK N   1      27.712  18.347   6.332  0.00  0.00    -0.026 A 
HETATM   26  C   UNK N   1      27.044  17.268   5.726  0.00  0.00     0.013 A 
HETATM   27  C   UNK N   1      25.896  17.488   4.963  0.00  0.00     0.013 A 
BRANCH  25  28
HETATM   28  C   UNK N   1      28.719  18.108   7.382  0.00  0.00    -0.023 A 
HETATM   29  C   UNK N   1      29.909  17.429   7.083  0.00  0.00     0.029 A 
HETATM   30  C   UNK N   1      30.899  17.308   8.058  0.00  0.00     0.088 A 
HETATM   31  N   UNK N   1      30.711  17.854   9.289  0.00  0.00    -0.375 N 
HETATM   32  C   UNK N   1      29.570  18.524   9.603  0.00  0.00     0.088 A 
ATOM     33  HN  UNK N   1      31.443  17.759   9.992  1.00  0.00     0.164 HD
HETATM   34  C   UNK N   1      28.559  18.669   8.654  0.00  0.00     0.029 A 
ENDBRANCH  25  28
ENDBRANCH   4  22
TORSDOF 8
ENDMDL
MODEL 3
REMARK VINA RESULT:      -7.9      2.777      4.341
REMARK  8 active torsions:
REMARK  status: ('A' for Active; 'I' for Inactive)
REMARK    1  A    between atoms: C_2  and  C_19 
REMARK    2  A    between atoms: C_4  and  C_6 
REMARK    3  A    between atoms: C_9  and  C_12 
REMARK       I    between atoms: C_19  and  N_21 
REMARK    4  A    between atoms: C_22  and  N_21 
REMARK    5  A    between atoms: C_22  and  C_23 
REMARK    6  A    between atoms: C_22  and  C_27 
REMARK    7  A    between atoms: C_23  and  C_24 
REMARK    8  A    between atoms: C_24  and  O_26 
ROOT
HETATM    1  S   UNK N   1      34.711   9.797   9.459  0.00  0.00    -0.096 SA
HETATM    2  C   UNK N   1      35.394  11.200  10.006  0.00  0.00     0.073 A 
HETATM    3  C   UNK N   1      35.611  11.053  11.349  0.00  0.00     0.037 A 
HETATM    4  C   UNK N   1      35.154   9.831  11.869  0.00  0.00    -0.018 A 
HETATM    5  C   UNK N   1      34.596   8.967  10.907  0.00  0.00     0.062 A 
ENDROOT
BRANCH   2   6
HETATM    6  C   UNK N   1      35.714  12.456   9.359  0.00  0.00     0.259 C 
HETATM    7  O   UNK N   1      36.571  12.518   8.479  0.00  0.00    -0.267 OA
HETATM    8  N   UNK N   1      35.113  13.568   9.848  0.00  0.00    -0.347 N 
HETATM    9  H   UNK N   1      34.329  13.427  10.427  0.00  0.00     0.163 HD
BRANCH   8  10
HETATM   10  C   UNK N   1      35.499  14.936   9.608  0.00  0.00     0.128 C 
BRANCH  10  11
HETATM   11  C   UNK N   1      36.185  15.531  10.843  0.00  0.00     0.140 C 
BRANCH  11  12
HETATM   12  C   UNK N   1      36.043  14.629  12.037  0.00  0.00     0.141 C 
HETATM   13  O   UNK N   1      34.962  14.512  12.593  0.00  0.00    -0.650 OA
BRANCH  12  14
HETATM   14  O   UNK N   1      37.108  13.950  12.497  0.00  0.00    -0.776 OA
HETATM   15  H   UNK N   1      37.888  13.760  12.014  0.00  0.00     0.167 HD
ENDBRANCH  12  14
ENDBRANCH  11  12
ENDBRANCH  10  11
BRANCH  10  16
HETATM   16  C   UNK N   1      34.292  15.729   9.126  0.00  0.00    -0.035 A 
HETATM   17  C   UNK N   1      34.421  17.089   8.768  0.00  0.00     0.009 A 
HETATM   18  C   UNK N   1      33.331  17.826   8.323  0.00  0.00     0.001 A 
HETATM   19  C   UNK N   1      32.082  17.219   8.240  0.00  0.00     0.000 A 
HETATM   20  C   UNK N   1      31.929  15.878   8.609  0.00  0.00     0.001 A 
HETATM   21  C   UNK N   1      33.028  15.135   9.053  0.00  0.00     0.009 A 
ENDBRANCH  10  16
ENDBRANCH   8  10
ENDBRANCH   2   6
BRANCH   4  22
HETATM   22  C   UNK N   1      34.864   9.807  13.303  0.00  0.00    -0.025 A 
HETATM   23  C   UNK N   1      35.915   9.453  14.167  0.00  0.00     0.013 A 
HETATM   24  C   UNK N   1      35.964   9.949  15.457  0.00  0.00     0.013 A 
HETATM   25  C   UNK N   1      34.965  10.815  15.904  0.00  0.00    -0.026 A 
HETATM   26  C   UNK N   1      33.849  11.069  15.086  0.00  0.00     0.013 A 
HETATM   27  C   UNK N   1      33.800  10.571  13.784  0.00  0.00     0.013 A 
BRANCH  25  28
HETATM   28  C   UNK N   1      35.172  11.584  17.145  0.00  0.00    -0.023 A 
HETATM   29  C   UNK N   1      35.052  12.981  17.143  0.00  0.00     0.029 A 
HETATM   30  C   UNK N   1      35.142  13.683  18.344  0.00  0.00     0.088 A 
HETATM   31  N   UNK N   1      35.334  13.013  19.512  0.00  0.00    -0.375 N 
HETATM   32  C   UNK N   1      35.446  11.658  19.543  0.00  0.00     0.088 A 
ATOM     33  HN  UNK N   1      35.396  13.538  20.383  1.00  0.00     0.164 HD
HETATM   34  C   UNK N   1      35.359  10.920  18.363  0.00  0.00     0.029 A 
ENDBRANCH  25  28
ENDBRANCH   4  22
TORSDOF 8
ENDMDL
MODEL 4
REMARK VINA RESULT:      -7.9      2.157      3.174
REMARK  8 active torsions:
REMARK  status: ('A' for Active; 'I' for Inactive)
REMARK    1  A    between atoms: C_2  and  C_19 
REMARK    2  A    between atoms: C_4  and  C_6 
REMARK    3  A    between atoms: C_9  and  C_12 
REMARK       I    between atoms: C_19  and  N_21 
REMARK    4  A    between atoms: C_22  and  N_21 
REMARK    5  A    between atoms: C_22  and  C_23 
REMARK    6  A    between atoms: C_22  and  C_27 
REMARK    7  A    between atoms: C_23  and  C_24 
REMARK    8  A    between atoms: C_24  and  O_26 
ROOT
HETATM    1  S   UNK N   1      34.999  10.777   9.798  0.00  0.00    -0.096 SA
HETATM    2  C   UNK N   1      34.964  12.426   9.911  0.00  0.00     0.073 A 
HETATM    3  C   UNK N   1      35.048  12.748  11.238  0.00  0.00     0.037 A 
HETATM    4  C   UNK N   1      35.076  11.634  12.093  0.00  0.00    -0.018 A 
HETATM    5  C   UNK N   1      35.054  10.393  11.426  0.00  0.00     0.062 A 
ENDROOT
BRANCH   2   6
HETATM    6  C   UNK N   1      34.815  13.477   8.924  0.00  0.00     0.259 C 
HETATM    7  O   UNK N   1      35.240  13.339   7.779  0.00  0.00    -0.267 OA
HETATM    8  N   UNK N   1      34.295  14.653   9.354  0.00  0.00    -0.347 N 
HETATM    9  H   UNK N   1      33.831  14.638  10.223  0.00  0.00     0.163 HD
BRANCH   8  10
HETATM   10  C   UNK N   1      34.350  15.922   8.674  0.00  0.00     0.128 C 
BRANCH  10  11
HETATM   11  C   UNK N   1      34.938  17.003   9.587  0.00  0.00     0.140 C 
BRANCH  11  12
HETATM   12  C   UNK N   1      35.630  16.399  10.777  0.00  0.00     0.141 C 
HETATM   13  O   UNK N   1      35.005  16.177  11.803  0.00  0.00    -0.650 OA
BRANCH  12  14
HETATM   14  O   UNK N   1      36.940  16.104  10.715  0.00  0.00    -0.776 OA
HETATM   15  H   UNK N   1      37.639  16.724  10.650  0.00  0.00     0.167 HD
ENDBRANCH  12  14
ENDBRANCH  11  12
ENDBRANCH  10  11
BRANCH  10  16
HETATM   16  C   UNK N   1      32.973  16.261   8.118  0.00  0.00    -0.035 A 
HETATM   17  C   UNK N   1      32.411  15.497   7.072  0.00  0.00     0.009 A 
HETATM   18  C   UNK N   1      31.156  15.790   6.555  0.00  0.00     0.001 A 
HETATM   19  C   UNK N   1      30.440  16.868   7.067  0.00  0.00     0.000 A 
HETATM   20  C   UNK N   1      30.987  17.651   8.089  0.00  0.00     0.001 A 
HETATM   21  C   UNK N   1      32.251  17.351   8.612  0.00  0.00     0.009 A 
ENDBRANCH  10  16
ENDBRANCH   8  10
ENDBRANCH   2   6
BRANCH   4  22
HETATM   22  C   UNK N   1      34.640  11.865  13.471  0.00  0.00    -0.025 A 
HETATM   23  C   UNK N   1      34.222  10.744  14.209  0.00  0.00     0.013 A 
HETATM   24  C   UNK N   1      34.368  10.712  15.584  0.00  0.00     0.013 A 
HETATM   25  C   UNK N   1      34.943  11.799  16.245  0.00  0.00    -0.026 A 
HETATM   26  C   UNK N   1      35.245  12.969  15.524  0.00  0.00     0.013 A 
HETATM   27  C   UNK N   1      35.100  13.001  14.137  0.00  0.00     0.013 A 
BRANCH  25  28
HETATM   28  C   UNK N   1      35.385  11.649  17.643  0.00  0.00    -0.023 A 
HETATM   29  C   UNK N   1      35.127  12.658  18.582  0.00  0.00     0.029 A 
HETATM   30  C   UNK N   1      35.452  12.453  19.923  0.00  0.00     0.088 A 
HETATM   31  N   UNK N   1      36.007  11.275  20.316  0.00  0.00    -0.375 N 
HETATM   32  C   UNK N   1      36.260  10.278  19.428  0.00  0.00     0.088 A 
ATOM     33  HN  UNK N   1      36.238  11.138  21.299  1.00  0.00     0.164 HD
HETATM   34  C   UNK N   1      35.947  10.443  18.079  0.00  0.00     0.029 A 
ENDBRANCH  25  28
ENDBRANCH   4  22
TORSDOF 8
ENDMDL
MODEL 5
REMARK VINA RESULT:      -7.8      1.617      2.175
REMARK  8 active torsions:
REMARK  status: ('A' for Active; 'I' for Inactive)
REMARK    1  A    between atoms: C_2  and  C_19 
REMARK    2  A    between atoms: C_4  and  C_6 
REMARK    3  A    between atoms: C_9  and  C_12 
REMARK       I    between atoms: C_19  and  N_21 
REMARK    4  A    between atoms: C_22  and  N_21 
REMARK    5  A    between atoms: C_22  and  C_23 
REMARK    6  A    between atoms: C_22  and  C_27 
REMARK    7  A    between atoms: C_23  and  C_24 
REMARK    8  A    between atoms: C_24  and  O_26 
ROOT
HETATM    1  S   UNK N   1      35.904  15.049   9.563  0.00  0.00    -0.096 SA
HETATM    2  C   UNK N   1      34.294  14.946   9.925  0.00  0.00     0.073 A 
HETATM    3  C   UNK N   1      34.192  14.688  11.265  0.00  0.00     0.037 A 
HETATM    4  C   UNK N   1      35.428  14.529  11.910  0.00  0.00    -0.018 A 
HETATM    5  C   UNK N   1      36.545  14.705  11.070  0.00  0.00     0.062 A 
ENDROOT
BRANCH   2   6
HETATM    6  C   UNK N   1      33.096  15.023   9.114  0.00  0.00     0.259 C 
HETATM    7  O   UNK N   1      32.393  14.032   8.924  0.00  0.00    -0.267 OA
HETATM    8  N   UNK N   1      32.856  16.199   8.485  0.00  0.00    -0.347 N 
HETATM    9  H   UNK N   1      33.357  16.983   8.808  0.00  0.00     0.163 HD
BRANCH   8  10
HETATM   10  C   UNK N   1      31.944  16.424   7.392  0.00  0.00     0.128 C 
BRANCH  10  11
HETATM   11  C   UNK N   1      32.665  17.077   6.208  0.00  0.00     0.140 C 
BRANCH  11  12
HETATM   12  C   UNK N   1      34.131  17.250   6.486  0.00  0.00     0.141 C 
HETATM   13  O   UNK N   1      34.935  16.425   6.079  0.00  0.00    -0.650 OA
BRANCH  12  14
HETATM   14  O   UNK N   1      34.562  18.312   7.187  0.00  0.00    -0.776 OA
HETATM   15  H   UNK N   1      34.653  19.186   6.860  0.00  0.00     0.167 HD
ENDBRANCH  12  14
ENDBRANCH  11  12
ENDBRANCH  10  11
BRANCH  10  16
HETATM   16  C   UNK N   1      30.735  17.205   7.889  0.00  0.00    -0.035 A 
HETATM   17  C   UNK N   1      29.521  17.188   7.169  0.00  0.00     0.009 A 
HETATM   18  C   UNK N   1      28.407  17.891   7.610  0.00  0.00     0.001 A 
HETATM   19  C   UNK N   1      28.491  18.641   8.780  0.00  0.00     0.000 A 
HETATM   20  C   UNK N   1      29.691  18.688   9.498  0.00  0.00     0.001 A 
HETATM   21  C   UNK N   1      30.811  17.975   9.054  0.00  0.00     0.009 A 
ENDBRANCH  10  16
ENDBRANCH   8  10
ENDBRANCH   2   6
BRANCH   4  22
HETATM   22  C   UNK N   1      35.415  13.757  13.154  0.00  0.00    -0.025 A 
HETATM   23  C   UNK N   1      34.769  12.509  13.129  0.00  0.00     0.013 A 
HETATM   24  C   UNK N   1      35.180  11.487  13.966  0.00  0.00     0.013 A 
HETATM   25  C   UNK N   1      36.250  11.694  14.838  0.00  0.00    -0.026 A 
HETATM   26  C   UNK N   1      36.813  12.978  14.954  0.00  0.00     0.013 A 
HETATM   27  C   UNK N   1      36.401  14.008  14.108  0.00  0.00     0.013 A 
BRANCH  25  28
HETATM   28  C   UNK N   1      36.886  10.537  15.494  0.00  0.00    -0.023 A 
HETATM   29  C   UNK N   1      36.375  10.035  16.700  0.00  0.00     0.029 A 
HETATM   30  C   UNK N   1      36.919   8.874  17.249  0.00  0.00     0.088 A 
HETATM   31  N   UNK N   1      37.933   8.230  16.612  0.00  0.00    -0.375 N 
HETATM   32  C   UNK N   1      38.442   8.691  15.439  0.00  0.00     0.088 A 
ATOM     33  HN  UNK N   1      38.321   7.382  17.025  1.00  0.00     0.164 HD
HETATM   34  C   UNK N   1      37.923   9.847  14.856  0.00  0.00     0.029 A 
ENDBRANCH  25  28
ENDBRANCH   4  22
TORSDOF 8
ENDMDL
MODEL 6
REMARK VINA RESULT:      -7.8      2.328      3.343
REMARK  8 active torsions:
REMARK  status: ('A' for Active; 'I' for Inactive)
REMARK    1  A    between atoms: C_2  and  C_19 
REMARK    2  A    between atoms: C_4  and  C_6 
REMARK    3  A    between atoms: C_9  and  C_12 
REMARK       I    between atoms: C_19  and  N_21 
REMARK    4  A    between atoms: C_22  and  N_21 
REMARK    5  A    between atoms: C_22  and  C_23 
REMARK    6  A    between atoms: C_22  and  C_27 
REMARK    7  A    between atoms: C_23  and  C_24 
REMARK    8  A    between atoms: C_24  and  O_26 
ROOT
HETATM    1  S   UNK N   1      35.532  12.325   7.548  0.00  0.00    -0.096 SA
HETATM    2  C   UNK N   1      35.734  13.964   7.643  0.00  0.00     0.073 A 
HETATM    3  C   UNK N   1      36.411  14.226   8.802  0.00  0.00     0.037 A 
HETATM    4  C   UNK N   1      36.676  13.086   9.578  0.00  0.00    -0.018 A 
HETATM    5  C   UNK N   1      36.233  11.880   9.000  0.00  0.00     0.062 A 
ENDROOT
BRANCH   2   6
HETATM    6  C   UNK N   1      35.297  15.059   6.801  0.00  0.00     0.259 C 
HETATM    7  O   UNK N   1      35.850  15.297   5.729  0.00  0.00    -0.267 OA
HETATM    8  N   UNK N   1      34.337  15.873   7.303  0.00  0.00    -0.347 N 
HETATM    9  H   UNK N   1      33.831  15.534   8.078  0.00  0.00     0.163 HD
BRANCH   8  10
HETATM   10  C   UNK N   1      33.977  17.184   6.824  0.00  0.00     0.128 C 
BRANCH  10  11
HETATM   11  C   UNK N   1      33.658  18.122   7.993  0.00  0.00     0.140 C 
BRANCH  11  12
HETATM   12  C   UNK N   1      34.871  18.369   8.844  0.00  0.00     0.141 C 
HETATM   13  O   UNK N   1      35.535  19.383   8.687  0.00  0.00    -0.650 OA
BRANCH  12  14
HETATM   14  O   UNK N   1      35.230  17.474   9.780  0.00  0.00    -0.776 OA
HETATM   15  H   UNK N   1      34.937  17.463  10.670  0.00  0.00     0.167 HD
ENDBRANCH  12  14
ENDBRANCH  11  12
ENDBRANCH  10  11
BRANCH  10  16
HETATM   16  C   UNK N   1      32.854  17.061   5.802  0.00  0.00    -0.035 A 
HETATM   17  C   UNK N   1      31.599  16.530   6.171  0.00  0.00     0.009 A 
HETATM   18  C   UNK N   1      30.563  16.414   5.254  0.00  0.00     0.001 A 
HETATM   19  C   UNK N   1      30.767  16.818   3.938  0.00  0.00     0.000 A 
HETATM   20  C   UNK N   1      32.009  17.329   3.546  0.00  0.00     0.001 A 
HETATM   21  C   UNK N   1      33.051  17.448   4.473  0.00  0.00     0.009 A 
ENDBRANCH  10  16
ENDBRANCH   8  10
ENDBRANCH   2   6
BRANCH   4  22
HETATM   22  C   UNK N   1      36.898  13.312  11.006  0.00  0.00    -0.025 A 
HETATM   23  C   UNK N   1      35.992  14.156  11.672  0.00  0.00     0.013 A 
HETATM   24  C   UNK N   1      35.726  13.980  13.018  0.00  0.00     0.013 A 
HETATM   25  C   UNK N   1      36.356  12.951  13.720  0.00  0.00    -0.026 A 
HETATM   26  C   UNK N   1      37.354  12.189  13.088  0.00  0.00     0.013 A 
HETATM   27  C   UNK N   1      37.622  12.364  11.730  0.00  0.00     0.013 A 
BRANCH  25  28
HETATM   28  C   UNK N   1      35.851  12.564  15.050  0.00  0.00    -0.023 A 
HETATM   29  C   UNK N   1      35.834  11.217  15.439  0.00  0.00     0.029 A 
HETATM   30  C   UNK N   1      35.458  10.878  16.738  0.00  0.00     0.088 A 
HETATM   31  N   UNK N   1      35.119  11.852  17.625  0.00  0.00    -0.375 N 
HETATM   32  C   UNK N   1      35.133  13.166  17.276  0.00  0.00     0.088 A 
ATOM     33  HN  UNK N   1      34.847  11.591  18.572  1.00  0.00     0.164 HD
HETATM   34  C   UNK N   1      35.507  13.546  15.987  0.00  0.00     0.029 A 
ENDBRANCH  25  28
ENDBRANCH   4  22
TORSDOF 8
ENDMDL
MODEL 7
REMARK VINA RESULT:      -7.6      1.889      2.460
REMARK  8 active torsions:
REMARK  status: ('A' for Active; 'I' for Inactive)
REMARK    1  A    between atoms: C_2  and  C_19 
REMARK    2  A    between atoms: C_4  and  C_6 
REMARK    3  A    between atoms: C_9  and  C_12 
REMARK       I    between atoms: C_19  and  N_21 
REMARK    4  A    between atoms: C_22  and  N_21 
REMARK    5  A    between atoms: C_22  and  C_23 
REMARK    6  A    between atoms: C_22  and  C_27 
REMARK    7  A    between atoms: C_23  and  C_24 
REMARK    8  A    between atoms: C_24  and  O_26 
ROOT
HETATM    1  S   UNK N   1      33.179  11.062   9.460  0.00  0.00    -0.096 SA
HETATM    2  C   UNK N   1      33.812  12.568   9.201  0.00  0.00     0.073 A 
HETATM    3  C   UNK N   1      34.829  12.745  10.100  0.00  0.00     0.037 A 
HETATM    4  C   UNK N   1      34.997  11.671  10.988  0.00  0.00    -0.018 A 
HETATM    5  C   UNK N   1      34.117  10.594  10.764  0.00  0.00     0.062 A 
ENDROOT
BRANCH   2   6
HETATM    6  C   UNK N   1      33.455  13.643   8.298  0.00  0.00     0.259 C 
HETATM    7  O   UNK N   1      33.434  13.471   7.080  0.00  0.00    -0.267 OA
HETATM    8  N   UNK N   1      33.261  14.867   8.848  0.00  0.00    -0.347 N 
HETATM    9  H   UNK N   1      33.131  14.897   9.824  0.00  0.00     0.163 HD
BRANCH   8  10
HETATM   10  C   UNK N   1      33.226  16.130   8.155  0.00  0.00     0.128 C 
BRANCH  10  11
HETATM   11  C   UNK N   1      33.993  17.201   8.938  0.00  0.00     0.140 C 
BRANCH  11  12
HETATM   12  C   UNK N   1      34.561  18.248   8.023  0.00  0.00     0.141 C 
HETATM   13  O   UNK N   1      35.131  19.225   8.486  0.00  0.00    -0.650 OA
BRANCH  12  14
HETATM   14  O   UNK N   1      34.442  18.114   6.691  0.00  0.00    -0.776 OA
HETATM   15  H   UNK N   1      35.028  17.643   6.132  0.00  0.00     0.167 HD
ENDBRANCH  12  14
ENDBRANCH  11  12
ENDBRANCH  10  11
BRANCH  10  16
HETATM   16  C   UNK N   1      31.782  16.502   7.846  0.00  0.00    -0.035 A 
HETATM   17  C   UNK N   1      30.924  16.964   8.866  0.00  0.00     0.009 A 
HETATM   18  C   UNK N   1      29.605  17.310   8.602  0.00  0.00     0.001 A 
HETATM   19  C   UNK N   1      29.112  17.187   7.306  0.00  0.00     0.000 A 
HETATM   20  C   UNK N   1      29.940  16.712   6.284  0.00  0.00     0.001 A 
HETATM   21  C   UNK N   1      31.270  16.367   6.551  0.00  0.00     0.009 A 
ENDBRANCH  10  16
ENDBRANCH   8  10
ENDBRANCH   2   6
BRANCH   4  22
HETATM   22  C   UNK N   1      35.657  11.978  12.257  0.00  0.00    -0.025 A 
HETATM   23  C   UNK N   1      35.318  13.191  12.882  0.00  0.00     0.013 A 
HETATM   24  C   UNK N   1      35.377  13.315  14.258  0.00  0.00     0.013 A 
HETATM   25  C   UNK N   1      35.769  12.224  15.035  0.00  0.00    -0.026 A 
HETATM   26  C   UNK N   1      36.229  11.052  14.406  0.00  0.00     0.013 A 
HETATM   27  C   UNK N   1      36.167  10.926  13.018  0.00  0.00     0.013 A 
BRANCH  25  28
HETATM   28  C   UNK N   1      35.535  12.247  16.491  0.00  0.00    -0.023 A 
HETATM   29  C   UNK N   1      35.713  11.086  17.257  0.00  0.00     0.029 A 
HETATM   30  C   UNK N   1      35.596  11.151  18.645  0.00  0.00     0.088 A 
HETATM   31  N   UNK N   1      35.320  12.338  19.250  0.00  0.00    -0.375 N 
HETATM   32  C   UNK N   1      35.151  13.479  18.531  0.00  0.00     0.088 A 
ATOM     33  HN  UNK N   1      35.239  12.371  20.266  1.00  0.00     0.164 HD
HETATM   34  C   UNK N   1      35.263  13.456  17.142  0.00  0.00     0.029 A 
ENDBRANCH  25  28
ENDBRANCH   4  22
TORSDOF 8
ENDMDL
MODEL 8
REMARK VINA RESULT:      -7.6      3.498     10.179
REMARK  8 active torsions:
REMARK  status: ('A' for Active; 'I' for Inactive)
REMARK    1  A    between atoms: C_2  and  C_19 
REMARK    2  A    between atoms: C_4  and  C_6 
REMARK    3  A    between atoms: C_9  and  C_12 
REMARK       I    between atoms: C_19  and  N_21 
REMARK    4  A    between atoms: C_22  and  N_21 
REMARK    5  A    between atoms: C_22  and  C_23 
REMARK    6  A    between atoms: C_22  and  C_27 
REMARK    7  A    between atoms: C_23  and  C_24 
REMARK    8  A    between atoms: C_24  and  O_26 
ROOT
HETATM    1  S   UNK N   1      36.206  11.440  10.166  0.00  0.00    -0.096 SA
HETATM    2  C   UNK N   1      35.992  12.326  11.546  0.00  0.00     0.073 A 
HETATM    3  C   UNK N   1      35.092  13.316  11.262  0.00  0.00     0.037 A 
HETATM    4  C   UNK N   1      34.672  13.336   9.922  0.00  0.00    -0.018 A 
HETATM    5  C   UNK N   1      35.222  12.309   9.129  0.00  0.00     0.062 A 
ENDROOT
BRANCH   2   6
HETATM    6  C   UNK N   1      36.594  12.257  12.863  0.00  0.00     0.259 C 
HETATM    7  O   UNK N   1      37.779  11.962  13.005  0.00  0.00    -0.267 OA
HETATM    8  N   UNK N   1      35.767  12.418  13.924  0.00  0.00    -0.347 N 
HETATM    9  H   UNK N   1      34.882  12.810  13.739  0.00  0.00     0.163 HD
BRANCH   8  10
HETATM   10  C   UNK N   1      36.045  12.075  15.296  0.00  0.00     0.128 C 
BRANCH  10  11
HETATM   11  C   UNK N   1      35.001  11.089  15.832  0.00  0.00     0.140 C 
BRANCH  11  12
HETATM   12  C   UNK N   1      34.245  10.429  14.714  0.00  0.00     0.141 C 
HETATM   13  O   UNK N   1      33.101  10.775  14.458  0.00  0.00    -0.650 OA
BRANCH  12  14
HETATM   14  O   UNK N   1      34.825   9.454  13.993  0.00  0.00    -0.776 OA
HETATM   15  H   UNK N   1      35.718   9.438  13.711  0.00  0.00     0.167 HD
ENDBRANCH  12  14
ENDBRANCH  11  12
ENDBRANCH  10  11
BRANCH  10  16
HETATM   16  C   UNK N   1      36.178  13.348  16.122  0.00  0.00    -0.035 A 
HETATM   17  C   UNK N   1      37.073  14.368  15.733  0.00  0.00     0.009 A 
HETATM   18  C   UNK N   1      37.205  15.536  16.472  0.00  0.00     0.001 A 
HETATM   19  C   UNK N   1      36.449  15.702  17.630  0.00  0.00     0.000 A 
HETATM   20  C   UNK N   1      35.572  14.694  18.044  0.00  0.00     0.001 A 
HETATM   21  C   UNK N   1      35.437  13.519  17.295  0.00  0.00     0.009 A 
ENDBRANCH  10  16
ENDBRANCH   8  10
ENDBRANCH   2   6
BRANCH   4  22
HETATM   22  C   UNK N   1      34.162  14.613   9.423  0.00  0.00    -0.025 A 
HETATM   23  C   UNK N   1      34.972  15.318   8.514  0.00  0.00     0.013 A 
HETATM   24  C   UNK N   1      34.405  16.147   7.563  0.00  0.00     0.013 A 
HETATM   25  C   UNK N   1      33.016  16.281   7.500  0.00  0.00    -0.026 A 
HETATM   26  C   UNK N   1      32.215  15.678   8.486  0.00  0.00     0.013 A 
HETATM   27  C   UNK N   1      32.786  14.839   9.443  0.00  0.00     0.013 A 
BRANCH  25  28
HETATM   28  C   UNK N   1      32.400  16.902   6.313  0.00  0.00    -0.023 A 
HETATM   29  C   UNK N   1      33.191  17.284   5.219  0.00  0.00     0.029 A 
HETATM   30  C   UNK N   1      32.582  17.766   4.062  0.00  0.00     0.088 A 
HETATM   31  N   UNK N   1      31.226  17.856   3.993  0.00  0.00    -0.375 N 
HETATM   32  C   UNK N   1      30.436  17.486   5.035  0.00  0.00     0.088 A 
ATOM     33  HN  UNK N   1      30.794  18.209   3.140  1.00  0.00     0.164 HD
HETATM   34  C   UNK N   1      31.008  16.995   6.209  0.00  0.00     0.029 A 
ENDBRANCH  25  28
ENDBRANCH   4  22
TORSDOF 8
ENDMDL
MODEL 9
REMARK VINA RESULT:      -7.6      2.297      3.357
REMARK  8 active torsions:
REMARK  status: ('A' for Active; 'I' for Inactive)
REMARK    1  A    between atoms: C_2  and  C_19 
REMARK    2  A    between atoms: C_4  and  C_6 
REMARK    3  A    between atoms: C_9  and  C_12 
REMARK       I    between atoms: C_19  and  N_21 
REMARK    4  A    between atoms: C_22  and  N_21 
REMARK    5  A    between atoms: C_22  and  C_23 
REMARK    6  A    between atoms: C_22  and  C_27 
REMARK    7  A    between atoms: C_23  and  C_24 
REMARK    8  A    between atoms: C_24  and  O_26 
ROOT
HETATM    1  S   UNK N   1      33.069  12.137   6.502  0.00  0.00    -0.096 SA
HETATM    2  C   UNK N   1      33.417  13.664   7.032  0.00  0.00     0.073 A 
HETATM    3  C   UNK N   1      34.394  13.555   7.983  0.00  0.00     0.037 A 
HETATM    4  C   UNK N   1      34.763  12.231   8.271  0.00  0.00    -0.018 A 
HETATM    5  C   UNK N   1      34.090  11.263   7.499  0.00  0.00     0.062 A 
ENDROOT
BRANCH   2   6
HETATM    6  C   UNK N   1      32.862  14.965   6.717  0.00  0.00     0.259 C 
HETATM    7  O   UNK N   1      32.809  15.371   5.558  0.00  0.00    -0.267 OA
HETATM    8  N   UNK N   1      32.515  15.753   7.765  0.00  0.00    -0.347 N 
HETATM    9  H   UNK N   1      32.428  15.311   8.640  0.00  0.00     0.163 HD
BRANCH   8  10
HETATM   10  C   UNK N   1      32.260  17.171   7.732  0.00  0.00     0.128 C 
BRANCH  10  11
HETATM   11  C   UNK N   1      33.217  17.917   8.667  0.00  0.00     0.140 C 
BRANCH  11  12
HETATM   12  C   UNK N   1      34.459  18.357   7.945  0.00  0.00     0.141 C 
HETATM   13  O   UNK N   1      34.697  17.939   6.821  0.00  0.00    -0.650 OA
BRANCH  12  14
HETATM   14  O   UNK N   1      35.313  19.211   8.534  0.00  0.00    -0.776 OA
HETATM   15  H   UNK N   1      36.243  19.109   8.586  0.00  0.00     0.167 HD
ENDBRANCH  12  14
ENDBRANCH  11  12
ENDBRANCH  10  11
BRANCH  10  16
HETATM   16  C   UNK N   1      30.787  17.431   8.016  0.00  0.00    -0.035 A 
HETATM   17  C   UNK N   1      30.390  18.144   9.168  0.00  0.00     0.009 A 
HETATM   18  C   UNK N   1      29.052  18.393   9.441  0.00  0.00     0.001 A 
HETATM   19  C   UNK N   1      28.076  17.918   8.569  0.00  0.00     0.000 A 
HETATM   20  C   UNK N   1      28.446  17.191   7.432  0.00  0.00     0.001 A 
HETATM   21  C   UNK N   1      29.796  16.945   7.156  0.00  0.00     0.009 A 
ENDBRANCH  10  16
ENDBRANCH   8  10
ENDBRANCH   2   6
BRANCH   4  22
HETATM   22  C   UNK N   1      35.371  11.999   9.581  0.00  0.00    -0.025 A 
HETATM   23  C   UNK N   1      36.295  12.954  10.040  0.00  0.00     0.013 A 
HETATM   24  C   UNK N   1      36.461  13.179  11.394  0.00  0.00     0.013 A 
HETATM   25  C   UNK N   1      35.699  12.458  12.315  0.00  0.00    -0.026 A 
HETATM   26  C   UNK N   1      34.868  11.417  11.864  0.00  0.00     0.013 A 
HETATM   27  C   UNK N   1      34.698  11.190  10.498  0.00  0.00     0.013 A 
BRANCH  25  28
HETATM   28  C   UNK N   1      35.641  12.906  13.719  0.00  0.00    -0.023 A 
HETATM   29  C   UNK N   1      34.677  12.380  14.592  0.00  0.00     0.029 A 
HETATM   30  C   UNK N   1      34.705  12.730  15.941  0.00  0.00     0.088 A 
HETATM   31  N   UNK N   1      35.669  13.569  16.407  0.00  0.00    -0.375 N 
HETATM   32  C   UNK N   1      36.619  14.087  15.583  0.00  0.00     0.088 A 
ATOM     33  HN  UNK N   1      35.679  13.816  17.396  1.00  0.00     0.164 HD
HETATM   34  C   UNK N   1      36.626  13.759  14.228  0.00  0.00     0.029 A 
ENDBRANCH  25  28
ENDBRANCH   4  22
TORSDOF 8
ENDMDL
