MODEL 1
REMARK VINA RESULT:      -6.2      0.000      0.000
REMARK  15 active torsions:
REMARK  status: ('A' for Active; 'I' for Inactive)
REMARK    1  A    between atoms: C_1  and  C_2 
REMARK    2  A    between atoms: C_1  and  O_22 
REMARK    3  A    between atoms: C_2  and  C_3 
REMARK    4  A    between atoms: C_3  and  C_4 
REMARK    5  A    between atoms: C_4  and  C_5 
REMARK    6  A    between atoms: C_6  and  C_7 
REMARK    7  A    between atoms: C_8  and  C_7 
REMARK    8  A    between atoms: C_12  and  C_13 
REMARK    9  A    between atoms: C_14  and  C_15 
REMARK   10  A    between atoms: C_15  and  C_16 
REMARK   11  A    between atoms: C_15  and  O_25 
REMARK   12  A    between atoms: C_16  and  C_17 
REMARK   13  A    between atoms: C_17  and  C_18 
REMARK   14  A    between atoms: C_18  and  C_19 
REMARK   15  A    between atoms: O_25  and  O_26 
ROOT
HETATM    1  C   UNK N   1      26.894  23.075  -8.174  0.00  0.00     0.031 C 
HETATM    2  C   UNK N   1      26.212  22.038  -9.089  0.00  0.00     0.168 C 
HETATM    3  C   UNK N   1      25.968  20.862  -8.217  0.00  0.00     0.071 C 
HETATM    4  C   UNK N   1      25.154  21.728  -7.314  0.00  0.00     0.171 C 
HETATM    5  C   UNK N   1      26.204  22.728  -6.829  0.00  0.00     0.047 C 
HETATM    6  O   UNK N   1      24.904  22.484  -9.346  0.00  0.00    -0.235 OA
HETATM    7  O   UNK N   1      24.254  22.371  -8.181  0.00  0.00    -0.234 OA
ENDROOT
BRANCH   5   8
HETATM    8  C   UNK N   1      25.649  23.787  -5.893  0.00  0.00    -0.020 C 
HETATM    9  C   UNK N   1      26.057  24.304  -4.715  0.00  0.00     0.004 C 
BRANCH   9  10
HETATM   10  C   UNK N   1      27.303  24.045  -3.902  0.00  0.00     0.182 C 
BRANCH  10  11
HETATM   11  C   UNK N   1      28.236  25.257  -4.001  0.00  0.00     0.039 C 
BRANCH  11  12
HETATM   12  C   UNK N   1      28.204  25.948  -5.357  0.00  0.00     0.003 C 
BRANCH  12  13
HETATM   13  C   UNK N   1      27.867  27.415  -5.156  0.00  0.00    -0.000 C 
BRANCH  13  14
HETATM   14  C   UNK N   1      27.452  28.031  -6.474  0.00  0.00    -0.005 C 
HETATM   15  C   UNK N   1      26.841  26.964  -7.359  0.00  0.00     0.005 C 
ENDBRANCH  13  14
ENDBRANCH  12  13
ENDBRANCH  11  12
ENDBRANCH  10  11
BRANCH  10  16
HETATM   16  O   UNK N   1      26.954  23.914  -2.547  0.00  0.00    -0.234 OA
BRANCH  16  17
HETATM   17  O   UNK N   1      27.949  23.282  -1.956  0.00  0.00    -0.250 OA
HETATM   18  H   UNK N   1      28.577  23.718  -1.360  0.00  0.00     0.253 HD
ENDBRANCH  16  17
ENDBRANCH  10  16
ENDBRANCH   9  10
ENDBRANCH   5   8
BRANCH   1  19
HETATM   19  C   UNK N   1      28.415  22.824  -8.208  0.00  0.00     0.035 C 
BRANCH  19  20
HETATM   20  C   UNK N   1      29.017  22.424  -6.905  0.00  0.00    -0.030 C 
HETATM   21  C   UNK N   1      29.690  21.276  -6.854  0.00  0.00    -0.031 C 
BRANCH  21  22
HETATM   22  C   UNK N   1      30.296  20.783  -5.584  0.00  0.00     0.027 C 
BRANCH  22  23
HETATM   23  C   UNK N   1      30.117  21.810  -4.483  0.00  0.00     0.014 C 
BRANCH  23  24
HETATM   24  C   UNK N   1      31.472  22.320  -4.031  0.00  0.00     0.110 C 
BRANCH  24  25
HETATM   25  C   UNK N   1      31.601  22.165  -2.556  0.00  0.00     0.139 C 
HETATM   26  O   UNK N   1      30.875  22.803  -1.812  0.00  0.00    -0.650 OA
BRANCH  25  27
HETATM   27  O   UNK N   1      32.529  21.336  -2.042  0.00  0.00    -0.776 OA
HETATM   28  H   UNK N   1      32.990  21.316  -1.226  0.00  0.00     0.167 HD
ENDBRANCH  25  27
ENDBRANCH  24  25
ENDBRANCH  23  24
ENDBRANCH  22  23
ENDBRANCH  21  22
ENDBRANCH  19  20
ENDBRANCH   1  19
TORSDOF 15
ENDMDL
MODEL 2
REMARK VINA RESULT:      -6.0      1.894      4.832
REMARK  15 active torsions:
REMARK  status: ('A' for Active; 'I' for Inactive)
REMARK    1  A    between atoms: C_1  and  C_2 
REMARK    2  A    between atoms: C_1  and  O_22 
REMARK    3  A    between atoms: C_2  and  C_3 
REMARK    4  A    between atoms: C_3  and  C_4 
REMARK    5  A    between atoms: C_4  and  C_5 
REMARK    6  A    between atoms: C_6  and  C_7 
REMARK    7  A    between atoms: C_8  and  C_7 
REMARK    8  A    between atoms: C_12  and  C_13 
REMARK    9  A    between atoms: C_14  and  C_15 
REMARK   10  A    between atoms: C_15  and  C_16 
REMARK   11  A    between atoms: C_15  and  O_25 
REMARK   12  A    between atoms: C_16  and  C_17 
REMARK   13  A    between atoms: C_17  and  C_18 
REMARK   14  A    between atoms: C_18  and  C_19 
REMARK   15  A    between atoms: O_25  and  O_26 
ROOT
HETATM    1  C   UNK N   1      25.573  24.544  -8.129  0.00  0.00     0.031 C 
HETATM    2  C   UNK N   1      25.450  23.193  -8.863  0.00  0.00     0.168 C 
HETATM    3  C   UNK N   1      26.550  22.360  -8.315  0.00  0.00     0.071 C 
HETATM    4  C   UNK N   1      25.975  22.536  -6.950  0.00  0.00     0.171 C 
HETATM    5  C   UNK N   1      26.106  24.047  -6.760  0.00  0.00     0.047 C 
HETATM    6  O   UNK N   1      24.313  22.534  -8.365  0.00  0.00    -0.235 OA
HETATM    7  O   UNK N   1      24.619  22.196  -7.106  0.00  0.00    -0.234 OA
ENDROOT
BRANCH   5   8
HETATM    8  C   UNK N   1      25.556  24.544  -5.434  0.00  0.00    -0.020 C 
HETATM    9  C   UNK N   1      26.016  24.535  -4.166  0.00  0.00     0.004 C 
BRANCH   9  10
HETATM   10  C   UNK N   1      27.333  24.062  -3.596  0.00  0.00     0.182 C 
BRANCH  10  11
HETATM   11  C   UNK N   1      28.395  25.147  -3.799  0.00  0.00     0.039 C 
BRANCH  11  12
HETATM   12  C   UNK N   1      29.256  24.940  -5.038  0.00  0.00     0.003 C 
BRANCH  12  13
HETATM   13  C   UNK N   1      29.447  23.450  -5.263  0.00  0.00    -0.000 C 
BRANCH  13  14
HETATM   14  C   UNK N   1      30.883  23.170  -5.649  0.00  0.00    -0.005 C 
HETATM   15  C   UNK N   1      31.808  23.721  -4.584  0.00  0.00     0.005 C 
ENDBRANCH  13  14
ENDBRANCH  12  13
ENDBRANCH  11  12
ENDBRANCH  10  11
BRANCH  10  16
HETATM   16  O   UNK N   1      27.200  23.882  -2.208  0.00  0.00    -0.234 OA
BRANCH  16  17
HETATM   17  O   UNK N   1      28.168  23.067  -1.835  0.00  0.00    -0.250 OA
HETATM   18  H   UNK N   1      28.780  23.266  -1.110  0.00  0.00     0.253 HD
ENDBRANCH  16  17
ENDBRANCH  10  16
ENDBRANCH   9  10
ENDBRANCH   5   8
BRANCH   1  19
HETATM   19  C   UNK N   1      26.549  25.437  -8.921  0.00  0.00     0.035 C 
BRANCH  19  20
HETATM   20  C   UNK N   1      27.558  26.156  -8.093  0.00  0.00    -0.030 C 
HETATM   21  C   UNK N   1      27.167  27.253  -7.446  0.00  0.00    -0.031 C 
BRANCH  21  22
HETATM   22  C   UNK N   1      28.120  28.053  -6.622  0.00  0.00     0.027 C 
BRANCH  22  23
HETATM   23  C   UNK N   1      27.362  28.925  -5.642  0.00  0.00     0.014 C 
BRANCH  23  24
HETATM   24  C   UNK N   1      26.170  28.165  -5.092  0.00  0.00     0.110 C 
BRANCH  24  25
HETATM   25  C   UNK N   1      25.969  28.513  -3.658  0.00  0.00     0.139 C 
HETATM   26  O   UNK N   1      25.734  27.631  -2.848  0.00  0.00    -0.650 OA
BRANCH  25  27
HETATM   27  O   UNK N   1      26.029  29.796  -3.258  0.00  0.00    -0.776 OA
HETATM   28  H   UNK N   1      25.380  30.460  -3.133  0.00  0.00     0.167 HD
ENDBRANCH  25  27
ENDBRANCH  24  25
ENDBRANCH  23  24
ENDBRANCH  22  23
ENDBRANCH  21  22
ENDBRANCH  19  20
ENDBRANCH   1  19
TORSDOF 15
ENDMDL
MODEL 3
REMARK VINA RESULT:      -5.9      1.957      5.511
REMARK  15 active torsions:
REMARK  status: ('A' for Active; 'I' for Inactive)
REMARK    1  A    between atoms: C_1  and  C_2 
REMARK    2  A    between atoms: C_1  and  O_22 
REMARK    3  A    between atoms: C_2  and  C_3 
REMARK    4  A    between atoms: C_3  and  C_4 
REMARK    5  A    between atoms: C_4  and  C_5 
REMARK    6  A    between atoms: C_6  and  C_7 
REMARK    7  A    between atoms: C_8  and  C_7 
REMARK    8  A    between atoms: C_12  and  C_13 
REMARK    9  A    between atoms: C_14  and  C_15 
REMARK   10  A    between atoms: C_15  and  C_16 
REMARK   11  A    between atoms: C_15  and  O_25 
REMARK   12  A    between atoms: C_16  and  C_17 
REMARK   13  A    between atoms: C_17  and  C_18 
REMARK   14  A    between atoms: C_18  and  C_19 
REMARK   15  A    between atoms: O_25  and  O_26 
ROOT
HETATM    1  C   UNK N   1      27.957  27.189  -3.957  0.00  0.00     0.031 C 
HETATM    2  C   UNK N   1      27.429  28.580  -3.550  0.00  0.00     0.168 C 
HETATM    3  C   UNK N   1      26.513  28.977  -4.648  0.00  0.00     0.071 C 
HETATM    4  C   UNK N   1      25.703  27.751  -4.386  0.00  0.00     0.171 C 
HETATM    5  C   UNK N   1      26.711  26.649  -4.707  0.00  0.00     0.047 C 
HETATM    6  O   UNK N   1      26.537  28.405  -2.478  0.00  0.00    -0.235 OA
HETATM    7  O   UNK N   1      25.469  27.789  -3.000  0.00  0.00    -0.234 OA
ENDROOT
BRANCH   5   8
HETATM    8  C   UNK N   1      26.169  25.246  -4.493  0.00  0.00    -0.020 C 
HETATM    9  C   UNK N   1      25.816  24.242  -5.322  0.00  0.00     0.004 C 
BRANCH   9  10
HETATM   10  C   UNK N   1      25.899  24.127  -6.826  0.00  0.00     0.182 C 
BRANCH  10  11
HETATM   11  C   UNK N   1      27.350  23.853  -7.236  0.00  0.00     0.039 C 
BRANCH  11  12
HETATM   12  C   UNK N   1      27.913  22.555  -6.673  0.00  0.00     0.003 C 
BRANCH  12  13
HETATM   13  C   UNK N   1      28.715  21.855  -7.756  0.00  0.00    -0.000 C 
BRANCH  13  14
HETATM   14  C   UNK N   1      28.049  20.544  -8.119  0.00  0.00    -0.005 C 
HETATM   15  C   UNK N   1      29.015  19.404  -7.875  0.00  0.00     0.005 C 
ENDBRANCH  13  14
ENDBRANCH  12  13
ENDBRANCH  11  12
ENDBRANCH  10  11
BRANCH  10  16
HETATM   16  O   UNK N   1      25.144  23.019  -7.249  0.00  0.00    -0.234 OA
BRANCH  16  17
HETATM   17  O   UNK N   1      24.639  23.329  -8.428  0.00  0.00    -0.250 OA
HETATM   18  H   UNK N   1      24.173  22.693  -8.991  0.00  0.00     0.253 HD
ENDBRANCH  16  17
ENDBRANCH  10  16
ENDBRANCH   9  10
ENDBRANCH   5   8
BRANCH   1  19
HETATM   19  C   UNK N   1      29.209  27.386  -4.835  0.00  0.00     0.035 C 
BRANCH  19  20
HETATM   20  C   UNK N   1      29.804  26.131  -5.375  0.00  0.00    -0.030 C 
HETATM   21  C   UNK N   1      30.379  25.292  -4.515  0.00  0.00    -0.031 C 
BRANCH  21  22
HETATM   22  C   UNK N   1      31.028  24.029  -4.972  0.00  0.00     0.027 C 
BRANCH  22  23
HETATM   23  C   UNK N   1      30.651  22.883  -4.056  0.00  0.00     0.014 C 
BRANCH  23  24
HETATM   24  C   UNK N   1      29.250  23.096  -3.515  0.00  0.00     0.110 C 
BRANCH  24  25
HETATM   25  C   UNK N   1      29.266  23.013  -2.029  0.00  0.00     0.139 C 
HETATM   26  O   UNK N   1      28.216  23.045  -1.408  0.00  0.00    -0.650 OA
BRANCH  25  27
HETATM   27  O   UNK N   1      30.435  22.919  -1.369  0.00  0.00    -0.776 OA
HETATM   28  H   UNK N   1      31.297  22.652  -1.624  0.00  0.00     0.167 HD
ENDBRANCH  25  27
ENDBRANCH  24  25
ENDBRANCH  23  24
ENDBRANCH  22  23
ENDBRANCH  21  22
ENDBRANCH  19  20
ENDBRANCH   1  19
TORSDOF 15
ENDMDL
MODEL 4
REMARK VINA RESULT:      -5.7      3.009      6.802
REMARK  15 active torsions:
REMARK  status: ('A' for Active; 'I' for Inactive)
REMARK    1  A    between atoms: C_1  and  C_2 
REMARK    2  A    between atoms: C_1  and  O_22 
REMARK    3  A    between atoms: C_2  and  C_3 
REMARK    4  A    between atoms: C_3  and  C_4 
REMARK    5  A    between atoms: C_4  and  C_5 
REMARK    6  A    between atoms: C_6  and  C_7 
REMARK    7  A    between atoms: C_8  and  C_7 
REMARK    8  A    between atoms: C_12  and  C_13 
REMARK    9  A    between atoms: C_14  and  C_15 
REMARK   10  A    between atoms: C_15  and  C_16 
REMARK   11  A    between atoms: C_15  and  O_25 
REMARK   12  A    between atoms: C_16  and  C_17 
REMARK   13  A    between atoms: C_17  and  C_18 
REMARK   14  A    between atoms: C_18  and  C_19 
REMARK   15  A    between atoms: O_25  and  O_26 
ROOT
HETATM    1  C   UNK N   1      27.481  27.742  -4.890  0.00  0.00     0.031 C 
HETATM    2  C   UNK N   1      27.440  28.610  -3.616  0.00  0.00     0.168 C 
HETATM    3  C   UNK N   1      26.435  29.664  -3.904  0.00  0.00     0.071 C 
HETATM    4  C   UNK N   1      25.415  28.598  -4.129  0.00  0.00     0.171 C 
HETATM    5  C   UNK N   1      26.002  27.869  -5.338  0.00  0.00     0.047 C 
HETATM    6  O   UNK N   1      26.799  27.867  -2.609  0.00  0.00    -0.235 OA
HETATM    7  O   UNK N   1      25.519  27.782  -2.989  0.00  0.00    -0.234 OA
ENDROOT
BRANCH   5   8
HETATM    8  C   UNK N   1      25.175  26.678  -5.791  0.00  0.00    -0.020 C 
HETATM    9  C   UNK N   1      25.380  25.345  -5.801  0.00  0.00     0.004 C 
BRANCH   9  10
HETATM   10  C   UNK N   1      26.533  24.518  -5.283  0.00  0.00     0.182 C 
BRANCH  10  11
HETATM   11  C   UNK N   1      26.385  24.332  -3.769  0.00  0.00     0.039 C 
BRANCH  11  12
HETATM   12  C   UNK N   1      27.683  23.956  -3.066  0.00  0.00     0.003 C 
BRANCH  12  13
HETATM   13  C   UNK N   1      28.848  24.576  -3.818  0.00  0.00    -0.000 C 
BRANCH  13  14
HETATM   14  C   UNK N   1      29.977  23.574  -3.927  0.00  0.00    -0.005 C 
HETATM   15  C   UNK N   1      30.389  23.124  -2.541  0.00  0.00     0.005 C 
ENDBRANCH  13  14
ENDBRANCH  12  13
ENDBRANCH  11  12
ENDBRANCH  10  11
BRANCH  10  16
HETATM   16  O   UNK N   1      26.479  23.236  -5.855  0.00  0.00    -0.234 OA
BRANCH  16  17
HETATM   17  O   UNK N   1      25.219  23.016  -6.179  0.00  0.00    -0.250 OA
HETATM   18  H   UNK N   1      24.554  23.719  -6.236  0.00  0.00     0.253 HD
ENDBRANCH  16  17
ENDBRANCH  10  16
ENDBRANCH   9  10
ENDBRANCH   5   8
BRANCH   1  19
HETATM   19  C   UNK N   1      28.509  28.357  -5.861  0.00  0.00     0.035 C 
BRANCH  19  20
HETATM   20  C   UNK N   1      28.137  28.284  -7.302  0.00  0.00    -0.030 C 
HETATM   21  C   UNK N   1      28.329  27.129  -7.938  0.00  0.00    -0.031 C 
BRANCH  21  22
HETATM   22  C   UNK N   1      28.016  26.976  -9.388  0.00  0.00     0.027 C 
BRANCH  22  23
HETATM   23  C   UNK N   1      26.599  26.471  -9.570  0.00  0.00     0.014 C 
BRANCH  23  24
HETATM   24  C   UNK N   1      26.522  25.005  -9.190  0.00  0.00     0.110 C 
BRANCH  24  25
HETATM   25  C   UNK N   1      25.166  24.474  -9.500  0.00  0.00     0.139 C 
HETATM   26  O   UNK N   1      24.692  23.583  -8.814  0.00  0.00    -0.650 OA
BRANCH  25  27
HETATM   27  O   UNK N   1      24.471  24.963 -10.544  0.00  0.00    -0.776 OA
HETATM   28  H   UNK N   1      24.204  24.597 -11.364  0.00  0.00     0.167 HD
ENDBRANCH  25  27
ENDBRANCH  24  25
ENDBRANCH  23  24
ENDBRANCH  22  23
ENDBRANCH  21  22
ENDBRANCH  19  20
ENDBRANCH   1  19
TORSDOF 15
ENDMDL
MODEL 5
REMARK VINA RESULT:      -5.7      1.427      5.625
REMARK  15 active torsions:
REMARK  status: ('A' for Active; 'I' for Inactive)
REMARK    1  A    between atoms: C_1  and  C_2 
REMARK    2  A    between atoms: C_1  and  O_22 
REMARK    3  A    between atoms: C_2  and  C_3 
REMARK    4  A    between atoms: C_3  and  C_4 
REMARK    5  A    between atoms: C_4  and  C_5 
REMARK    6  A    between atoms: C_6  and  C_7 
REMARK    7  A    between atoms: C_8  and  C_7 
REMARK    8  A    between atoms: C_12  and  C_13 
REMARK    9  A    between atoms: C_14  and  C_15 
REMARK   10  A    between atoms: C_15  and  C_16 
REMARK   11  A    between atoms: C_15  and  O_25 
REMARK   12  A    between atoms: C_16  and  C_17 
REMARK   13  A    between atoms: C_17  and  C_18 
REMARK   14  A    between atoms: C_18  and  C_19 
REMARK   15  A    between atoms: O_25  and  O_26 
ROOT
HETATM    1  C   UNK N   1      30.178  21.868  -4.048  0.00  0.00     0.031 C 
HETATM    2  C   UNK N   1      31.517  22.249  -3.384  0.00  0.00     0.168 C 
HETATM    3  C   UNK N   1      31.768  23.650  -3.808  0.00  0.00     0.071 C 
HETATM    4  C   UNK N   1      30.471  24.047  -3.184  0.00  0.00     0.171 C 
HETATM    5  C   UNK N   1      29.475  23.250  -4.025  0.00  0.00     0.047 C 
HETATM    6  O   UNK N   1      31.287  22.401  -2.006  0.00  0.00    -0.235 OA
HETATM    7  O   UNK N   1      30.538  23.503  -1.889  0.00  0.00    -0.234 OA
ENDROOT
BRANCH   5   8
HETATM    8  C   UNK N   1      28.030  23.430  -3.590  0.00  0.00    -0.020 C 
HETATM    9  C   UNK N   1      27.116  24.408  -3.757  0.00  0.00     0.004 C 
BRANCH   9  10
HETATM   10  C   UNK N   1      27.189  25.707  -4.525  0.00  0.00     0.182 C 
BRANCH  10  11
HETATM   11  C   UNK N   1      25.982  25.810  -5.464  0.00  0.00     0.039 C 
BRANCH  11  12
HETATM   12  C   UNK N   1      25.879  27.146  -6.188  0.00  0.00     0.003 C 
BRANCH  12  13
HETATM   13  C   UNK N   1      27.151  27.374  -6.985  0.00  0.00    -0.000 C 
BRANCH  13  14
HETATM   14  C   UNK N   1      27.755  28.712  -6.615  0.00  0.00    -0.005 C 
HETATM   15  C   UNK N   1      28.854  29.059  -7.598  0.00  0.00     0.005 C 
ENDBRANCH  13  14
ENDBRANCH  12  13
ENDBRANCH  11  12
ENDBRANCH  10  11
BRANCH  10  16
HETATM   16  O   UNK N   1      27.093  26.783  -3.626  0.00  0.00    -0.234 OA
BRANCH  16  17
HETATM   17  O   UNK N   1      26.172  26.459  -2.739  0.00  0.00    -0.250 OA
HETATM   18  H   UNK N   1      25.857  27.067  -2.053  0.00  0.00     0.253 HD
ENDBRANCH  16  17
ENDBRANCH  10  16
ENDBRANCH   9  10
ENDBRANCH   5   8
BRANCH   1  19
HETATM   19  C   UNK N   1      30.477  21.314  -5.456  0.00  0.00     0.035 C 
BRANCH  19  20
HETATM   20  C   UNK N   1      29.370  21.469  -6.442  0.00  0.00    -0.030 C 
HETATM   21  C   UNK N   1      29.241  20.538  -7.386  0.00  0.00    -0.031 C 
BRANCH  21  22
HETATM   22  C   UNK N   1      28.183  20.632  -8.433  0.00  0.00     0.027 C 
BRANCH  22  23
HETATM   23  C   UNK N   1      27.050  21.518  -7.957  0.00  0.00     0.014 C 
BRANCH  23  24
HETATM   24  C   UNK N   1      25.731  20.780  -8.081  0.00  0.00     0.110 C 
BRANCH  24  25
HETATM   25  C   UNK N   1      24.616  21.664  -7.646  0.00  0.00     0.139 C 
HETATM   26  O   UNK N   1      23.953  21.366  -6.665  0.00  0.00    -0.650 OA
BRANCH  25  27
HETATM   27  O   UNK N   1      24.326  22.779  -8.340  0.00  0.00    -0.776 OA
HETATM   28  H   UNK N   1      24.553  23.078  -9.199  0.00  0.00     0.167 HD
ENDBRANCH  25  27
ENDBRANCH  24  25
ENDBRANCH  23  24
ENDBRANCH  22  23
ENDBRANCH  21  22
ENDBRANCH  19  20
ENDBRANCH   1  19
TORSDOF 15
ENDMDL
MODEL 6
REMARK VINA RESULT:      -5.4      2.264      4.968
REMARK  15 active torsions:
REMARK  status: ('A' for Active; 'I' for Inactive)
REMARK    1  A    between atoms: C_1  and  C_2 
REMARK    2  A    between atoms: C_1  and  O_22 
REMARK    3  A    between atoms: C_2  and  C_3 
REMARK    4  A    between atoms: C_3  and  C_4 
REMARK    5  A    between atoms: C_4  and  C_5 
REMARK    6  A    between atoms: C_6  and  C_7 
REMARK    7  A    between atoms: C_8  and  C_7 
REMARK    8  A    between atoms: C_12  and  C_13 
REMARK    9  A    between atoms: C_14  and  C_15 
REMARK   10  A    between atoms: C_15  and  C_16 
REMARK   11  A    between atoms: C_15  and  O_25 
REMARK   12  A    between atoms: C_16  and  C_17 
REMARK   13  A    between atoms: C_17  and  C_18 
REMARK   14  A    between atoms: C_18  and  C_19 
REMARK   15  A    between atoms: O_25  and  O_26 
ROOT
HETATM    1  C   UNK N   1      26.127  25.081  -7.432  0.00  0.00     0.031 C 
HETATM    2  C   UNK N   1      25.787  23.826  -8.263  0.00  0.00     0.168 C 
HETATM    3  C   UNK N   1      26.965  22.936  -8.108  0.00  0.00     0.071 C 
HETATM    4  C   UNK N   1      26.752  22.948  -6.630  0.00  0.00     0.171 C 
HETATM    5  C   UNK N   1      26.969  24.426  -6.307  0.00  0.00     0.047 C 
HETATM    6  O   UNK N   1      24.791  23.111  -7.575  0.00  0.00    -0.235 OA
HETATM    7  O   UNK N   1      25.391  22.627  -6.481  0.00  0.00    -0.234 OA
ENDROOT
BRANCH   5   8
HETATM    8  C   UNK N   1      26.780  24.762  -4.837  0.00  0.00    -0.020 C 
HETATM    9  C   UNK N   1      27.467  24.471  -3.713  0.00  0.00     0.004 C 
BRANCH   9  10
HETATM   10  C   UNK N   1      28.766  23.725  -3.515  0.00  0.00     0.182 C 
BRANCH  10  11
HETATM   11  C   UNK N   1      29.911  24.731  -3.357  0.00  0.00     0.039 C 
BRANCH  11  12
HETATM   12  C   UNK N   1      29.877  25.865  -4.372  0.00  0.00     0.003 C 
BRANCH  12  13
HETATM   13  C   UNK N   1      29.866  27.190  -3.631  0.00  0.00    -0.000 C 
BRANCH  13  14
HETATM   14  C   UNK N   1      31.284  27.690  -3.456  0.00  0.00    -0.005 C 
HETATM   15  C   UNK N   1      31.344  28.634  -2.273  0.00  0.00     0.005 C 
ENDBRANCH  13  14
ENDBRANCH  12  13
ENDBRANCH  11  12
ENDBRANCH  10  11
BRANCH  10  16
HETATM   16  O   UNK N   1      28.702  22.994  -2.316  0.00  0.00    -0.234 OA
BRANCH  16  17
HETATM   17  O   UNK N   1      29.850  23.183  -1.693  0.00  0.00    -0.250 OA
HETATM   18  H   UNK N   1      30.686  22.794  -1.989  0.00  0.00     0.253 HD
ENDBRANCH  16  17
ENDBRANCH  10  16
ENDBRANCH   9  10
ENDBRANCH   5   8
BRANCH   1  19
HETATM   19  C   UNK N   1      26.900  26.063  -8.335  0.00  0.00     0.035 C 
BRANCH  19  20
HETATM   20  C   UNK N   1      27.876  26.937  -7.625  0.00  0.00    -0.030 C 
HETATM   21  C   UNK N   1      27.419  28.057  -7.066  0.00  0.00    -0.031 C 
BRANCH  21  22
HETATM   22  C   UNK N   1      28.331  29.006  -6.365  0.00  0.00     0.027 C 
BRANCH  22  23
HETATM   23  C   UNK N   1      27.646  29.588  -5.144  0.00  0.00     0.014 C 
BRANCH  23  24
HETATM   24  C   UNK N   1      26.414  28.771  -4.807  0.00  0.00     0.110 C 
BRANCH  24  25
HETATM   25  C   UNK N   1      26.342  28.553  -3.336  0.00  0.00     0.139 C 
HETATM   26  O   UNK N   1      27.080  29.180  -2.593  0.00  0.00    -0.650 OA
BRANCH  25  27
HETATM   27  O   UNK N   1      25.479  27.655  -2.826  0.00  0.00    -0.776 OA
HETATM   28  H   UNK N   1      25.192  26.809  -3.109  0.00  0.00     0.167 HD
ENDBRANCH  25  27
ENDBRANCH  24  25
ENDBRANCH  23  24
ENDBRANCH  22  23
ENDBRANCH  21  22
ENDBRANCH  19  20
ENDBRANCH   1  19
TORSDOF 15
ENDMDL
MODEL 7
REMARK VINA RESULT:      -5.4      2.192      4.995
REMARK  15 active torsions:
REMARK  status: ('A' for Active; 'I' for Inactive)
REMARK    1  A    between atoms: C_1  and  C_2 
REMARK    2  A    between atoms: C_1  and  O_22 
REMARK    3  A    between atoms: C_2  and  C_3 
REMARK    4  A    between atoms: C_3  and  C_4 
REMARK    5  A    between atoms: C_4  and  C_5 
REMARK    6  A    between atoms: C_6  and  C_7 
REMARK    7  A    between atoms: C_8  and  C_7 
REMARK    8  A    between atoms: C_12  and  C_13 
REMARK    9  A    between atoms: C_14  and  C_15 
REMARK   10  A    between atoms: C_15  and  C_16 
REMARK   11  A    between atoms: C_15  and  O_25 
REMARK   12  A    between atoms: C_16  and  C_17 
REMARK   13  A    between atoms: C_17  and  C_18 
REMARK   14  A    between atoms: C_18  and  C_19 
REMARK   15  A    between atoms: O_25  and  O_26 
ROOT
HETATM    1  C   UNK N   1      28.008  27.221  -3.836  0.00  0.00     0.031 C 
HETATM    2  C   UNK N   1      27.452  28.652  -3.685  0.00  0.00     0.168 C 
HETATM    3  C   UNK N   1      26.584  28.851  -4.873  0.00  0.00     0.071 C 
HETATM    4  C   UNK N   1      25.771  27.674  -4.449  0.00  0.00     0.171 C 
HETATM    5  C   UNK N   1      26.800  26.548  -4.540  0.00  0.00     0.047 C 
HETATM    6  O   UNK N   1      26.514  28.642  -2.639  0.00  0.00    -0.235 OA
HETATM    7  O   UNK N   1      25.475  27.935  -3.099  0.00  0.00    -0.234 OA
ENDROOT
BRANCH   5   8
HETATM    8  C   UNK N   1      26.258  25.191  -4.123  0.00  0.00    -0.020 C 
HETATM    9  C   UNK N   1      25.890  24.082  -4.797  0.00  0.00     0.004 C 
BRANCH   9  10
HETATM   10  C   UNK N   1      25.947  23.757  -6.272  0.00  0.00     0.182 C 
BRANCH  10  11
HETATM   11  C   UNK N   1      27.382  23.376  -6.653  0.00  0.00     0.039 C 
BRANCH  11  12
HETATM   12  C   UNK N   1      28.137  24.480  -7.382  0.00  0.00     0.003 C 
BRANCH  12  13
HETATM   13  C   UNK N   1      27.138  25.367  -8.103  0.00  0.00    -0.000 C 
BRANCH  13  14
HETATM   14  C   UNK N   1      27.574  26.813  -8.006  0.00  0.00    -0.005 C 
HETATM   15  C   UNK N   1      28.176  27.249  -9.325  0.00  0.00     0.005 C 
ENDBRANCH  13  14
ENDBRANCH  12  13
ENDBRANCH  11  12
ENDBRANCH  10  11
BRANCH  10  16
HETATM   16  O   UNK N   1      25.149  22.630  -6.529  0.00  0.00    -0.234 OA
BRANCH  16  17
HETATM   17  O   UNK N   1      24.707  22.751  -7.767  0.00  0.00    -0.250 OA
HETATM   18  H   UNK N   1      23.786  22.587  -8.021  0.00  0.00     0.253 HD
ENDBRANCH  16  17
ENDBRANCH  10  16
ENDBRANCH   9  10
ENDBRANCH   5   8
BRANCH   1  19
HETATM   19  C   UNK N   1      29.296  27.289  -4.680  0.00  0.00     0.035 C 
BRANCH  19  20
HETATM   20  C   UNK N   1      30.111  26.041  -4.688  0.00  0.00    -0.030 C 
HETATM   21  C   UNK N   1      30.025  25.232  -3.633  0.00  0.00    -0.031 C 
BRANCH  21  22
HETATM   22  C   UNK N   1      30.830  23.980  -3.543  0.00  0.00     0.027 C 
BRANCH  22  23
HETATM   23  C   UNK N   1      30.004  22.791  -3.995  0.00  0.00     0.014 C 
BRANCH  23  24
HETATM   24  C   UNK N   1      30.635  22.164  -5.224  0.00  0.00     0.110 C 
BRANCH  24  25
HETATM   25  C   UNK N   1      30.975  20.742  -4.945  0.00  0.00     0.139 C 
HETATM   26  O   UNK N   1      31.059  19.947  -5.867  0.00  0.00    -0.650 OA
BRANCH  25  27
HETATM   27  O   UNK N   1      31.172  20.329  -3.680  0.00  0.00    -0.776 OA
HETATM   28  H   UNK N   1      31.939  20.103  -3.190  0.00  0.00     0.167 HD
ENDBRANCH  25  27
ENDBRANCH  24  25
ENDBRANCH  23  24
ENDBRANCH  22  23
ENDBRANCH  21  22
ENDBRANCH  19  20
ENDBRANCH   1  19
TORSDOF 15
ENDMDL
MODEL 8
REMARK VINA RESULT:      -5.4     11.030     14.090
REMARK  15 active torsions:
REMARK  status: ('A' for Active; 'I' for Inactive)
REMARK    1  A    between atoms: C_1  and  C_2 
REMARK    2  A    between atoms: C_1  and  O_22 
REMARK    3  A    between atoms: C_2  and  C_3 
REMARK    4  A    between atoms: C_3  and  C_4 
REMARK    5  A    between atoms: C_4  and  C_5 
REMARK    6  A    between atoms: C_6  and  C_7 
REMARK    7  A    between atoms: C_8  and  C_7 
REMARK    8  A    between atoms: C_12  and  C_13 
REMARK    9  A    between atoms: C_14  and  C_15 
REMARK   10  A    between atoms: C_15  and  C_16 
REMARK   11  A    between atoms: C_15  and  O_25 
REMARK   12  A    between atoms: C_16  and  C_17 
REMARK   13  A    between atoms: C_17  and  C_18 
REMARK   14  A    between atoms: C_18  and  C_19 
REMARK   15  A    between atoms: O_25  and  O_26 
ROOT
HETATM    1  C   UNK N   1      30.296  17.086   4.459  0.00  0.00     0.031 C 
HETATM    2  C   UNK N   1      30.532  16.390   3.103  0.00  0.00     0.168 C 
HETATM    3  C   UNK N   1      30.787  14.968   3.443  0.00  0.00     0.071 C 
HETATM    4  C   UNK N   1      29.450  14.909   4.104  0.00  0.00     0.171 C 
HETATM    5  C   UNK N   1      29.628  15.921   5.235  0.00  0.00     0.047 C 
HETATM    6  O   UNK N   1      29.295  16.311   2.439  0.00  0.00    -0.235 OA
HETATM    7  O   UNK N   1      28.571  15.430   3.137  0.00  0.00    -0.234 OA
ENDROOT
BRANCH   5   8
HETATM    8  C   UNK N   1      28.383  16.108   6.086  0.00  0.00    -0.020 C 
HETATM    9  C   UNK N   1      28.056  16.937   7.098  0.00  0.00     0.004 C 
BRANCH   9  10
HETATM   10  C   UNK N   1      28.825  18.071   7.734  0.00  0.00     0.182 C 
BRANCH  10  11
HETATM   11  C   UNK N   1      28.156  19.403   7.377  0.00  0.00     0.039 C 
BRANCH  11  12
HETATM   12  C   UNK N   1      27.246  19.326   6.158  0.00  0.00     0.003 C 
BRANCH  12  13
HETATM   13  C   UNK N   1      27.785  20.251   5.081  0.00  0.00    -0.000 C 
BRANCH  13  14
HETATM   14  C   UNK N   1      27.323  19.776   3.720  0.00  0.00    -0.005 C 
HETATM   15  C   UNK N   1      26.598  18.454   3.867  0.00  0.00     0.005 C 
ENDBRANCH  13  14
ENDBRANCH  12  13
ENDBRANCH  11  12
ENDBRANCH  10  11
BRANCH  10  16
HETATM   16  O   UNK N   1      28.760  17.949   9.133  0.00  0.00    -0.234 OA
BRANCH  16  17
HETATM   17  O   UNK N   1      27.483  17.994   9.460  0.00  0.00    -0.250 OA
HETATM   18  H   UNK N   1      27.030  17.278   9.931  0.00  0.00     0.253 HD
ENDBRANCH  16  17
ENDBRANCH  10  16
ENDBRANCH   9  10
ENDBRANCH   5   8
BRANCH   1  19
HETATM   19  C   UNK N   1      31.662  17.537   5.015  0.00  0.00     0.035 C 
BRANCH  19  20
HETATM   20  C   UNK N   1      32.097  16.842   6.259  0.00  0.00    -0.030 C 
HETATM   21  C   UNK N   1      32.376  17.589   7.326  0.00  0.00    -0.031 C 
BRANCH  21  22
HETATM   22  C   UNK N   1      32.850  16.980   8.602  0.00  0.00     0.027 C 
BRANCH  22  23
HETATM   23  C   UNK N   1      32.007  15.770   8.951  0.00  0.00     0.014 C 
BRANCH  23  24
HETATM   24  C   UNK N   1      32.873  14.525   8.961  0.00  0.00     0.110 C 
BRANCH  24  25
HETATM   25  C   UNK N   1      33.871  14.614  10.062  0.00  0.00     0.139 C 
HETATM   26  O   UNK N   1      35.057  14.457   9.819  0.00  0.00    -0.650 OA
BRANCH  25  27
HETATM   27  O   UNK N   1      33.468  14.849  11.324  0.00  0.00    -0.776 OA
HETATM   28  H   UNK N   1      32.941  14.366  11.930  0.00  0.00     0.167 HD
ENDBRANCH  25  27
ENDBRANCH  24  25
ENDBRANCH  23  24
ENDBRANCH  22  23
ENDBRANCH  21  22
ENDBRANCH  19  20
ENDBRANCH   1  19
TORSDOF 15
ENDMDL
MODEL 9
REMARK VINA RESULT:      -5.3      2.267      5.416
REMARK  15 active torsions:
REMARK  status: ('A' for Active; 'I' for Inactive)
REMARK    1  A    between atoms: C_1  and  C_2 
REMARK    2  A    between atoms: C_1  and  O_22 
REMARK    3  A    between atoms: C_2  and  C_3 
REMARK    4  A    between atoms: C_3  and  C_4 
REMARK    5  A    between atoms: C_4  and  C_5 
REMARK    6  A    between atoms: C_6  and  C_7 
REMARK    7  A    between atoms: C_8  and  C_7 
REMARK    8  A    between atoms: C_12  and  C_13 
REMARK    9  A    between atoms: C_14  and  C_15 
REMARK   10  A    between atoms: C_15  and  C_16 
REMARK   11  A    between atoms: C_15  and  O_25 
REMARK   12  A    between atoms: C_16  and  C_17 
REMARK   13  A    between atoms: C_17  and  C_18 
REMARK   14  A    between atoms: C_18  and  C_19 
REMARK   15  A    between atoms: O_25  and  O_26 
ROOT
HETATM    1  C   UNK N   1      26.248  26.149  -4.084  0.00  0.00     0.031 C 
HETATM    2  C   UNK N   1      26.359  27.181  -2.942  0.00  0.00     0.168 C 
HETATM    3  C   UNK N   1      27.583  27.962  -3.252  0.00  0.00     0.071 C 
HETATM    4  C   UNK N   1      26.982  28.344  -4.563  0.00  0.00     0.171 C 
HETATM    5  C   UNK N   1      26.854  26.981  -5.244  0.00  0.00     0.047 C 
HETATM    6  O   UNK N   1      25.349  28.141  -3.129  0.00  0.00    -0.235 OA
HETATM    7  O   UNK N   1      25.704  28.824  -4.223  0.00  0.00    -0.234 OA
ENDROOT
BRANCH   5   8
HETATM    8  C   UNK N   1      26.222  27.047  -6.624  0.00  0.00    -0.020 C 
HETATM    9  C   UNK N   1      26.545  26.531  -7.828  0.00  0.00     0.004 C 
BRANCH   9  10
HETATM   10  C   UNK N   1      27.668  25.607  -8.238  0.00  0.00     0.182 C 
BRANCH  10  11
HETATM   11  C   UNK N   1      27.093  24.229  -8.584  0.00  0.00     0.039 C 
BRANCH  11  12
HETATM   12  C   UNK N   1      25.678  24.006  -8.065  0.00  0.00     0.003 C 
BRANCH  12  13
HETATM   13  C   UNK N   1      25.694  22.858  -7.071  0.00  0.00    -0.000 C 
BRANCH  13  14
HETATM   14  C   UNK N   1      26.501  21.707  -7.630  0.00  0.00    -0.005 C 
HETATM   15  C   UNK N   1      25.567  20.692  -8.255  0.00  0.00     0.005 C 
ENDBRANCH  13  14
ENDBRANCH  12  13
ENDBRANCH  11  12
ENDBRANCH  10  11
BRANCH  10  16
HETATM   16  O   UNK N   1      28.270  26.099  -9.408  0.00  0.00    -0.234 OA
BRANCH  16  17
HETATM   17  O   UNK N   1      27.301  26.588 -10.158  0.00  0.00    -0.250 OA
HETATM   18  H   UNK N   1      27.238  27.525 -10.400  0.00  0.00     0.253 HD
ENDBRANCH  16  17
ENDBRANCH  10  16
ENDBRANCH   9  10
ENDBRANCH   5   8
BRANCH   1  19
HETATM   19  C   UNK N   1      27.060  24.900  -3.687  0.00  0.00     0.035 C 
BRANCH  19  20
HETATM   20  C   UNK N   1      28.262  24.637  -4.527  0.00  0.00    -0.030 C 
HETATM   21  C   UNK N   1      28.491  23.383  -4.913  0.00  0.00    -0.031 C 
BRANCH  21  22
HETATM   22  C   UNK N   1      29.688  23.023  -5.727  0.00  0.00     0.027 C 
BRANCH  22  23
HETATM   23  C   UNK N   1      30.614  22.125  -4.932  0.00  0.00     0.014 C 
BRANCH  23  24
HETATM   24  C   UNK N   1      31.477  22.964  -4.009  0.00  0.00     0.110 C 
BRANCH  24  25
HETATM   25  C   UNK N   1      31.391  22.437  -2.620  0.00  0.00     0.139 C 
HETATM   26  O   UNK N   1      30.641  22.966  -1.816  0.00  0.00    -0.650 OA
BRANCH  25  27
HETATM   27  O   UNK N   1      32.149  21.390  -2.245  0.00  0.00    -0.776 OA
HETATM   28  H   UNK N   1      31.959  20.487  -2.079  0.00  0.00     0.167 HD
ENDBRANCH  25  27
ENDBRANCH  24  25
ENDBRANCH  23  24
ENDBRANCH  22  23
ENDBRANCH  21  22
ENDBRANCH  19  20
ENDBRANCH   1  19
TORSDOF 15
ENDMDL
