MODEL 1
REMARK VINA RESULT:      -5.2      0.000      0.000
REMARK  5 active torsions:
REMARK  status: ('A' for Active; 'I' for Inactive)
REMARK    1  A    between atoms: C_2  and  N_1 
REMARK    2  A    between atoms: C_2  and  C_3 
REMARK    3  A    between atoms: C_2  and  C_11 
REMARK    4  A    between atoms: C_3  and  C_4 
REMARK    5  A    between atoms: C_11  and  O_13 
ROOT
HETATM    1  C   UNK N   1      36.404  13.489  15.012  0.00  0.00     0.177 C 
ENDROOT
BRANCH   1   2
HETATM    2  N   UNK N   1      37.264  14.559  15.502  0.00  0.00    -0.417 N 
HETATM    3  H   UNK N   1      37.259  15.505  15.120  0.00  0.00     0.150 HD
HETATM    4  H   UNK N   1      37.904  14.351  16.267  0.00  0.00     0.150 HD
ENDBRANCH   1   2
BRANCH   1   5
HETATM    5  C   UNK N   1      35.160  13.386  15.898  0.00  0.00     0.074 C 
BRANCH   5   6
HETATM    6  C   UNK N   1      35.399  12.528  17.101  0.00  0.00    -0.056 A 
HETATM    7  C   UNK N   1      35.188  13.063  18.377  0.00  0.00     0.008 A 
HETATM    8  C   UNK N   1      35.366  12.266  19.511  0.00  0.00     0.019 A 
HETATM    9  C   UNK N   1      35.752  10.929  19.372  0.00  0.00     0.006 A 
HETATM   10  C   UNK N   1      35.968  10.392  18.100  0.00  0.00     0.019 A 
HETATM   11  I   UNK N   1      35.993   9.720  21.076  0.00  0.00    -0.045 I 
HETATM   12  C   UNK N   1      35.796  11.190  16.966  0.00  0.00     0.008 A 
ENDBRANCH   5   6
ENDBRANCH   1   5
BRANCH   1  13
HETATM   13  C   UNK N   1      36.003  13.736  13.585  0.00  0.00     0.163 C 
HETATM   14  O   UNK N   1      34.859  13.530  13.210  0.00  0.00    -0.648 OA
BRANCH  13  15
HETATM   15  O   UNK N   1      36.909  14.219  12.713  0.00  0.00    -0.775 OA
HETATM   16  H   UNK N   1      37.612  13.704  12.367  0.00  0.00     0.167 HD
ENDBRANCH  13  15
ENDBRANCH   1  13
TORSDOF 5
ENDMDL
MODEL 2
REMARK VINA RESULT:      -5.2      6.053      7.588
REMARK  5 active torsions:
REMARK  status: ('A' for Active; 'I' for Inactive)
REMARK    1  A    between atoms: C_2  and  N_1 
REMARK    2  A    between atoms: C_2  and  C_3 
REMARK    3  A    between atoms: C_2  and  C_11 
REMARK    4  A    between atoms: C_3  and  C_4 
REMARK    5  A    between atoms: C_11  and  O_13 
ROOT
HETATM    1  C   UNK N   1      34.078  17.272   9.109  0.00  0.00     0.177 C 
ENDROOT
BRANCH   1   2
HETATM    2  N   UNK N   1      32.637  17.129   8.950  0.00  0.00    -0.417 N 
HETATM    3  H   UNK N   1      31.955  17.594   9.549  0.00  0.00     0.150 HD
HETATM    4  H   UNK N   1      32.291  16.532   8.200  0.00  0.00     0.150 HD
ENDBRANCH   1   2
BRANCH   1   5
HETATM    5  C   UNK N   1      34.752  15.913   8.907  0.00  0.00     0.074 C 
BRANCH   5   6
HETATM    6  C   UNK N   1      35.045  15.234  10.209  0.00  0.00    -0.056 A 
HETATM    7  C   UNK N   1      34.717  13.883  10.367  0.00  0.00     0.008 A 
HETATM    8  C   UNK N   1      35.019  13.221  11.560  0.00  0.00     0.019 A 
HETATM    9  C   UNK N   1      35.655  13.908  12.598  0.00  0.00     0.006 A 
HETATM   10  C   UNK N   1      35.980  15.259  12.447  0.00  0.00     0.019 A 
HETATM   11  I   UNK N   1      36.136  12.907  14.384  0.00  0.00    -0.045 I 
HETATM   12  C   UNK N   1      35.674  15.923  11.256  0.00  0.00     0.008 A 
ENDBRANCH   5   6
ENDBRANCH   1   5
BRANCH   1  13
HETATM   13  C   UNK N   1      34.628  18.271   8.130  0.00  0.00     0.163 C 
HETATM   14  O   UNK N   1      35.281  19.230   8.513  0.00  0.00    -0.648 OA
BRANCH  13  15
HETATM   15  O   UNK N   1      34.423  18.093   6.811  0.00  0.00    -0.775 OA
HETATM   16  H   UNK N   1      33.947  18.701   6.280  0.00  0.00     0.167 HD
ENDBRANCH  13  15
ENDBRANCH   1  13
TORSDOF 5
ENDMDL
MODEL 3
REMARK VINA RESULT:      -5.1     10.810     11.990
REMARK  5 active torsions:
REMARK  status: ('A' for Active; 'I' for Inactive)
REMARK    1  A    between atoms: C_2  and  N_1 
REMARK    2  A    between atoms: C_2  and  C_3 
REMARK    3  A    between atoms: C_2  and  C_11 
REMARK    4  A    between atoms: C_3  and  C_4 
REMARK    5  A    between atoms: C_11  and  O_13 
ROOT
HETATM    1  C   UNK N   1      33.179  17.304   8.362  0.00  0.00     0.177 C 
ENDROOT
BRANCH   1   2
HETATM    2  N   UNK N   1      33.679  16.727   9.603  0.00  0.00    -0.417 N 
HETATM    3  H   UNK N   1      33.541  17.154  10.519  0.00  0.00     0.150 HD
HETATM    4  H   UNK N   1      34.196  15.850   9.553  0.00  0.00     0.150 HD
ENDBRANCH   1   2
BRANCH   1   5
HETATM    5  C   UNK N   1      31.979  18.205   8.665  0.00  0.00     0.074 C 
BRANCH   5   6
HETATM    6  C   UNK N   1      30.728  17.712   8.006  0.00  0.00    -0.056 A 
HETATM    7  C   UNK N   1      30.827  16.882   6.883  0.00  0.00     0.008 A 
HETATM    8  C   UNK N   1      29.672  16.379   6.278  0.00  0.00     0.019 A 
HETATM    9  C   UNK N   1      28.414  16.701   6.797  0.00  0.00     0.006 A 
HETATM   10  C   UNK N   1      28.311  17.534   7.915  0.00  0.00     0.019 A 
HETATM   11  I   UNK N   1      26.675  15.923   5.906  0.00  0.00    -0.045 I 
HETATM   12  C   UNK N   1      29.465  18.041   8.517  0.00  0.00     0.008 A 
ENDBRANCH   5   6
ENDBRANCH   1   5
BRANCH   1  13
HETATM   13  C   UNK N   1      34.254  18.090   7.666  0.00  0.00     0.163 C 
HETATM   14  O   UNK N   1      34.501  17.905   6.484  0.00  0.00    -0.648 OA
BRANCH  13  15
HETATM   15  O   UNK N   1      34.934  19.033   8.345  0.00  0.00    -0.775 OA
HETATM   16  H   UNK N   1      35.455  19.690   7.927  0.00  0.00     0.167 HD
ENDBRANCH  13  15
ENDBRANCH   1  13
TORSDOF 5
ENDMDL
MODEL 4
REMARK VINA RESULT:      -4.9     14.779     15.963
REMARK  5 active torsions:
REMARK  status: ('A' for Active; 'I' for Inactive)
REMARK    1  A    between atoms: C_2  and  N_1 
REMARK    2  A    between atoms: C_2  and  C_3 
REMARK    3  A    between atoms: C_2  and  C_11 
REMARK    4  A    between atoms: C_3  and  C_4 
REMARK    5  A    between atoms: C_11  and  O_13 
ROOT
HETATM    1  C   UNK N   1      22.656  11.779  11.246  0.00  0.00     0.177 C 
ENDROOT
BRANCH   1   2
HETATM    2  N   UNK N   1      21.367  11.814  11.924  0.00  0.00    -0.417 N 
HETATM    3  H   UNK N   1      21.263  11.792  12.939  0.00  0.00     0.150 HD
HETATM    4  H   UNK N   1      20.523  11.862  11.354  0.00  0.00     0.150 HD
ENDBRANCH   1   2
BRANCH   1   5
HETATM    5  C   UNK N   1      22.661  12.798  10.105  0.00  0.00     0.074 C 
BRANCH   5   6
HETATM    6  C   UNK N   1      22.582  12.138   8.763  0.00  0.00    -0.056 A 
HETATM    7  C   UNK N   1      23.524  11.160   8.424  0.00  0.00     0.008 A 
HETATM    8  C   UNK N   1      23.443  10.503   7.194  0.00  0.00     0.019 A 
HETATM    9  C   UNK N   1      22.416  10.820   6.299  0.00  0.00     0.006 A 
HETATM   10  C   UNK N   1      21.477  11.801   6.631  0.00  0.00     0.019 A 
HETATM   11  I   UNK N   1      22.276   9.814   4.457  0.00  0.00    -0.045 I 
HETATM   12  C   UNK N   1      21.561  12.461   7.859  0.00  0.00     0.008 A 
ENDBRANCH   5   6
ENDBRANCH   1   5
BRANCH   1  13
HETATM   13  C   UNK N   1      23.774  12.072  12.207  0.00  0.00     0.163 C 
HETATM   14  O   UNK N   1      23.585  12.051  13.414  0.00  0.00    -0.648 OA
BRANCH  13  15
HETATM   15  O   UNK N   1      25.007  12.334  11.733  0.00  0.00    -0.775 OA
HETATM   16  H   UNK N   1      25.605  11.665  11.464  0.00  0.00     0.167 HD
ENDBRANCH  13  15
ENDBRANCH   1  13
TORSDOF 5
ENDMDL
MODEL 5
REMARK VINA RESULT:      -4.9     18.905     20.543
REMARK  5 active torsions:
REMARK  status: ('A' for Active; 'I' for Inactive)
REMARK    1  A    between atoms: C_2  and  N_1 
REMARK    2  A    between atoms: C_2  and  C_3 
REMARK    3  A    between atoms: C_2  and  C_11 
REMARK    4  A    between atoms: C_3  and  C_4 
REMARK    5  A    between atoms: C_11  and  O_13 
ROOT
HETATM    1  C   UNK N   1      20.702  19.183   2.063  0.00  0.00     0.177 C 
ENDROOT
BRANCH   1   2
HETATM    2  N   UNK N   1      20.369  20.021   0.919  0.00  0.00    -0.417 N 
HETATM    3  H   UNK N   1      20.670  19.820  -0.034  0.00  0.00     0.150 HD
HETATM    4  H   UNK N   1      19.804  20.855   1.080  0.00  0.00     0.150 HD
ENDBRANCH   1   2
BRANCH   1   5
HETATM    5  C   UNK N   1      21.307  20.047   3.172  0.00  0.00     0.074 C 
BRANCH   5   6
HETATM    6  C   UNK N   1      22.745  19.713   3.421  0.00  0.00    -0.056 A 
HETATM    7  C   UNK N   1      23.741  20.553   2.910  0.00  0.00     0.008 A 
HETATM    8  C   UNK N   1      25.088  20.281   3.166  0.00  0.00     0.019 A 
HETATM    9  C   UNK N   1      25.443  19.170   3.936  0.00  0.00     0.006 A 
HETATM   10  C   UNK N   1      24.451  18.325   4.444  0.00  0.00     0.019 A 
HETATM   11  I   UNK N   1      27.468  18.774   4.346  0.00  0.00    -0.045 I 
HETATM   12  C   UNK N   1      23.105  18.594   4.184  0.00  0.00     0.008 A 
ENDBRANCH   5   6
ENDBRANCH   1   5
BRANCH   1  13
HETATM   13  C   UNK N   1      19.484  18.465   2.573  0.00  0.00     0.163 C 
HETATM   14  O   UNK N   1      19.590  17.477   3.285  0.00  0.00    -0.648 OA
BRANCH  13  15
HETATM   15  O   UNK N   1      18.259  18.933   2.268  0.00  0.00    -0.775 OA
HETATM   16  H   UNK N   1      17.661  18.477   1.709  0.00  0.00     0.167 HD
ENDBRANCH  13  15
ENDBRANCH   1  13
TORSDOF 5
ENDMDL
MODEL 6
REMARK VINA RESULT:      -4.9      3.442      4.603
REMARK  5 active torsions:
REMARK  status: ('A' for Active; 'I' for Inactive)
REMARK    1  A    between atoms: C_2  and  N_1 
REMARK    2  A    between atoms: C_2  and  C_3 
REMARK    3  A    between atoms: C_2  and  C_11 
REMARK    4  A    between atoms: C_3  and  C_4 
REMARK    5  A    between atoms: C_11  and  O_13 
ROOT
HETATM    1  C   UNK N   1      34.569  15.250  11.348  0.00  0.00     0.177 C 
ENDROOT
BRANCH   1   2
HETATM    2  N   UNK N   1      33.307  14.958  10.681  0.00  0.00    -0.417 N 
HETATM    3  H   UNK N   1      32.850  14.046  10.713  0.00  0.00     0.150 HD
HETATM    4  H   UNK N   1      32.856  15.704  10.153  0.00  0.00     0.150 HD
ENDBRANCH   1   2
BRANCH   1   5
HETATM    5  C   UNK N   1      35.453  14.002  11.340  0.00  0.00     0.074 C 
BRANCH   5   6
HETATM    6  C   UNK N   1      35.478  13.325  12.676  0.00  0.00    -0.056 A 
HETATM    7  C   UNK N   1      36.121  13.952  13.750  0.00  0.00     0.008 A 
HETATM    8  C   UNK N   1      36.120  13.357  15.014  0.00  0.00     0.019 A 
HETATM    9  C   UNK N   1      35.473  12.133  15.209  0.00  0.00     0.006 A 
HETATM   10  C   UNK N   1      34.835  11.500  14.139  0.00  0.00     0.019 A 
HETATM   11  I   UNK N   1      35.448  11.247  17.117  0.00  0.00    -0.045 I 
HETATM   12  C   UNK N   1      34.840  12.093  12.873  0.00  0.00     0.008 A 
ENDBRANCH   5   6
ENDBRANCH   1   5
BRANCH   1  13
HETATM   13  C   UNK N   1      35.279  16.390  10.672  0.00  0.00     0.163 C 
HETATM   14  O   UNK N   1      36.497  16.479  10.708  0.00  0.00    -0.648 OA
BRANCH  13  15
HETATM   15  O   UNK N   1      34.567  17.309   9.993  0.00  0.00    -0.775 OA
HETATM   16  H   UNK N   1      33.830  17.092   9.456  0.00  0.00     0.167 HD
ENDBRANCH  13  15
ENDBRANCH   1  13
TORSDOF 5
ENDMDL
MODEL 7
REMARK VINA RESULT:      -4.9     22.880     24.894
REMARK  5 active torsions:
REMARK  status: ('A' for Active; 'I' for Inactive)
REMARK    1  A    between atoms: C_2  and  N_1 
REMARK    2  A    between atoms: C_2  and  C_3 
REMARK    3  A    between atoms: C_2  and  C_11 
REMARK    4  A    between atoms: C_3  and  C_4 
REMARK    5  A    between atoms: C_11  and  O_13 
ROOT
HETATM    1  C   UNK N   1      30.914  23.117  -3.833  0.00  0.00     0.177 C 
ENDROOT
BRANCH   1   2
HETATM    2  N   UNK N   1      31.783  22.464  -4.803  0.00  0.00    -0.417 N 
HETATM    3  H   UNK N   1      31.991  21.466  -4.791  0.00  0.00     0.150 HD
HETATM    4  H   UNK N   1      32.208  23.037  -5.532  0.00  0.00     0.150 HD
ENDBRANCH   1   2
BRANCH   1   5
HETATM    5  C   UNK N   1      29.454  22.943  -4.256  0.00  0.00     0.074 C 
BRANCH   5   6
HETATM    6  C   UNK N   1      28.679  24.218  -4.134  0.00  0.00    -0.056 A 
HETATM    7  C   UNK N   1      29.325  25.438  -4.366  0.00  0.00     0.008 A 
HETATM    8  C   UNK N   1      28.610  26.636  -4.297  0.00  0.00     0.019 A 
HETATM    9  C   UNK N   1      27.244  26.619  -3.998  0.00  0.00     0.006 A 
HETATM   10  C   UNK N   1      26.596  25.404  -3.760  0.00  0.00     0.019 A 
HETATM   11  I   UNK N   1      26.160  28.419  -3.920  0.00  0.00    -0.045 I 
HETATM   12  C   UNK N   1      27.312  24.205  -3.824  0.00  0.00     0.008 A 
ENDBRANCH   5   6
ENDBRANCH   1   5
BRANCH   1  13
HETATM   13  C   UNK N   1      31.125  22.549  -2.458  0.00  0.00     0.163 C 
HETATM   14  O   UNK N   1      30.512  22.989  -1.496  0.00  0.00    -0.648 OA
BRANCH  13  15
HETATM   15  O   UNK N   1      31.979  21.522  -2.286  0.00  0.00    -0.775 OA
HETATM   16  H   UNK N   1      32.670  21.324  -2.887  0.00  0.00     0.167 HD
ENDBRANCH  13  15
ENDBRANCH   1  13
TORSDOF 5
ENDMDL
MODEL 8
REMARK VINA RESULT:      -4.8     27.530     28.363
REMARK  5 active torsions:
REMARK  status: ('A' for Active; 'I' for Inactive)
REMARK    1  A    between atoms: C_2  and  N_1 
REMARK    2  A    between atoms: C_2  and  C_3 
REMARK    3  A    between atoms: C_2  and  C_11 
REMARK    4  A    between atoms: C_3  and  C_4 
REMARK    5  A    between atoms: C_11  and  O_13 
ROOT
HETATM    1  C   UNK N   1      26.212  27.882  -4.169  0.00  0.00     0.177 C 
ENDROOT
BRANCH   1   2
HETATM    2  N   UNK N   1      25.776  27.683  -2.793  0.00  0.00    -0.417 N 
HETATM    3  H   UNK N   1      26.294  27.130  -2.111  0.00  0.00     0.150 HD
HETATM    4  H   UNK N   1      24.904  28.121  -2.496  0.00  0.00     0.150 HD
ENDBRANCH   1   2
BRANCH   1   5
HETATM    5  C   UNK N   1      25.103  27.441  -5.126  0.00  0.00     0.074 C 
BRANCH   5   6
HETATM    6  C   UNK N   1      25.464  26.188  -5.862  0.00  0.00    -0.056 A 
HETATM    7  C   UNK N   1      25.568  24.985  -5.155  0.00  0.00     0.008 A 
HETATM    8  C   UNK N   1      25.864  23.797  -5.829  0.00  0.00     0.019 A 
HETATM    9  C   UNK N   1      26.052  23.808  -7.215  0.00  0.00     0.006 A 
HETATM   10  C   UNK N   1      25.954  25.009  -7.924  0.00  0.00     0.019 A 
HETATM   11  I   UNK N   1      26.470  22.018  -8.236  0.00  0.00    -0.045 I 
HETATM   12  C   UNK N   1      25.664  26.197  -7.249  0.00  0.00     0.008 A 
ENDBRANCH   5   6
ENDBRANCH   1   5
BRANCH   1  13
HETATM   13  C   UNK N   1      26.565  29.322  -4.415  0.00  0.00     0.163 C 
HETATM   14  O   UNK N   1      27.310  29.638  -5.331  0.00  0.00    -0.648 OA
BRANCH  13  15
HETATM   15  O   UNK N   1      26.032  30.281  -3.635  0.00  0.00    -0.775 OA
HETATM   16  H   UNK N   1      26.413  30.553  -2.823  0.00  0.00     0.167 HD
ENDBRANCH  13  15
ENDBRANCH   1  13
TORSDOF 5
ENDMDL
MODEL 9
REMARK VINA RESULT:      -4.8      1.726      2.655
REMARK  5 active torsions:
REMARK  status: ('A' for Active; 'I' for Inactive)
REMARK    1  A    between atoms: C_2  and  N_1 
REMARK    2  A    between atoms: C_2  and  C_3 
REMARK    3  A    between atoms: C_2  and  C_11 
REMARK    4  A    between atoms: C_3  and  C_4 
REMARK    5  A    between atoms: C_11  and  O_13 
ROOT
HETATM    1  C   UNK N   1      36.321  13.079  12.757  0.00  0.00     0.177 C 
ENDROOT
BRANCH   1   2
HETATM    2  N   UNK N   1      37.470  13.445  11.939  0.00  0.00    -0.417 N 
HETATM    3  H   UNK N   1      37.391  13.841  11.002  0.00  0.00     0.150 HD
HETATM    4  H   UNK N   1      38.402  13.296  12.324  0.00  0.00     0.150 HD
ENDBRANCH   1   2
BRANCH   1   5
HETATM    5  C   UNK N   1      36.382  13.828  14.090  0.00  0.00     0.074 C 
BRANCH   5   6
HETATM    6  C   UNK N   1      36.109  12.926  15.253  0.00  0.00    -0.056 A 
HETATM    7  C   UNK N   1      36.635  11.630  15.253  0.00  0.00     0.008 A 
HETATM    8  C   UNK N   1      36.425  10.786  16.348  0.00  0.00     0.019 A 
HETATM    9  C   UNK N   1      35.690  11.239  17.448  0.00  0.00     0.006 A 
HETATM   10  C   UNK N   1      35.157  12.531  17.449  0.00  0.00     0.019 A 
HETATM   11  I   UNK N   1      35.396   9.981  19.107  0.00  0.00    -0.045 I 
HETATM   12  C   UNK N   1      35.363  13.373  16.353  0.00  0.00     0.008 A 
ENDBRANCH   5   6
ENDBRANCH   1   5
BRANCH   1  13
HETATM   13  C   UNK N   1      35.035  13.395  12.046  0.00  0.00     0.163 C 
HETATM   14  O   UNK N   1      34.558  14.520  12.082  0.00  0.00    -0.648 OA
BRANCH  13  15
HETATM   15  O   UNK N   1      34.415  12.435  11.334  0.00  0.00    -0.775 OA
HETATM   16  H   UNK N   1      33.927  11.739  11.729  0.00  0.00     0.167 HD
ENDBRANCH  13  15
ENDBRANCH   1  13
TORSDOF 5
ENDMDL
