REMARK  5 active torsions:
REMARK  status: ('A' for Active; 'I' for Inactive)
REMARK    1  A    between atoms: C_1  and  C_18 
REMARK    2  A    between atoms: C_7  and  C_11 
REMARK    3  A    between atoms: C_8  and  N_27 
REMARK    4  A    between atoms: C_11  and  C_12 
REMARK    5  A    between atoms: C_18  and  C_19 
ROOT
HETATM    1  C   UNK N   1       2.382   1.375  -0.187  0.00  0.00     0.031 A 
HETATM    2  C   UNK N   1       1.148   0.789   0.080  0.00  0.00     0.114 A 
HETATM    3  N   UNK N   1       0.030   1.542   0.079  0.00  0.00    -0.300 N 
HETATM    4  C   UNK N   1       0.040   2.864  -0.136  0.00  0.00     0.113 A 
HETATM    5  C   UNK N   1       1.238   3.542  -0.365  0.00  0.00     0.050 A 
HETATM    6  C   UNK N   1       2.425   2.779  -0.386  0.00  0.00     0.021 A 
HETATM    7  C   UNK N   1      -1.254   1.164   0.225  0.00  0.00     0.135 A 
HETATM    8  C   UNK N   1      -2.014   2.333   0.095  0.00  0.00     0.132 A 
HETATM    9  N   UNK N   1      -1.197   3.395  -0.126  0.00  0.00    -0.327 N 
ATOM     10  HN  UNK N   1      -1.461   4.372  -0.254  1.00  0.00     0.169 HD
ENDROOT
BRANCH   1  11
HETATM   11  C   UNK N   1       3.624   0.548  -0.209  0.00  0.00     0.199 C 
HETATM   12  O   UNK N   1       4.695   1.137  -0.195  0.00  0.00    -0.286 OA
BRANCH  11  13
HETATM   13  C   UNK N   1       3.633  -0.970  -0.178  0.00  0.00     0.092 A 
HETATM   14  C   UNK N   1       4.766  -1.635   0.355  0.00  0.00     0.133 A 
HETATM   15  C   UNK N   1       4.809  -3.030   0.425  0.00  0.00     0.043 A 
HETATM   16  F   UNK N   1       5.824  -0.936   0.835  0.00  0.00    -0.205 F 
HETATM   17  C   UNK N   1       3.746  -3.795  -0.042  0.00  0.00     0.006 A 
HETATM   18  C   UNK N   1       2.641  -3.171  -0.606  0.00  0.00     0.043 A 
HETATM   19  C   UNK N   1       2.570  -1.778  -0.683  0.00  0.00     0.133 A 
HETATM   20  F   UNK N   1       1.500  -1.260  -1.326  0.00  0.00    -0.205 F 
ENDBRANCH  11  13
ENDBRANCH   1  11
BRANCH   7  21
HETATM   21  C   UNK N   1      -1.625  -0.284   0.438  0.00  0.00     0.213 C 
HETATM   22  O   UNK N   1      -0.720  -1.054   0.730  0.00  0.00    -0.285 OA
BRANCH  21  23
HETATM   23  C   UNK N   1      -2.971  -0.891   0.238  0.00  0.00     0.016 A 
HETATM   24  C   UNK N   1      -3.086  -2.291   0.323  0.00  0.00     0.015 A 
HETATM   25  C   UNK N   1      -4.305  -2.927   0.082  0.00  0.00     0.001 A 
HETATM   26  C   UNK N   1      -5.429  -2.170  -0.243  0.00  0.00     0.000 A 
HETATM   27  C   UNK N   1      -5.330  -0.779  -0.329  0.00  0.00     0.001 A 
HETATM   28  C   UNK N   1      -4.104  -0.147  -0.100  0.00  0.00     0.015 A 
ENDBRANCH  21  23
ENDBRANCH   7  21
BRANCH   8  29
HETATM   29  N   UNK N   1      -3.412   2.464   0.188  0.00  0.00    -0.383 N 
HETATM   30  H   UNK N   1      -3.822   3.357   0.253  0.00  0.00     0.157 HD
HETATM   31  H   UNK N   1      -3.981   1.661   0.188  0.00  0.00     0.157 HD
ENDBRANCH   8  29
TORSDOF 5
