MODEL 1
REMARK VINA RESULT:      -8.6      0.000      0.000
REMARK  5 active torsions:
REMARK  status: ('A' for Active; 'I' for Inactive)
REMARK    1  A    between atoms: C_1  and  C_18 
REMARK    2  A    between atoms: C_7  and  C_11 
REMARK    3  A    between atoms: C_8  and  N_27 
REMARK    4  A    between atoms: C_11  and  C_12 
REMARK    5  A    between atoms: C_18  and  C_19 
ROOT
HETATM    1  C   UNK N   1      20.360  16.093   6.419  0.00  0.00     0.031 A 
HETATM    2  C   UNK N   1      20.822  17.102   5.579  0.00  0.00     0.114 A 
HETATM    3  N   UNK N   1      20.483  17.101   4.274  0.00  0.00    -0.300 N 
HETATM    4  C   UNK N   1      19.735  16.141   3.715  0.00  0.00     0.113 A 
HETATM    5  C   UNK N   1      19.268  15.066   4.472  0.00  0.00     0.050 A 
HETATM    6  C   UNK N   1      19.593  15.047   5.845  0.00  0.00     0.021 A 
HETATM    7  C   UNK N   1      20.748  18.017   3.323  0.00  0.00     0.135 A 
HETATM    8  C   UNK N   1      20.125  17.549   2.159  0.00  0.00     0.132 A 
HETATM    9  N   UNK N   1      19.497  16.372   2.410  0.00  0.00    -0.327 N 
ATOM     10  HN  UNK N   1      18.967  15.793   1.758  1.00  0.00     0.169 HD
ENDROOT
BRANCH   1  11
HETATM   11  C   UNK N   1      20.711  16.095   7.869  0.00  0.00     0.199 C 
HETATM   12  O   UNK N   1      20.610  17.153   8.474  0.00  0.00    -0.286 OA
BRANCH  11  13
HETATM   13  C   UNK N   1      21.116  14.855   8.646  0.00  0.00     0.092 A 
HETATM   14  C   UNK N   1      22.352  14.232   8.340  0.00  0.00     0.133 A 
HETATM   15  C   UNK N   1      22.777  13.102   9.044  0.00  0.00     0.043 A 
HETATM   16  F   UNK N   1      23.166  14.731   7.378  0.00  0.00    -0.205 F 
HETATM   17  C   UNK N   1      21.986  12.556  10.049  0.00  0.00     0.006 A 
HETATM   18  C   UNK N   1      20.752  13.122  10.342  0.00  0.00     0.043 A 
HETATM   19  C   UNK N   1      20.306  14.255   9.657  0.00  0.00     0.133 A 
HETATM   20  F   UNK N   1      19.058  14.685   9.945  0.00  0.00    -0.205 F 
ENDBRANCH  11  13
ENDBRANCH   1  11
BRANCH   7  21
HETATM   21  C   UNK N   1      21.539  19.264   3.635  0.00  0.00     0.213 C 
HETATM   22  O   UNK N   1      20.904  20.280   3.882  0.00  0.00    -0.285 OA
BRANCH  21  23
HETATM   23  C   UNK N   1      23.021  19.408   3.581  0.00  0.00     0.016 A 
HETATM   24  C   UNK N   1      23.556  20.505   2.880  0.00  0.00     0.015 A 
HETATM   25  C   UNK N   1      24.936  20.662   2.737  0.00  0.00     0.001 A 
HETATM   26  C   UNK N   1      25.802  19.725   3.298  0.00  0.00     0.000 A 
HETATM   27  C   UNK N   1      25.285  18.632   3.999  0.00  0.00     0.001 A 
HETATM   28  C   UNK N   1      23.902  18.472   4.128  0.00  0.00     0.015 A 
ENDBRANCH  21  23
ENDBRANCH   7  21
BRANCH   8  29
HETATM   29  N   UNK N   1      20.127  18.146   0.885  0.00  0.00    -0.383 N 
HETATM   30  H   UNK N   1      19.588  18.953   0.716  0.00  0.00     0.157 HD
HETATM   31  H   UNK N   1      20.667  17.756   0.161  0.00  0.00     0.157 HD
ENDBRANCH   8  29
TORSDOF 5
ENDMDL
MODEL 2
REMARK VINA RESULT:      -8.3     14.168     17.129
REMARK  5 active torsions:
REMARK  status: ('A' for Active; 'I' for Inactive)
REMARK    1  A    between atoms: C_1  and  C_18 
REMARK    2  A    between atoms: C_7  and  C_11 
REMARK    3  A    between atoms: C_8  and  N_27 
REMARK    4  A    between atoms: C_11  and  C_12 
REMARK    5  A    between atoms: C_18  and  C_19 
ROOT
HETATM    1  C   UNK N   1      36.058  15.199  10.561  0.00  0.00     0.031 A 
HETATM    2  C   UNK N   1      35.821  14.516  11.751  0.00  0.00     0.114 A 
HETATM    3  N   UNK N   1      36.482  13.371  12.013  0.00  0.00    -0.300 N 
HETATM    4  C   UNK N   1      37.353  12.818  11.158  0.00  0.00     0.113 A 
HETATM    5  C   UNK N   1      37.615  13.410   9.922  0.00  0.00     0.050 A 
HETATM    6  C   UNK N   1      36.950  14.619   9.624  0.00  0.00     0.021 A 
HETATM    7  C   UNK N   1      36.466  12.612  13.125  0.00  0.00     0.135 A 
HETATM    8  C   UNK N   1      37.368  11.567  12.887  0.00  0.00     0.132 A 
HETATM    9  N   UNK N   1      37.916  11.699  11.652  0.00  0.00    -0.327 N 
ATOM     10  HN  UNK N   1      38.598  11.089  11.201  1.00  0.00     0.169 HD
ENDROOT
BRANCH   1  11
HETATM   11  C   UNK N   1      35.347  16.479  10.269  0.00  0.00     0.199 C 
HETATM   12  O   UNK N   1      35.719  17.480  10.863  0.00  0.00    -0.286 OA
BRANCH  11  13
HETATM   13  C   UNK N   1      34.244  16.619   9.234  0.00  0.00     0.092 A 
HETATM   14  C   UNK N   1      34.260  17.742   8.369  0.00  0.00     0.133 A 
HETATM   15  C   UNK N   1      33.279  17.901   7.386  0.00  0.00     0.043 A 
HETATM   16  F   UNK N   1      35.240  18.675   8.453  0.00  0.00    -0.205 F 
HETATM   17  C   UNK N   1      32.258  16.968   7.249  0.00  0.00     0.006 A 
HETATM   18  C   UNK N   1      32.195  15.880   8.109  0.00  0.00     0.043 A 
HETATM   19  C   UNK N   1      33.166  15.694   9.096  0.00  0.00     0.133 A 
HETATM   20  F   UNK N   1      32.978  14.659   9.945  0.00  0.00    -0.205 F 
ENDBRANCH  11  13
ENDBRANCH   1  11
BRANCH   7  21
HETATM   21  C   UNK N   1      35.616  12.984  14.316  0.00  0.00     0.213 C 
HETATM   22  O   UNK N   1      34.443  12.634  14.295  0.00  0.00    -0.285 OA
BRANCH  21  23
HETATM   23  C   UNK N   1      36.037  13.817  15.477  0.00  0.00     0.016 A 
HETATM   24  C   UNK N   1      35.371  13.630  16.703  0.00  0.00     0.015 A 
HETATM   25  C   UNK N   1      35.672  14.422  17.812  0.00  0.00     0.001 A 
HETATM   26  C   UNK N   1      36.649  15.411  17.712  0.00  0.00     0.000 A 
HETATM   27  C   UNK N   1      37.320  15.606  16.502  0.00  0.00     0.001 A 
HETATM   28  C   UNK N   1      37.005  14.820  15.390  0.00  0.00     0.015 A 
ENDBRANCH  21  23
ENDBRANCH   7  21
BRANCH   8  29
HETATM   29  N   UNK N   1      37.690  10.498  13.744  0.00  0.00    -0.383 N 
HETATM   30  H   UNK N   1      37.642  10.615  14.721  0.00  0.00     0.157 HD
HETATM   31  H   UNK N   1      37.964   9.632  13.366  0.00  0.00     0.157 HD
ENDBRANCH   8  29
TORSDOF 5
ENDMDL
MODEL 3
REMARK VINA RESULT:      -7.9      7.979     10.578
REMARK  5 active torsions:
REMARK  status: ('A' for Active; 'I' for Inactive)
REMARK    1  A    between atoms: C_1  and  C_18 
REMARK    2  A    between atoms: C_7  and  C_11 
REMARK    3  A    between atoms: C_8  and  N_27 
REMARK    4  A    between atoms: C_11  and  C_12 
REMARK    5  A    between atoms: C_18  and  C_19 
ROOT
HETATM    1  C   UNK N   1      32.059  16.618   5.041  0.00  0.00     0.031 A 
HETATM    2  C   UNK N   1      30.872  16.927   5.698  0.00  0.00     0.114 A 
HETATM    3  N   UNK N   1      30.900  17.342   6.981  0.00  0.00    -0.300 N 
HETATM    4  C   UNK N   1      32.032  17.445   7.690  0.00  0.00     0.113 A 
HETATM    5  C   UNK N   1      33.263  17.110   7.125  0.00  0.00     0.050 A 
HETATM    6  C   UNK N   1      33.269  16.687   5.779  0.00  0.00     0.021 A 
HETATM    7  C   UNK N   1      29.890  17.767   7.763  0.00  0.00     0.135 A 
HETATM    8  C   UNK N   1      30.476  18.123   8.984  0.00  0.00     0.132 A 
HETATM    9  N   UNK N   1      31.817  17.914   8.933  0.00  0.00    -0.327 N 
ATOM     10  HN  UNK N   1      32.504  18.075   9.670  1.00  0.00     0.169 HD
ENDROOT
BRANCH   1  11
HETATM   11  C   UNK N   1      32.042  16.177   3.615  0.00  0.00     0.199 C 
HETATM   12  O   UNK N   1      32.924  16.602   2.882  0.00  0.00    -0.286 OA
BRANCH  11  13
HETATM   13  C   UNK N   1      31.043  15.187   3.045  0.00  0.00     0.092 A 
HETATM   14  C   UNK N   1      31.440  13.836   2.877  0.00  0.00     0.133 A 
HETATM   15  C   UNK N   1      30.547  12.885   2.378  0.00  0.00     0.043 A 
HETATM   16  F   UNK N   1      32.686  13.427   3.221  0.00  0.00    -0.205 F 
HETATM   17  C   UNK N   1      29.253  13.248   2.021  0.00  0.00     0.006 A 
HETATM   18  C   UNK N   1      28.850  14.572   2.137  0.00  0.00     0.043 A 
HETATM   19  C   UNK N   1      29.721  15.541   2.639  0.00  0.00     0.133 A 
HETATM   20  F   UNK N   1      29.275  16.817   2.634  0.00  0.00    -0.205 F 
ENDBRANCH  11  13
ENDBRANCH   1  11
BRANCH   7  21
HETATM   21  C   UNK N   1      28.472  17.824   7.248  0.00  0.00     0.213 C 
HETATM   22  O   UNK N   1      27.724  16.911   7.573  0.00  0.00    -0.285 OA
BRANCH  21  23
HETATM   23  C   UNK N   1      27.912  18.834   6.307  0.00  0.00     0.016 A 
HETATM   24  C   UNK N   1      27.528  20.084   6.827  0.00  0.00     0.015 A 
HETATM   25  C   UNK N   1      26.937  21.050   6.011  0.00  0.00     0.001 A 
HETATM   26  C   UNK N   1      26.726  20.782   4.660  0.00  0.00     0.000 A 
HETATM   27  C   UNK N   1      27.105  19.546   4.129  0.00  0.00     0.001 A 
HETATM   28  C   UNK N   1      27.684  18.576   4.953  0.00  0.00     0.015 A 
ENDBRANCH  21  23
ENDBRANCH   7  21
BRANCH   8  29
HETATM   29  N   UNK N   1      29.832  18.610  10.136  0.00  0.00    -0.383 N 
HETATM   30  H   UNK N   1      28.848  18.628  10.183  0.00  0.00     0.157 HD
HETATM   31  H   UNK N   1      30.366  18.934  10.897  0.00  0.00     0.157 HD
ENDBRANCH   8  29
TORSDOF 5
ENDMDL
MODEL 4
REMARK VINA RESULT:      -7.8      2.955      4.351
REMARK  5 active torsions:
REMARK  status: ('A' for Active; 'I' for Inactive)
REMARK    1  A    between atoms: C_1  and  C_18 
REMARK    2  A    between atoms: C_7  and  C_11 
REMARK    3  A    between atoms: C_8  and  N_27 
REMARK    4  A    between atoms: C_11  and  C_12 
REMARK    5  A    between atoms: C_18  and  C_19 
ROOT
HETATM    1  C   UNK N   1      21.502  14.533   7.729  0.00  0.00     0.031 A 
HETATM    2  C   UNK N   1      22.200  14.893   6.580  0.00  0.00     0.114 A 
HETATM    3  N   UNK N   1      22.117  16.153   6.108  0.00  0.00    -0.300 N 
HETATM    4  C   UNK N   1      21.355  17.097   6.676  0.00  0.00     0.113 A 
HETATM    5  C   UNK N   1      20.585  16.811   7.804  0.00  0.00     0.050 A 
HETATM    6  C   UNK N   1      20.662  15.505   8.332  0.00  0.00     0.021 A 
HETATM    7  C   UNK N   1      22.770  16.723   5.078  0.00  0.00     0.135 A 
HETATM    8  C   UNK N   1      22.351  18.059   5.052  0.00  0.00     0.132 A 
HETATM    9  N   UNK N   1      21.461  18.286   6.053  0.00  0.00    -0.327 N 
ATOM     10  HN  UNK N   1      20.982  19.157   6.279  1.00  0.00     0.169 HD
ENDROOT
BRANCH   1  11
HETATM   11  C   UNK N   1      21.601  13.147   8.273  0.00  0.00     0.199 C 
HETATM   12  O   UNK N   1      20.976  12.268   7.697  0.00  0.00    -0.286 OA
BRANCH  11  13
HETATM   13  C   UNK N   1      22.482  12.757   9.447  0.00  0.00     0.092 A 
HETATM   14  C   UNK N   1      21.869  12.453  10.688  0.00  0.00     0.133 A 
HETATM   15  C   UNK N   1      22.637  12.068  11.790  0.00  0.00     0.043 A 
HETATM   16  F   UNK N   1      20.521  12.502  10.832  0.00  0.00    -0.205 F 
HETATM   17  C   UNK N   1      24.022  11.989  11.694  0.00  0.00     0.006 A 
HETATM   18  C   UNK N   1      24.652  12.321  10.501  0.00  0.00     0.043 A 
HETATM   19  C   UNK N   1      23.907  12.704   9.383  0.00  0.00     0.133 A 
HETATM   20  F   UNK N   1      24.606  13.093   8.294  0.00  0.00    -0.205 F 
ENDBRANCH  11  13
ENDBRANCH   1  11
BRANCH   7  21
HETATM   21  C   UNK N   1      23.756  15.940   4.245  0.00  0.00     0.213 C 
HETATM   22  O   UNK N   1      24.929  15.976   4.590  0.00  0.00    -0.285 OA
BRANCH  21  23
HETATM   23  C   UNK N   1      23.459  15.198   2.987  0.00  0.00     0.016 A 
HETATM   24  C   UNK N   1      24.542  14.692   2.245  0.00  0.00     0.015 A 
HETATM   25  C   UNK N   1      24.336  14.045   1.025  0.00  0.00     0.001 A 
HETATM   26  C   UNK N   1      23.041  13.890   0.533  0.00  0.00     0.000 A 
HETATM   27  C   UNK N   1      21.956  14.386   1.261  0.00  0.00     0.001 A 
HETATM   28  C   UNK N   1      22.168  15.045   2.475  0.00  0.00     0.015 A 
ENDBRANCH  21  23
ENDBRANCH   7  21
BRANCH   8  29
HETATM   29  N   UNK N   1      22.737  19.064   4.145  0.00  0.00    -0.383 N 
HETATM   30  H   UNK N   1      23.495  19.655   4.355  0.00  0.00     0.157 HD
HETATM   31  H   UNK N   1      22.247  19.175   3.299  0.00  0.00     0.157 HD
ENDBRANCH   8  29
TORSDOF 5
ENDMDL
MODEL 5
REMARK VINA RESULT:      -7.8      7.866     10.828
REMARK  5 active torsions:
REMARK  status: ('A' for Active; 'I' for Inactive)
REMARK    1  A    between atoms: C_1  and  C_18 
REMARK    2  A    between atoms: C_7  and  C_11 
REMARK    3  A    between atoms: C_8  and  N_27 
REMARK    4  A    between atoms: C_11  and  C_12 
REMARK    5  A    between atoms: C_18  and  C_19 
ROOT
HETATM    1  C   UNK N   1      29.148  17.370   5.644  0.00  0.00     0.031 A 
HETATM    2  C   UNK N   1      30.537  17.321   5.731  0.00  0.00     0.114 A 
HETATM    3  N   UNK N   1      31.133  17.218   6.935  0.00  0.00    -0.300 N 
HETATM    4  C   UNK N   1      30.452  17.196   8.088  0.00  0.00     0.113 A 
HETATM    5  C   UNK N   1      29.060  17.289   8.098  0.00  0.00     0.050 A 
HETATM    6  C   UNK N   1      28.404  17.381   6.852  0.00  0.00     0.021 A 
HETATM    7  C   UNK N   1      32.439  17.071   7.231  0.00  0.00     0.135 A 
HETATM    8  C   UNK N   1      32.505  16.967   8.626  0.00  0.00     0.132 A 
HETATM    9  N   UNK N   1      31.258  17.051   9.157  0.00  0.00    -0.327 N 
ATOM     10  HN  UNK N   1      30.992  17.015  10.141  1.00  0.00     0.169 HD
ENDROOT
BRANCH   1  11
HETATM   11  C   UNK N   1      28.476  17.463   4.315  0.00  0.00     0.199 C 
HETATM   12  O   UNK N   1      28.898  16.749   3.417  0.00  0.00    -0.286 OA
BRANCH  11  13
HETATM   13  C   UNK N   1      27.264  18.334   4.036  0.00  0.00     0.092 A 
HETATM   14  C   UNK N   1      27.405  19.743   4.110  0.00  0.00     0.133 A 
HETATM   15  C   UNK N   1      26.323  20.585   3.840  0.00  0.00     0.043 A 
HETATM   16  F   UNK N   1      28.597  20.310   4.419  0.00  0.00    -0.205 F 
HETATM   17  C   UNK N   1      25.081  20.056   3.507  0.00  0.00     0.006 A 
HETATM   18  C   UNK N   1      24.905  18.680   3.466  0.00  0.00     0.043 A 
HETATM   19  C   UNK N   1      25.971  17.815   3.727  0.00  0.00     0.133 A 
HETATM   20  F   UNK N   1      25.688  16.494   3.753  0.00  0.00    -0.205 F 
ENDBRANCH  11  13
ENDBRANCH   1  11
BRANCH   7  21
HETATM   21  C   UNK N   1      33.486  17.007   6.146  0.00  0.00     0.213 C 
HETATM   22  O   UNK N   1      34.191  17.995   5.993  0.00  0.00    -0.285 OA
BRANCH  21  23
HETATM   23  C   UNK N   1      33.689  15.894   5.176  0.00  0.00     0.016 A 
HETATM   24  C   UNK N   1      33.414  16.139   3.818  0.00  0.00     0.015 A 
HETATM   25  C   UNK N   1      33.521  15.121   2.869  0.00  0.00     0.001 A 
HETATM   26  C   UNK N   1      33.911  13.843   3.265  0.00  0.00     0.000 A 
HETATM   27  C   UNK N   1      34.189  13.586   4.609  0.00  0.00     0.001 A 
HETATM   28  C   UNK N   1      34.068  14.605   5.559  0.00  0.00     0.015 A 
ENDBRANCH  21  23
ENDBRANCH   7  21
BRANCH   8  29
HETATM   29  N   UNK N   1      33.655  16.818   9.423  0.00  0.00    -0.383 N 
HETATM   30  H   UNK N   1      34.299  16.097   9.233  0.00  0.00     0.157 HD
HETATM   31  H   UNK N   1      33.816  17.435  10.173  0.00  0.00     0.157 HD
ENDBRANCH   8  29
TORSDOF 5
ENDMDL
MODEL 6
REMARK VINA RESULT:      -7.7     13.776     15.578
REMARK  5 active torsions:
REMARK  status: ('A' for Active; 'I' for Inactive)
REMARK    1  A    between atoms: C_1  and  C_18 
REMARK    2  A    between atoms: C_7  and  C_11 
REMARK    3  A    between atoms: C_8  and  N_27 
REMARK    4  A    between atoms: C_11  and  C_12 
REMARK    5  A    between atoms: C_18  and  C_19 
ROOT
HETATM    1  C   UNK N   1      28.908  23.590  -4.012  0.00  0.00     0.031 A 
HETATM    2  C   UNK N   1      28.693  23.212  -5.334  0.00  0.00     0.114 A 
HETATM    3  N   UNK N   1      27.490  23.415  -5.907  0.00  0.00    -0.300 N 
HETATM    4  C   UNK N   1      26.449  23.943  -5.250  0.00  0.00     0.113 A 
HETATM    5  C   UNK N   1      26.560  24.308  -3.908  0.00  0.00     0.050 A 
HETATM    6  C   UNK N   1      27.813  24.122  -3.284  0.00  0.00     0.021 A 
HETATM    7  C   UNK N   1      27.103  23.205  -7.179  0.00  0.00     0.135 A 
HETATM    8  C   UNK N   1      25.770  23.628  -7.248  0.00  0.00     0.132 A 
HETATM    9  N   UNK N   1      25.364  24.084  -6.035  0.00  0.00    -0.327 N 
ATOM     10  HN  UNK N   1      24.447  24.450  -5.778  1.00  0.00     0.169 HD
ENDROOT
BRANCH   1  11
HETATM   11  C   UNK N   1      30.242  23.389  -3.374  0.00  0.00     0.199 C 
HETATM   12  O   UNK N   1      30.430  23.906  -2.283  0.00  0.00    -0.286 OA
BRANCH  11  13
HETATM   13  C   UNK N   1      31.344  22.530  -3.967  0.00  0.00     0.092 A 
HETATM   14  C   UNK N   1      31.204  21.119  -3.930  0.00  0.00     0.133 A 
HETATM   15  C   UNK N   1      32.182  20.289  -4.484  0.00  0.00     0.043 A 
HETATM   16  F   UNK N   1      30.107  20.541  -3.384  0.00  0.00    -0.205 F 
HETATM   17  C   UNK N   1      33.322  20.830  -5.068  0.00  0.00     0.006 A 
HETATM   18  C   UNK N   1      33.505  22.207  -5.081  0.00  0.00     0.043 A 
HETATM   19  C   UNK N   1      32.539  23.060  -4.540  0.00  0.00     0.133 A 
HETATM   20  F   UNK N   1      32.840  24.377  -4.516  0.00  0.00    -0.205 F 
ENDBRANCH  11  13
ENDBRANCH   1  11
BRANCH   7  21
HETATM   21  C   UNK N   1      28.061  22.655  -8.208  0.00  0.00     0.213 C 
HETATM   22  O   UNK N   1      28.053  23.180  -9.314  0.00  0.00    -0.285 OA
BRANCH  21  23
HETATM   23  C   UNK N   1      28.954  21.474  -8.044  0.00  0.00     0.016 A 
HETATM   24  C   UNK N   1      30.344  21.677  -8.123  0.00  0.00     0.015 A 
HETATM   25  C   UNK N   1      31.232  20.603  -8.043  0.00  0.00     0.001 A 
HETATM   26  C   UNK N   1      30.742  19.309  -7.876  0.00  0.00     0.000 A 
HETATM   27  C   UNK N   1      29.364  19.093  -7.793  0.00  0.00     0.001 A 
HETATM   28  C   UNK N   1      28.477  20.170  -7.888  0.00  0.00     0.015 A 
ENDBRANCH  21  23
ENDBRANCH   7  21
BRANCH   8  29
HETATM   29  N   UNK N   1      24.915  23.595  -8.365  0.00  0.00    -0.383 N 
HETATM   30  H   UNK N   1      24.846  22.778  -8.912  0.00  0.00     0.157 HD
HETATM   31  H   UNK N   1      24.384  24.390  -8.601  0.00  0.00     0.157 HD
ENDBRANCH   8  29
TORSDOF 5
ENDMDL
MODEL 7
REMARK VINA RESULT:      -7.6     13.842     16.059
REMARK  5 active torsions:
REMARK  status: ('A' for Active; 'I' for Inactive)
REMARK    1  A    between atoms: C_1  and  C_18 
REMARK    2  A    between atoms: C_7  and  C_11 
REMARK    3  A    between atoms: C_8  and  N_27 
REMARK    4  A    between atoms: C_11  and  C_12 
REMARK    5  A    between atoms: C_18  and  C_19 
ROOT
HETATM    1  C   UNK N   1      29.001  21.556  -6.760  0.00  0.00     0.031 A 
HETATM    2  C   UNK N   1      29.330  21.990  -5.479  0.00  0.00     0.114 A 
HETATM    3  N   UNK N   1      30.428  21.505  -4.865  0.00  0.00    -0.300 N 
HETATM    4  C   UNK N   1      31.224  20.579  -5.415  0.00  0.00     0.113 A 
HETATM    5  C   UNK N   1      30.943  20.053  -6.677  0.00  0.00     0.050 A 
HETATM    6  C   UNK N   1      29.809  20.552  -7.353  0.00  0.00     0.021 A 
HETATM    7  C   UNK N   1      30.966  21.851  -3.680  0.00  0.00     0.135 A 
HETATM    8  C   UNK N   1      32.124  21.075  -3.545  0.00  0.00     0.132 A 
HETATM    9  N   UNK N   1      32.277  20.277  -4.633  0.00  0.00    -0.327 N 
ATOM     10  HN  UNK N   1      33.020  19.602  -4.814  1.00  0.00     0.169 HD
ENDROOT
BRANCH   1  11
HETATM   11  C   UNK N   1      27.800  22.100  -7.459  0.00  0.00     0.199 C 
HETATM   12  O   UNK N   1      27.076  21.305  -8.041  0.00  0.00    -0.286 OA
BRANCH  11  13
HETATM   13  C   UNK N   1      27.392  23.563  -7.429  0.00  0.00     0.092 A 
HETATM   14  C   UNK N   1      28.280  24.530  -7.963  0.00  0.00     0.133 A 
HETATM   15  C   UNK N   1      27.937  25.884  -7.979  0.00  0.00     0.043 A 
HETATM   16  F   UNK N   1      29.472  24.164  -8.497  0.00  0.00    -0.205 F 
HETATM   17  C   UNK N   1      26.722  26.313  -7.456  0.00  0.00     0.006 A 
HETATM   18  C   UNK N   1      25.851  25.391  -6.890  0.00  0.00     0.043 A 
HETATM   19  C   UNK N   1      26.166  24.031  -6.867  0.00  0.00     0.133 A 
HETATM   20  F   UNK N   1      25.302  23.219  -6.219  0.00  0.00    -0.205 F 
ENDBRANCH  11  13
ENDBRANCH   1  11
BRANCH   7  21
HETATM   21  C   UNK N   1      30.335  22.916  -2.814  0.00  0.00     0.213 C 
HETATM   22  O   UNK N   1      30.604  22.894  -1.621  0.00  0.00    -0.285 OA
BRANCH  21  23
HETATM   23  C   UNK N   1      29.343  23.938  -3.251  0.00  0.00     0.016 A 
HETATM   24  C   UNK N   1      29.825  25.112  -3.860  0.00  0.00     0.015 A 
HETATM   25  C   UNK N   1      28.954  26.136  -4.233  0.00  0.00     0.001 A 
HETATM   26  C   UNK N   1      27.585  25.999  -4.007  0.00  0.00     0.000 A 
HETATM   27  C   UNK N   1      27.093  24.838  -3.405  0.00  0.00     0.001 A 
HETATM   28  C   UNK N   1      27.970  23.820  -3.020  0.00  0.00     0.015 A 
ENDBRANCH  21  23
ENDBRANCH   7  21
BRANCH   8  29
HETATM   29  N   UNK N   1      33.026  21.059  -2.465  0.00  0.00    -0.383 N 
HETATM   30  H   UNK N   1      33.729  20.371  -2.418  0.00  0.00     0.157 HD
HETATM   31  H   UNK N   1      32.953  21.736  -1.755  0.00  0.00     0.157 HD
ENDBRANCH   8  29
TORSDOF 5
ENDMDL
MODEL 8
REMARK VINA RESULT:      -7.6      3.843      6.402
REMARK  5 active torsions:
REMARK  status: ('A' for Active; 'I' for Inactive)
REMARK    1  A    between atoms: C_1  and  C_18 
REMARK    2  A    between atoms: C_7  and  C_11 
REMARK    3  A    between atoms: C_8  and  N_27 
REMARK    4  A    between atoms: C_11  and  C_12 
REMARK    5  A    between atoms: C_18  and  C_19 
ROOT
HETATM    1  C   UNK N   1      24.153  19.921   3.347  0.00  0.00     0.031 A 
HETATM    2  C   UNK N   1      23.649  18.757   3.921  0.00  0.00     0.114 A 
HETATM    3  N   UNK N   1      22.338  18.465   3.813  0.00  0.00    -0.300 N 
HETATM    4  C   UNK N   1      21.459  19.267   3.198  0.00  0.00     0.113 A 
HETATM    5  C   UNK N   1      21.868  20.477   2.635  0.00  0.00     0.050 A 
HETATM    6  C   UNK N   1      23.238  20.804   2.718  0.00  0.00     0.021 A 
HETATM    7  C   UNK N   1      21.672  17.365   4.214  0.00  0.00     0.135 A 
HETATM    8  C   UNK N   1      20.344  17.555   3.813  0.00  0.00     0.132 A 
HETATM    9  N   UNK N   1      20.216  18.750   3.182  0.00  0.00    -0.327 N 
ATOM     10  HN  UNK N   1      19.371  19.163   2.787  1.00  0.00     0.169 HD
ENDROOT
BRANCH   1  11
HETATM   11  C   UNK N   1      25.606  20.245   3.443  0.00  0.00     0.199 C 
HETATM   12  O   UNK N   1      26.082  20.967   2.579  0.00  0.00    -0.286 OA
BRANCH  11  13
HETATM   13  C   UNK N   1      26.503  19.790   4.581  0.00  0.00     0.092 A 
HETATM   14  C   UNK N   1      27.148  18.531   4.480  0.00  0.00     0.133 A 
HETATM   15  C   UNK N   1      28.001  18.082   5.492  0.00  0.00     0.043 A 
HETATM   16  F   UNK N   1      26.975  17.744   3.390  0.00  0.00    -0.205 F 
HETATM   17  C   UNK N   1      28.222  18.855   6.626  0.00  0.00     0.006 A 
HETATM   18  C   UNK N   1      27.572  20.074   6.769  0.00  0.00     0.043 A 
HETATM   19  C   UNK N   1      26.719  20.550   5.770  0.00  0.00     0.133 A 
HETATM   20  F   UNK N   1      26.062  21.701   6.032  0.00  0.00    -0.205 F 
ENDBRANCH  11  13
ENDBRANCH   1  11
BRANCH   7  21
HETATM   21  C   UNK N   1      22.384  16.228   4.907  0.00  0.00     0.213 C 
HETATM   22  O   UNK N   1      21.894  15.818   5.951  0.00  0.00    -0.285 OA
BRANCH  21  23
HETATM   23  C   UNK N   1      23.677  15.613   4.497  0.00  0.00     0.016 A 
HETATM   24  C   UNK N   1      24.705  15.529   5.455  0.00  0.00     0.015 A 
HETATM   25  C   UNK N   1      25.961  15.023   5.118  0.00  0.00     0.001 A 
HETATM   26  C   UNK N   1      26.206  14.588   3.817  0.00  0.00     0.000 A 
HETATM   27  C   UNK N   1      25.195  14.663   2.856  0.00  0.00     0.001 A 
HETATM   28  C   UNK N   1      23.942  15.183   3.195  0.00  0.00     0.015 A 
ENDBRANCH  21  23
ENDBRANCH   7  21
BRANCH   8  29
HETATM   29  N   UNK N   1      19.253  16.690   4.019  0.00  0.00    -0.383 N 
HETATM   30  H   UNK N   1      18.336  17.048   4.042  0.00  0.00     0.157 HD
HETATM   31  H   UNK N   1      19.407  15.726   4.139  0.00  0.00     0.157 HD
ENDBRANCH   8  29
TORSDOF 5
ENDMDL
MODEL 9
REMARK VINA RESULT:      -7.5      7.113      9.650
REMARK  5 active torsions:
REMARK  status: ('A' for Active; 'I' for Inactive)
REMARK    1  A    between atoms: C_1  and  C_18 
REMARK    2  A    between atoms: C_7  and  C_11 
REMARK    3  A    between atoms: C_8  and  N_27 
REMARK    4  A    between atoms: C_11  and  C_12 
REMARK    5  A    between atoms: C_18  and  C_19 
ROOT
HETATM    1  C   UNK N   1      30.548  16.968   7.528  0.00  0.00     0.031 A 
HETATM    2  C   UNK N   1      29.680  17.495   6.575  0.00  0.00     0.114 A 
HETATM    3  N   UNK N   1      28.708  18.351   6.949  0.00  0.00    -0.300 N 
HETATM    4  C   UNK N   1      28.500  18.708   8.223  0.00  0.00     0.113 A 
HETATM    5  C   UNK N   1      29.292  18.191   9.249  0.00  0.00     0.050 A 
HETATM    6  C   UNK N   1      30.329  17.305   8.889  0.00  0.00     0.021 A 
HETATM    7  C   UNK N   1      27.831  19.032   6.188  0.00  0.00     0.135 A 
HETATM    8  C   UNK N   1      27.078  19.811   7.075  0.00  0.00     0.132 A 
HETATM    9  N   UNK N   1      27.499  19.599   8.349  0.00  0.00    -0.327 N 
ATOM     10  HN  UNK N   1      27.138  20.020   9.205  1.00  0.00     0.169 HD
ENDROOT
BRANCH   1  11
HETATM   11  C   UNK N   1      31.641  16.036   7.124  0.00  0.00     0.199 C 
HETATM   12  O   UNK N   1      32.232  15.440   8.012  0.00  0.00    -0.286 OA
BRANCH  11  13
HETATM   13  C   UNK N   1      32.010  15.736   5.682  0.00  0.00     0.092 A 
HETATM   14  C   UNK N   1      32.904  16.608   5.011  0.00  0.00     0.133 A 
HETATM   15  C   UNK N   1      33.290  16.360   3.691  0.00  0.00     0.043 A 
HETATM   16  F   UNK N   1      33.429  17.689   5.639  0.00  0.00    -0.205 F 
HETATM   17  C   UNK N   1      32.792  15.259   3.003  0.00  0.00     0.006 A 
HETATM   18  C   UNK N   1      31.883  14.411   3.623  0.00  0.00     0.043 A 
HETATM   19  C   UNK N   1      31.485  14.633   4.943  0.00  0.00     0.133 A 
HETATM   20  F   UNK N   1      30.532  13.811   5.436  0.00  0.00    -0.205 F 
ENDBRANCH  11  13
ENDBRANCH   1  11
BRANCH   7  21
HETATM   21  C   UNK N   1      27.827  18.894   4.684  0.00  0.00     0.213 C 
HETATM   22  O   UNK N   1      27.955  19.921   4.030  0.00  0.00    -0.285 OA
BRANCH  21  23
HETATM   23  C   UNK N   1      27.591  17.643   3.911  0.00  0.00     0.016 A 
HETATM   24  C   UNK N   1      28.712  16.911   3.475  0.00  0.00     0.015 A 
HETATM   25  C   UNK N   1      28.561  15.766   2.691  0.00  0.00     0.001 A 
HETATM   26  C   UNK N   1      27.285  15.333   2.336  0.00  0.00     0.000 A 
HETATM   27  C   UNK N   1      26.163  16.048   2.763  0.00  0.00     0.001 A 
HETATM   28  C   UNK N   1      26.319  17.202   3.537  0.00  0.00     0.015 A 
ENDBRANCH  21  23
ENDBRANCH   7  21
BRANCH   8  29
HETATM   29  N   UNK N   1      26.020  20.685   6.766  0.00  0.00    -0.383 N 
HETATM   30  H   UNK N   1      25.601  20.659   5.875  0.00  0.00     0.157 HD
HETATM   31  H   UNK N   1      25.698  21.324   7.442  0.00  0.00     0.157 HD
ENDBRANCH   8  29
TORSDOF 5
ENDMDL
