MODEL 1
REMARK VINA RESULT:      -5.2      0.000      0.000
REMARK  4 active torsions:
REMARK  status: ('A' for Active; 'I' for Inactive)
REMARK    1  A    between atoms: C_1  and  C_2 
REMARK    2  A    between atoms: C_1  and  C_5 
REMARK    3  A    between atoms: C_2  and  O_4 
REMARK    4  A    between atoms: C_5  and  C_6 
ROOT
HETATM    1  C   UNK N   1      23.424  19.614   3.537  0.00  0.00    -0.058 A 
HETATM    2  C   UNK N   1      24.203  20.523   2.815  0.00  0.00     0.007 A 
HETATM    3  C   UNK N   1      24.039  18.759   4.467  0.00  0.00     0.007 A 
HETATM    4  C   UNK N   1      25.583  20.584   3.016  0.00  0.00     0.007 A 
HETATM    5  C   UNK N   1      25.422  18.820   4.667  0.00  0.00     0.007 A 
HETATM    6  C   UNK N   1      26.193  19.733   3.941  0.00  0.00    -0.062 A 
HETATM    7  C   UNK N   1      27.661  19.801   4.150  0.00  0.00     0.048 C 
ENDROOT
BRANCH   1   8
HETATM    8  C   UNK N   1      21.952  19.591   3.283  0.00  0.00     0.049 C 
BRANCH   8   9
HETATM    9  C   UNK N   1      21.440  20.727   2.408  0.00  0.00     0.114 C 
BRANCH   9  10
HETATM   10  C   UNK N   1      20.939  20.204   1.098  0.00  0.00     0.139 C 
HETATM   11  O   UNK N   1      21.129  20.847   0.082  0.00  0.00    -0.650 OA
BRANCH  10  12
HETATM   12  O   UNK N   1      20.279  19.029   1.030  0.00  0.00    -0.776 OA
HETATM   13  H   UNK N   1      20.517  18.394   0.383  0.00  0.00     0.167 HD
ENDBRANCH  10  12
ENDBRANCH   9  10
ENDBRANCH   8   9
ENDBRANCH   1   8
TORSDOF 4
ENDMDL
MODEL 2
REMARK VINA RESULT:      -5.2      8.973     10.699
REMARK  4 active torsions:
REMARK  status: ('A' for Active; 'I' for Inactive)
REMARK    1  A    between atoms: C_1  and  C_2 
REMARK    2  A    between atoms: C_1  and  C_5 
REMARK    3  A    between atoms: C_2  and  O_4 
REMARK    4  A    between atoms: C_5  and  C_6 
ROOT
HETATM    1  C   UNK N   1      21.547  13.330   9.769  0.00  0.00    -0.058 A 
HETATM    2  C   UNK N   1      20.424  14.160   9.826  0.00  0.00     0.007 A 
HETATM    3  C   UNK N   1      22.486  13.503   8.739  0.00  0.00     0.007 A 
HETATM    4  C   UNK N   1      20.235  15.156   8.867  0.00  0.00     0.007 A 
HETATM    5  C   UNK N   1      22.296  14.501   7.779  0.00  0.00     0.007 A 
HETATM    6  C   UNK N   1      21.170  15.328   7.843  0.00  0.00    -0.062 A 
HETATM    7  C   UNK N   1      20.964  16.389   6.826  0.00  0.00     0.048 C 
ENDROOT
BRANCH   1   8
HETATM    8  C   UNK N   1      21.700  12.279  10.821  0.00  0.00     0.049 C 
BRANCH   8   9
HETATM    9  C   UNK N   1      23.016  11.516  10.770  0.00  0.00     0.114 C 
BRANCH   9  10
HETATM   10  C   UNK N   1      23.962  12.017  11.817  0.00  0.00     0.139 C 
HETATM   11  O   UNK N   1      23.629  11.993  12.988  0.00  0.00    -0.650 OA
BRANCH  10  12
HETATM   12  O   UNK N   1      25.177  12.495  11.478  0.00  0.00    -0.776 OA
HETATM   13  H   UNK N   1      25.925  11.930  11.494  0.00  0.00     0.167 HD
ENDBRANCH  10  12
ENDBRANCH   9  10
ENDBRANCH   8   9
ENDBRANCH   1   8
TORSDOF 4
ENDMDL
MODEL 3
REMARK VINA RESULT:      -5.2     17.964     20.097
REMARK  4 active torsions:
REMARK  status: ('A' for Active; 'I' for Inactive)
REMARK    1  A    between atoms: C_1  and  C_2 
REMARK    2  A    between atoms: C_1  and  C_5 
REMARK    3  A    between atoms: C_2  and  O_4 
REMARK    4  A    between atoms: C_5  and  C_6 
ROOT
HETATM    1  C   UNK N   1      35.304  12.590  17.091  0.00  0.00    -0.058 A 
HETATM    2  C   UNK N   1      35.711  11.254  17.038  0.00  0.00     0.007 A 
HETATM    3  C   UNK N   1      35.125  13.212  18.337  0.00  0.00     0.007 A 
HETATM    4  C   UNK N   1      35.939  10.540  18.216  0.00  0.00     0.007 A 
HETATM    5  C   UNK N   1      35.354  12.496  19.516  0.00  0.00     0.007 A 
HETATM    6  C   UNK N   1      35.761  11.160  19.454  0.00  0.00    -0.062 A 
HETATM    7  C   UNK N   1      36.004  10.396  20.704  0.00  0.00     0.048 C 
ENDROOT
BRANCH   1   8
HETATM    8  C   UNK N   1      35.074  13.308  15.800  0.00  0.00     0.049 C 
BRANCH   8   9
HETATM    9  C   UNK N   1      36.332  13.560  14.980  0.00  0.00     0.114 C 
BRANCH   9  10
HETATM   10  C   UNK N   1      35.990  13.791  13.540  0.00  0.00     0.139 C 
HETATM   11  O   UNK N   1      34.848  13.611  13.158  0.00  0.00    -0.650 OA
BRANCH  10  12
HETATM   12  O   UNK N   1      36.931  14.195  12.662  0.00  0.00    -0.776 OA
HETATM   13  H   UNK N   1      36.780  14.111  11.741  0.00  0.00     0.167 HD
ENDBRANCH  10  12
ENDBRANCH   9  10
ENDBRANCH   8   9
ENDBRANCH   1   8
TORSDOF 4
ENDMDL
MODEL 4
REMARK VINA RESULT:      -5.1     18.019     20.138
REMARK  4 active torsions:
REMARK  status: ('A' for Active; 'I' for Inactive)
REMARK    1  A    between atoms: C_1  and  C_2 
REMARK    2  A    between atoms: C_1  and  C_5 
REMARK    3  A    between atoms: C_2  and  O_4 
REMARK    4  A    between atoms: C_5  and  C_6 
ROOT
HETATM    1  C   UNK N   1      35.344  12.419  17.046  0.00  0.00    -0.058 A 
HETATM    2  C   UNK N   1      35.111  13.057  18.268  0.00  0.00     0.007 A 
HETATM    3  C   UNK N   1      35.824  11.099  17.033  0.00  0.00     0.007 A 
HETATM    4  C   UNK N   1      35.354  12.388  19.469  0.00  0.00     0.007 A 
HETATM    5  C   UNK N   1      36.067  10.430  18.237  0.00  0.00     0.007 A 
HETATM    6  C   UNK N   1      35.831  11.076  19.455  0.00  0.00    -0.062 A 
HETATM    7  C   UNK N   1      36.088  10.370  20.735  0.00  0.00     0.048 C 
ENDROOT
BRANCH   1   8
HETATM    8  C   UNK N   1      35.068  13.180  15.790  0.00  0.00     0.049 C 
BRANCH   8   9
HETATM    9  C   UNK N   1      36.310  13.619  15.026  0.00  0.00     0.114 C 
BRANCH   9  10
HETATM   10  C   UNK N   1      36.011  13.765  13.566  0.00  0.00     0.139 C 
HETATM   11  O   UNK N   1      34.859  13.688  13.179  0.00  0.00    -0.650 OA
BRANCH  10  12
HETATM   12  O   UNK N   1      37.001  13.981  12.676  0.00  0.00    -0.776 OA
HETATM   13  H   UNK N   1      37.877  14.126  12.975  0.00  0.00     0.167 HD
ENDBRANCH  10  12
ENDBRANCH   9  10
ENDBRANCH   8   9
ENDBRANCH   1   8
TORSDOF 4
ENDMDL
MODEL 5
REMARK VINA RESULT:      -5.1     15.141     17.328
REMARK  4 active torsions:
REMARK  status: ('A' for Active; 'I' for Inactive)
REMARK    1  A    between atoms: C_1  and  C_2 
REMARK    2  A    between atoms: C_1  and  C_5 
REMARK    3  A    between atoms: C_2  and  O_4 
REMARK    4  A    between atoms: C_5  and  C_6 
ROOT
HETATM    1  C   UNK N   1      35.587  13.390  13.264  0.00  0.00    -0.058 A 
HETATM    2  C   UNK N   1      36.351  14.045  14.234  0.00  0.00     0.007 A 
HETATM    3  C   UNK N   1      34.710  12.362  13.649  0.00  0.00     0.007 A 
HETATM    4  C   UNK N   1      36.245  13.681  15.578  0.00  0.00     0.007 A 
HETATM    5  C   UNK N   1      34.605  11.999  14.995  0.00  0.00     0.007 A 
HETATM    6  C   UNK N   1      35.373  12.660  15.959  0.00  0.00    -0.062 A 
HETATM    7  C   UNK N   1      35.264  12.277  17.389  0.00  0.00     0.048 C 
ENDROOT
BRANCH   1   8
HETATM    8  C   UNK N   1      35.740  13.818  11.840  0.00  0.00     0.049 C 
BRANCH   8   9
HETATM    9  C   UNK N   1      34.881  15.010  11.440  0.00  0.00     0.114 C 
BRANCH   9  10
HETATM   10  C   UNK N   1      35.737  16.153  10.987  0.00  0.00     0.139 C 
HETATM   11  O   UNK N   1      35.217  17.214  10.695  0.00  0.00    -0.650 OA
BRANCH  10  12
HETATM   12  O   UNK N   1      37.076  16.020  10.898  0.00  0.00    -0.776 OA
HETATM   13  H   UNK N   1      37.623  16.781  10.877  0.00  0.00     0.167 HD
ENDBRANCH  10  12
ENDBRANCH   9  10
ENDBRANCH   8   9
ENDBRANCH   1   8
TORSDOF 4
ENDMDL
MODEL 6
REMARK VINA RESULT:      -5.1      9.644     10.815
REMARK  4 active torsions:
REMARK  status: ('A' for Active; 'I' for Inactive)
REMARK    1  A    between atoms: C_1  and  C_2 
REMARK    2  A    between atoms: C_1  and  C_5 
REMARK    3  A    between atoms: C_2  and  O_4 
REMARK    4  A    between atoms: C_5  and  C_6 
ROOT
HETATM    1  C   UNK N   1      25.873  24.590  -5.559  0.00  0.00    -0.058 A 
HETATM    2  C   UNK N   1      26.298  24.802  -4.245  0.00  0.00     0.007 A 
HETATM    3  C   UNK N   1      25.443  25.681  -6.333  0.00  0.00     0.007 A 
HETATM    4  C   UNK N   1      26.295  26.088  -3.702  0.00  0.00     0.007 A 
HETATM    5  C   UNK N   1      25.440  26.968  -5.788  0.00  0.00     0.007 A 
HETATM    6  C   UNK N   1      25.867  27.171  -4.472  0.00  0.00    -0.062 A 
HETATM    7  C   UNK N   1      25.866  28.537  -3.890  0.00  0.00     0.048 C 
ENDROOT
BRANCH   1   8
HETATM    8  C   UNK N   1      25.897  23.194  -6.091  0.00  0.00     0.049 C 
BRANCH   8   9
HETATM    9  C   UNK N   1      25.730  23.085  -7.600  0.00  0.00     0.114 C 
BRANCH   9  10
HETATM   10  C   UNK N   1      24.866  21.914  -7.956  0.00  0.00     0.139 C 
HETATM   11  O   UNK N   1      25.380  20.829  -8.158  0.00  0.00    -0.650 OA
BRANCH  10  12
HETATM   12  O   UNK N   1      23.528  22.047  -8.054  0.00  0.00    -0.776 OA
HETATM   13  H   UNK N   1      22.973  21.298  -7.956  0.00  0.00     0.167 HD
ENDBRANCH  10  12
ENDBRANCH   9  10
ENDBRANCH   8   9
ENDBRANCH   1   8
TORSDOF 4
ENDMDL
MODEL 7
REMARK VINA RESULT:      -4.9     11.252     12.149
REMARK  4 active torsions:
REMARK  status: ('A' for Active; 'I' for Inactive)
REMARK    1  A    between atoms: C_1  and  C_2 
REMARK    2  A    between atoms: C_1  and  C_5 
REMARK    3  A    between atoms: C_2  and  O_4 
REMARK    4  A    between atoms: C_5  and  C_6 
ROOT
HETATM    1  C   UNK N   1      26.128  26.900  -6.959  0.00  0.00    -0.058 A 
HETATM    2  C   UNK N   1      25.156  26.854  -5.956  0.00  0.00     0.007 A 
HETATM    3  C   UNK N   1      27.206  27.793  -6.841  0.00  0.00     0.007 A 
HETATM    4  C   UNK N   1      25.253  27.689  -4.842  0.00  0.00     0.007 A 
HETATM    5  C   UNK N   1      27.302  28.629  -5.724  0.00  0.00     0.007 A 
HETATM    6  C   UNK N   1      26.326  28.576  -4.725  0.00  0.00    -0.062 A 
HETATM    7  C   UNK N   1      26.425  29.462  -3.538  0.00  0.00     0.048 C 
ENDROOT
BRANCH   1   8
HETATM    8  C   UNK N   1      25.974  25.984  -8.131  0.00  0.00     0.049 C 
BRANCH   8   9
HETATM    9  C   UNK N   1      26.534  24.584  -7.920  0.00  0.00     0.114 C 
BRANCH   9  10
HETATM   10  C   UNK N   1      25.428  23.598  -7.703  0.00  0.00     0.139 C 
HETATM   11  O   UNK N   1      24.652  23.357  -8.610  0.00  0.00    -0.650 OA
BRANCH  10  12
HETATM   12  O   UNK N   1      25.282  22.973  -6.517  0.00  0.00    -0.776 OA
HETATM   13  H   UNK N   1      24.450  22.975  -6.084  0.00  0.00     0.167 HD
ENDBRANCH  10  12
ENDBRANCH   9  10
ENDBRANCH   8   9
ENDBRANCH   1   8
TORSDOF 4
ENDMDL
MODEL 8
REMARK VINA RESULT:      -4.8      8.798      9.783
REMARK  4 active torsions:
REMARK  status: ('A' for Active; 'I' for Inactive)
REMARK    1  A    between atoms: C_1  and  C_2 
REMARK    2  A    between atoms: C_1  and  C_5 
REMARK    3  A    between atoms: C_2  and  O_4 
REMARK    4  A    between atoms: C_5  and  C_6 
ROOT
HETATM    1  C   UNK N   1      31.652  17.495   7.224  0.00  0.00    -0.058 A 
HETATM    2  C   UNK N   1      30.725  17.196   6.222  0.00  0.00     0.007 A 
HETATM    3  C   UNK N   1      33.016  17.590   6.902  0.00  0.00     0.007 A 
HETATM    4  C   UNK N   1      31.150  16.992   4.908  0.00  0.00     0.007 A 
HETATM    5  C   UNK N   1      33.440  17.387   5.585  0.00  0.00     0.007 A 
HETATM    6  C   UNK N   1      32.506  17.087   4.589  0.00  0.00    -0.062 A 
HETATM    7  C   UNK N   1      32.952  16.870   3.190  0.00  0.00     0.048 C 
ENDROOT
BRANCH   1   8
HETATM    8  C   UNK N   1      31.144  17.703   8.614  0.00  0.00     0.049 C 
BRANCH   8   9
HETATM    9  C   UNK N   1      29.701  18.182   8.698  0.00  0.00     0.114 C 
BRANCH   9  10
HETATM   10  C   UNK N   1      28.940  17.398   9.723  0.00  0.00     0.139 C 
HETATM   11  O   UNK N   1      27.726  17.347   9.660  0.00  0.00    -0.650 OA
BRANCH  10  12
HETATM   12  O   UNK N   1      29.585  16.749  10.714  0.00  0.00    -0.776 OA
HETATM   13  H   UNK N   1      30.463  16.988  10.939  0.00  0.00     0.167 HD
ENDBRANCH  10  12
ENDBRANCH   9  10
ENDBRANCH   8   9
ENDBRANCH   1   8
TORSDOF 4
ENDMDL
MODEL 9
REMARK VINA RESULT:      -4.8      9.422     11.967
REMARK  4 active torsions:
REMARK  status: ('A' for Active; 'I' for Inactive)
REMARK    1  A    between atoms: C_1  and  C_2 
REMARK    2  A    between atoms: C_1  and  C_5 
REMARK    3  A    between atoms: C_2  and  O_4 
REMARK    4  A    between atoms: C_5  and  C_6 
ROOT
HETATM    1  C   UNK N   1      32.423  17.694   7.814  0.00  0.00    -0.058 A 
HETATM    2  C   UNK N   1      32.193  17.166   6.541  0.00  0.00     0.007 A 
HETATM    3  C   UNK N   1      31.336  17.950   8.666  0.00  0.00     0.007 A 
HETATM    4  C   UNK N   1      30.892  16.893   6.116  0.00  0.00     0.007 A 
HETATM    5  C   UNK N   1      30.033  17.676   8.239  0.00  0.00     0.007 A 
HETATM    6  C   UNK N   1      29.812  17.147   6.963  0.00  0.00    -0.062 A 
HETATM    7  C   UNK N   1      28.430  16.855   6.507  0.00  0.00     0.048 C 
ENDROOT
BRANCH   1   8
HETATM    8  C   UNK N   1      33.836  17.967   8.218  0.00  0.00     0.049 C 
BRANCH   8   9
HETATM    9  C   UNK N   1      34.644  16.729   8.583  0.00  0.00     0.114 C 
BRANCH   9  10
HETATM   10  C   UNK N   1      34.956  16.711  10.047  0.00  0.00     0.139 C 
HETATM   11  O   UNK N   1      35.849  17.417  10.479  0.00  0.00    -0.650 OA
BRANCH  10  12
HETATM   12  O   UNK N   1      34.260  15.924  10.893  0.00  0.00    -0.776 OA
HETATM   13  H   UNK N   1      33.520  15.440  10.582  0.00  0.00     0.167 HD
ENDBRANCH  10  12
ENDBRANCH   9  10
ENDBRANCH   8   9
ENDBRANCH   1   8
TORSDOF 4
ENDMDL
