REMARK  4 active torsions:
REMARK  status: ('A' for Active; 'I' for Inactive)
REMARK    1  A    between atoms: C_1  and  C_2 
REMARK    2  A    between atoms: C_1  and  C_5 
REMARK    3  A    between atoms: C_2  and  O_4 
REMARK    4  A    between atoms: C_5  and  C_6 
ROOT
HETATM    1  C   UNK N   1       0.054  -0.199   0.000  0.00  0.00    -0.058 A 
HETATM    2  C   UNK N   1       0.010  -1.596  -0.000  0.00  0.00     0.007 A 
HETATM    3  C   UNK N   1      -1.145   0.533   0.000  0.00  0.00     0.007 A 
HETATM    4  C   UNK N   1      -1.217  -2.262  -0.000  0.00  0.00     0.007 A 
HETATM    5  C   UNK N   1      -2.373  -0.135  -0.000  0.00  0.00     0.007 A 
HETATM    6  C   UNK N   1      -2.408  -1.533  -0.000  0.00  0.00    -0.062 A 
HETATM    7  C   UNK N   1      -3.710  -2.246  -0.000  0.00  0.00     0.048 C 
ENDROOT
BRANCH   1   8
HETATM    8  C   UNK N   1       1.394   0.463   0.000  0.00  0.00     0.049 C 
BRANCH   8   9
HETATM    9  C   UNK N   1       1.351   1.985   0.000  0.00  0.00     0.114 C 
BRANCH   9  10
HETATM   10  C   UNK N   1       2.736   2.555  -0.000  0.00  0.00     0.139 C 
HETATM   11  O   UNK N   1       2.888   3.763  -0.000  0.00  0.00    -0.650 OA
BRANCH  10  12
HETATM   12  O   UNK N   1       3.816   1.747  -0.000  0.00  0.00    -0.776 OA
HETATM   13  H   UNK N   1       3.706   0.816  -0.000  0.00  0.00     0.167 HD
ENDBRANCH  10  12
ENDBRANCH   9  10
ENDBRANCH   8   9
ENDBRANCH   1   8
TORSDOF 4
