MODEL 1
REMARK VINA RESULT:      -5.5      0.000      0.000
REMARK  4 active torsions:
REMARK  status: ('A' for Active; 'I' for Inactive)
REMARK    1  A    between atoms: C_1  and  O_3 
REMARK    2  A    between atoms: C_1  and  C_4 
REMARK    3  A    between atoms: C_4  and  C_6 
REMARK    4  A    between atoms: C_6  and  C_7 
ROOT
HETATM    1  C   UNK N   1      32.622  16.765   7.458  0.00  0.00     0.129 C 
ENDROOT
BRANCH   1   2
HETATM    2  C   UNK N   1      33.826  17.653   7.282  0.00  0.00     0.226 C 
HETATM    3  O   UNK N   1      34.223  17.991   6.175  0.00  0.00    -0.286 OA
BRANCH   2   4
HETATM    4  C   UNK N   1      34.531  18.117   8.487  0.00  0.00     0.213 C 
HETATM    5  O   UNK N   1      35.240  19.108   8.446  0.00  0.00    -0.644 OA
BRANCH   4   6
HETATM    6  O   UNK N   1      34.390  17.443   9.646  0.00  0.00    -0.771 OA
HETATM    7  H   UNK N   1      35.132  17.030  10.041  0.00  0.00     0.167 HD
ENDBRANCH   4   6
ENDBRANCH   2   4
ENDBRANCH   1   2
BRANCH   1   8
HETATM    8  C   UNK N   1      31.267  17.370   7.684  0.00  0.00    -0.051 A 
HETATM    9  C   UNK N   1      30.297  17.169   6.699  0.00  0.00     0.007 A 
HETATM   10  C   UNK N   1      29.016  17.706   6.847  0.00  0.00     0.001 A 
HETATM   11  C   UNK N   1      28.699  18.448   7.988  0.00  0.00     0.000 A 
HETATM   12  C   UNK N   1      29.663  18.654   8.978  0.00  0.00     0.001 A 
HETATM   13  C   UNK N   1      30.944  18.117   8.827  0.00  0.00     0.007 A 
ENDBRANCH   1   8
TORSDOF 4
ENDMDL
MODEL 2
REMARK VINA RESULT:      -5.3      9.587     10.991
REMARK  4 active torsions:
REMARK  status: ('A' for Active; 'I' for Inactive)
REMARK    1  A    between atoms: C_1  and  O_3 
REMARK    2  A    between atoms: C_1  and  C_4 
REMARK    3  A    between atoms: C_4  and  C_6 
REMARK    4  A    between atoms: C_6  and  C_7 
ROOT
HETATM    1  C   UNK N   1      34.968  13.036  15.600  0.00  0.00     0.129 C 
ENDROOT
BRANCH   1   2
HETATM    2  C   UNK N   1      36.113  13.644  14.832  0.00  0.00     0.226 C 
HETATM    3  O   UNK N   1      37.146  13.997  15.384  0.00  0.00    -0.286 OA
BRANCH   2   4
HETATM    4  C   UNK N   1      35.967  13.808  13.377  0.00  0.00     0.213 C 
HETATM    5  O   UNK N   1      34.860  13.878  12.870  0.00  0.00    -0.644 OA
BRANCH   4   6
HETATM    6  O   UNK N   1      37.065  13.883  12.598  0.00  0.00    -0.771 OA
HETATM    7  H   UNK N   1      36.994  13.749  11.673  0.00  0.00     0.167 HD
ENDBRANCH   4   6
ENDBRANCH   2   4
ENDBRANCH   1   2
BRANCH   1   8
HETATM    8  C   UNK N   1      35.177  12.557  17.006  0.00  0.00    -0.051 A 
HETATM    9  C   UNK N   1      35.514  11.213  17.188  0.00  0.00     0.007 A 
HETATM   10  C   UNK N   1      35.721  10.702  18.471  0.00  0.00     0.001 A 
HETATM   11  C   UNK N   1      35.593  11.538  19.584  0.00  0.00     0.000 A 
HETATM   12  C   UNK N   1      35.256  12.884  19.411  0.00  0.00     0.001 A 
HETATM   13  C   UNK N   1      35.048  13.392  18.127  0.00  0.00     0.007 A 
ENDBRANCH   1   8
TORSDOF 4
ENDMDL
MODEL 3
REMARK VINA RESULT:      -5.3      1.833      2.864
REMARK  4 active torsions:
REMARK  status: ('A' for Active; 'I' for Inactive)
REMARK    1  A    between atoms: C_1  and  O_3 
REMARK    2  A    between atoms: C_1  and  C_4 
REMARK    3  A    between atoms: C_4  and  C_6 
REMARK    4  A    between atoms: C_6  and  C_7 
ROOT
HETATM    1  C   UNK N   1      34.428  17.103   7.002  0.00  0.00     0.129 C 
ENDROOT
BRANCH   1   2
HETATM    2  C   UNK N   1      34.628  17.900   8.265  0.00  0.00     0.226 C 
HETATM    3  O   UNK N   1      34.747  19.118   8.248  0.00  0.00    -0.286 OA
BRANCH   2   4
HETATM    4  C   UNK N   1      34.679  17.176   9.545  0.00  0.00     0.213 C 
HETATM    5  O   UNK N   1      35.574  17.393  10.344  0.00  0.00    -0.644 OA
BRANCH   4   6
HETATM    6  O   UNK N   1      33.727  16.267   9.838  0.00  0.00    -0.771 OA
HETATM    7  H   UNK N   1      33.879  15.627  10.505  0.00  0.00     0.167 HD
ENDBRANCH   4   6
ENDBRANCH   2   4
ENDBRANCH   1   2
BRANCH   1   8
HETATM    8  C   UNK N   1      33.155  17.240   6.221  0.00  0.00    -0.051 A 
HETATM    9  C   UNK N   1      31.951  17.056   6.907  0.00  0.00     0.007 A 
HETATM   10  C   UNK N   1      30.730  17.170   6.239  0.00  0.00     0.001 A 
HETATM   11  C   UNK N   1      30.707  17.469   4.875  0.00  0.00     0.000 A 
HETATM   12  C   UNK N   1      31.906  17.654   4.180  0.00  0.00     0.001 A 
HETATM   13  C   UNK N   1      33.126  17.539   4.850  0.00  0.00     0.007 A 
ENDBRANCH   1   8
TORSDOF 4
ENDMDL
MODEL 4
REMARK VINA RESULT:      -5.0     10.164     11.625
REMARK  4 active torsions:
REMARK  status: ('A' for Active; 'I' for Inactive)
REMARK    1  A    between atoms: C_1  and  O_3 
REMARK    2  A    between atoms: C_1  and  C_4 
REMARK    3  A    between atoms: C_4  and  C_6 
REMARK    4  A    between atoms: C_6  and  C_7 
ROOT
HETATM    1  C   UNK N   1      34.887  13.381  16.584  0.00  0.00     0.129 C 
ENDROOT
BRANCH   1   2
HETATM    2  C   UNK N   1      35.306  13.329  15.137  0.00  0.00     0.226 C 
HETATM    3  O   UNK N   1      34.621  12.780  14.286  0.00  0.00    -0.286 OA
BRANCH   2   4
HETATM    4  C   UNK N   1      36.578  13.963  14.758  0.00  0.00     0.213 C 
HETATM    5  O   UNK N   1      37.337  14.388  15.612  0.00  0.00    -0.644 OA
BRANCH   4   6
HETATM    6  O   UNK N   1      36.909  14.074  13.455  0.00  0.00    -0.771 OA
HETATM    7  H   UNK N   1      36.517  14.742  12.927  0.00  0.00     0.167 HD
ENDBRANCH   4   6
ENDBRANCH   2   4
ENDBRANCH   1   2
BRANCH   1   8
HETATM    8  C   UNK N   1      35.341  12.315  17.537  0.00  0.00    -0.051 A 
HETATM    9  C   UNK N   1      35.212  12.571  18.904  0.00  0.00     0.007 A 
HETATM   10  C   UNK N   1      35.615  11.621  19.844  0.00  0.00     0.001 A 
HETATM   11  C   UNK N   1      36.152  10.403  19.419  0.00  0.00     0.000 A 
HETATM   12  C   UNK N   1      36.285  10.138  18.053  0.00  0.00     0.001 A 
HETATM   13  C   UNK N   1      35.882  11.091  17.114  0.00  0.00     0.007 A 
ENDBRANCH   1   8
TORSDOF 4
ENDMDL
MODEL 5
REMARK VINA RESULT:      -5.0     15.452     16.820
REMARK  4 active torsions:
REMARK  status: ('A' for Active; 'I' for Inactive)
REMARK    1  A    between atoms: C_1  and  O_3 
REMARK    2  A    between atoms: C_1  and  C_4 
REMARK    3  A    between atoms: C_4  and  C_6 
REMARK    4  A    between atoms: C_6  and  C_7 
ROOT
HETATM    1  C   UNK N   1      25.030  26.014  -5.459  0.00  0.00     0.129 C 
ENDROOT
BRANCH   1   2
HETATM    2  C   UNK N   1      25.706  24.679  -5.287  0.00  0.00     0.226 C 
HETATM    3  O   UNK N   1      25.429  23.719  -5.993  0.00  0.00    -0.286 OA
BRANCH   2   4
HETATM    4  C   UNK N   1      26.727  24.546  -4.235  0.00  0.00     0.213 C 
HETATM    5  O   UNK N   1      27.901  24.758  -4.482  0.00  0.00    -0.644 OA
BRANCH   4   6
HETATM    6  O   UNK N   1      26.360  24.187  -2.988  0.00  0.00    -0.771 OA
HETATM    7  H   UNK N   1      26.860  23.551  -2.517  0.00  0.00     0.167 HD
ENDBRANCH   4   6
ENDBRANCH   2   4
ENDBRANCH   1   2
BRANCH   1   8
HETATM    8  C   UNK N   1      25.811  27.282  -5.273  0.00  0.00    -0.051 A 
HETATM    9  C   UNK N   1      26.747  27.614  -6.256  0.00  0.00     0.007 A 
HETATM   10  C   UNK N   1      27.508  28.780  -6.144  0.00  0.00     0.001 A 
HETATM   11  C   UNK N   1      27.333  29.624  -5.044  0.00  0.00     0.000 A 
HETATM   12  C   UNK N   1      26.398  29.300  -4.056  0.00  0.00     0.001 A 
HETATM   13  C   UNK N   1      25.640  28.132  -4.170  0.00  0.00     0.007 A 
ENDBRANCH   1   8
TORSDOF 4
ENDMDL
MODEL 6
REMARK VINA RESULT:      -5.0      6.657      8.344
REMARK  4 active torsions:
REMARK  status: ('A' for Active; 'I' for Inactive)
REMARK    1  A    between atoms: C_1  and  O_3 
REMARK    2  A    between atoms: C_1  and  C_4 
REMARK    3  A    between atoms: C_4  and  C_6 
REMARK    4  A    between atoms: C_6  and  C_7 
ROOT
HETATM    1  C   UNK N   1      36.203  13.918  12.545  0.00  0.00     0.129 C 
ENDROOT
BRANCH   1   2
HETATM    2  C   UNK N   1      35.311  14.833  11.746  0.00  0.00     0.226 C 
HETATM    3  O   UNK N   1      34.116  14.610  11.607  0.00  0.00    -0.286 OA
BRANCH   2   4
HETATM    4  C   UNK N   1      35.912  16.023  11.124  0.00  0.00     0.213 C 
HETATM    5  O   UNK N   1      35.243  17.022  10.925  0.00  0.00    -0.644 OA
BRANCH   4   6
HETATM    6  O   UNK N   1      37.214  16.009  10.772  0.00  0.00    -0.771 OA
HETATM    7  H   UNK N   1      37.455  15.977   9.867  0.00  0.00     0.167 HD
ENDBRANCH   4   6
ENDBRANCH   2   4
ENDBRANCH   1   2
BRANCH   1   8
HETATM    8  C   UNK N   1      35.907  13.657  13.993  0.00  0.00    -0.051 A 
HETATM    9  C   UNK N   1      36.696  14.310  14.943  0.00  0.00     0.007 A 
HETATM   10  C   UNK N   1      36.474  14.111  16.307  0.00  0.00     0.001 A 
HETATM   11  C   UNK N   1      35.456  13.252  16.729  0.00  0.00     0.000 A 
HETATM   12  C   UNK N   1      34.661  12.594  15.786  0.00  0.00     0.001 A 
HETATM   13  C   UNK N   1      34.886  12.794  14.422  0.00  0.00     0.007 A 
ENDBRANCH   1   8
TORSDOF 4
ENDMDL
MODEL 7
REMARK VINA RESULT:      -4.9     13.188     14.437
REMARK  4 active torsions:
REMARK  status: ('A' for Active; 'I' for Inactive)
REMARK    1  A    between atoms: C_1  and  O_3 
REMARK    2  A    between atoms: C_1  and  C_4 
REMARK    3  A    between atoms: C_4  and  C_6 
REMARK    4  A    between atoms: C_6  and  C_7 
ROOT
HETATM    1  C   UNK N   1      27.421  24.111  -3.228  0.00  0.00     0.129 C 
ENDROOT
BRANCH   1   2
HETATM    2  C   UNK N   1      28.927  24.125  -3.285  0.00  0.00     0.226 C 
HETATM    3  O   UNK N   1      29.545  25.037  -3.819  0.00  0.00    -0.286 OA
BRANCH   2   4
HETATM    4  C   UNK N   1      29.657  23.003  -2.676  0.00  0.00     0.213 C 
HETATM    5  O   UNK N   1      29.797  21.954  -3.281  0.00  0.00    -0.644 OA
BRANCH   4   6
HETATM    6  O   UNK N   1      30.178  23.135  -1.439  0.00  0.00    -0.771 OA
HETATM    7  H   UNK N   1      30.995  22.729  -1.228  0.00  0.00     0.167 HD
ENDBRANCH   4   6
ENDBRANCH   2   4
ENDBRANCH   1   2
BRANCH   1   8
HETATM    8  C   UNK N   1      26.634  25.206  -3.886  0.00  0.00    -0.051 A 
HETATM    9  C   UNK N   1      26.048  24.928  -5.123  0.00  0.00     0.007 A 
HETATM   10  C   UNK N   1      25.302  25.902  -5.789  0.00  0.00     0.001 A 
HETATM   11  C   UNK N   1      25.137  27.166  -5.217  0.00  0.00     0.000 A 
HETATM   12  C   UNK N   1      25.719  27.454  -3.979  0.00  0.00     0.001 A 
HETATM   13  C   UNK N   1      26.466  26.477  -3.315  0.00  0.00     0.007 A 
ENDBRANCH   1   8
TORSDOF 4
ENDMDL
MODEL 8
REMARK VINA RESULT:      -4.9     12.089     13.277
REMARK  4 active torsions:
REMARK  status: ('A' for Active; 'I' for Inactive)
REMARK    1  A    between atoms: C_1  and  O_3 
REMARK    2  A    between atoms: C_1  and  C_4 
REMARK    3  A    between atoms: C_4  and  C_6 
REMARK    4  A    between atoms: C_6  and  C_7 
ROOT
HETATM    1  C   UNK N   1      30.114  24.067  -3.475  0.00  0.00     0.129 C 
ENDROOT
BRANCH   1   2
HETATM    2  C   UNK N   1      30.552  23.025  -2.479  0.00  0.00     0.226 C 
HETATM    3  O   UNK N   1      30.174  23.043  -1.316  0.00  0.00    -0.286 OA
BRANCH   2   4
HETATM    4  C   UNK N   1      31.462  21.962  -2.938  0.00  0.00     0.213 C 
HETATM    5  O   UNK N   1      32.355  21.558  -2.214  0.00  0.00    -0.644 OA
BRANCH   4   6
HETATM    6  O   UNK N   1      31.305  21.431  -4.167  0.00  0.00    -0.771 OA
HETATM    7  H   UNK N   1      31.660  21.868  -4.916  0.00  0.00     0.167 HD
ENDBRANCH   4   6
ENDBRANCH   2   4
ENDBRANCH   1   2
BRANCH   1   8
HETATM    8  C   UNK N   1      28.748  23.989  -4.092  0.00  0.00    -0.051 A 
HETATM    9  C   UNK N   1      28.657  23.521  -5.405  0.00  0.00     0.007 A 
HETATM   10  C   UNK N   1      27.416  23.424  -6.038  0.00  0.00     0.001 A 
HETATM   11  C   UNK N   1      26.254  23.796  -5.357  0.00  0.00     0.000 A 
HETATM   12  C   UNK N   1      26.336  24.265  -4.042  0.00  0.00     0.001 A 
HETATM   13  C   UNK N   1      27.578  24.362  -3.411  0.00  0.00     0.007 A 
ENDBRANCH   1   8
TORSDOF 4
ENDMDL
MODEL 9
REMARK VINA RESULT:      -4.9      0.722      1.564
REMARK  4 active torsions:
REMARK  status: ('A' for Active; 'I' for Inactive)
REMARK    1  A    between atoms: C_1  and  O_3 
REMARK    2  A    between atoms: C_1  and  C_4 
REMARK    3  A    between atoms: C_4  and  C_6 
REMARK    4  A    between atoms: C_6  and  C_7 
ROOT
HETATM    1  C   UNK N   1      32.116  16.665   7.688  0.00  0.00     0.129 C 
ENDROOT
BRANCH   1   2
HETATM    2  C   UNK N   1      33.400  17.090   8.352  0.00  0.00     0.226 C 
HETATM    3  O   UNK N   1      33.755  16.627   9.428  0.00  0.00    -0.286 OA
BRANCH   2   4
HETATM    4  C   UNK N   1      34.237  18.090   7.672  0.00  0.00     0.213 C 
HETATM    5  O   UNK N   1      34.761  18.991   8.304  0.00  0.00    -0.644 OA
BRANCH   4   6
HETATM    6  O   UNK N   1      34.429  18.009   6.340  0.00  0.00    -0.771 OA
HETATM    7  H   UNK N   1      34.560  18.788   5.837  0.00  0.00     0.167 HD
ENDBRANCH   4   6
ENDBRANCH   2   4
ENDBRANCH   1   2
BRANCH   1   8
HETATM    8  C   UNK N   1      30.825  17.341   8.045  0.00  0.00    -0.051 A 
HETATM    9  C   UNK N   1      29.769  17.243   7.135  0.00  0.00     0.007 A 
HETATM   10  C   UNK N   1      28.541  17.849   7.406  0.00  0.00     0.001 A 
HETATM   11  C   UNK N   1      28.362  18.560   8.596  0.00  0.00     0.000 A 
HETATM   12  C   UNK N   1      29.412  18.664   9.513  0.00  0.00     0.001 A 
HETATM   13  C   UNK N   1      30.640  18.057   9.238  0.00  0.00     0.007 A 
ENDBRANCH   1   8
TORSDOF 4
ENDMDL
