REMARK  7 active torsions:
REMARK  status: ('A' for Active; 'I' for Inactive)
REMARK    1  A    between atoms: C_2  and  N_1 
REMARK    2  A    between atoms: C_2  and  C_3 
REMARK    3  A    between atoms: C_2  and  C_5 
REMARK    4  A    between atoms: C_5  and  S_6 
REMARK    5  A    between atoms: S_6  and  S_7 
REMARK    6  A    between atoms: S_7  and  C_8 
REMARK    7  A    between atoms: C_8  and  C_9 
ROOT
HETATM    1  C   UNK N   1      -2.366   0.327  -0.048  0.00  0.00     0.146 C 
ENDROOT
BRANCH   1   2
HETATM    2  N   UNK N   1      -3.026   1.017   1.048  0.00  0.00    -0.420 N 
HETATM    3  H   UNK N   1      -2.838   1.660   1.817  0.00  0.00     0.150 HD
HETATM    4  H   UNK N   1      -4.017   0.776   1.048  0.00  0.00     0.150 HD
ENDBRANCH   1   2
BRANCH   1   5
HETATM    5  C   UNK N   1      -3.225  -0.789  -0.569  0.00  0.00     0.256 C 
HETATM    6  O   UNK N   1      -4.331  -1.015  -0.092  0.00  0.00    -0.305 OA
ENDBRANCH   1   5
BRANCH   1   7
HETATM    7  C   UNK N   1      -1.024  -0.204   0.441  0.00  0.00     0.117 C 
BRANCH   7   8
HETATM    8  S   UNK N   1       0.008  -0.779  -0.946  0.00  0.00    -0.095 SA
BRANCH   8   9
HETATM    9  S   UNK N   1       1.024  -2.218   0.254  0.00  0.00    -0.098 SA
BRANCH   9  10
HETATM   10  C   UNK N   1       2.245  -0.993   0.806  0.00  0.00     0.086 C 
BRANCH  10  11
HETATM   11  C   UNK N   1       3.383  -0.907  -0.190  0.00  0.00     0.006 C 
HETATM   12  C   UNK N   1       4.135   0.389   0.024  0.00  0.00     0.006 C 
ENDBRANCH  10  11
ENDBRANCH   9  10
ENDBRANCH   8   9
ENDBRANCH   7   8
ENDBRANCH   1   7
TORSDOF 7
