MODEL 1
REMARK VINA RESULT:      -3.9      0.000      0.000
REMARK  7 active torsions:
REMARK  status: ('A' for Active; 'I' for Inactive)
REMARK    1  A    between atoms: C_2  and  N_1 
REMARK    2  A    between atoms: C_2  and  C_3 
REMARK    3  A    between atoms: C_2  and  C_5 
REMARK    4  A    between atoms: C_5  and  S_6 
REMARK    5  A    between atoms: S_6  and  S_7 
REMARK    6  A    between atoms: S_7  and  C_8 
REMARK    7  A    between atoms: C_8  and  C_9 
ROOT
HETATM    1  C   UNK N   1      34.384  17.057   8.780  0.00  0.00     0.146 C 
ENDROOT
BRANCH   1   2
HETATM    2  N   UNK N   1      34.763  17.113  10.182  0.00  0.00    -0.420 N 
HETATM    3  H   UNK N   1      35.362  17.626  10.828  0.00  0.00     0.150 HD
HETATM    4  H   UNK N   1      34.255  16.393  10.696  0.00  0.00     0.150 HD
ENDBRANCH   1   2
BRANCH   1   5
HETATM    5  C   UNK N   1      34.520  18.407   8.137  0.00  0.00     0.256 C 
HETATM    6  O   UNK N   1      35.319  19.234   8.560  0.00  0.00    -0.305 OA
ENDBRANCH   1   5
BRANCH   1   7
HETATM    7  C   UNK N   1      32.950  16.549   8.677  0.00  0.00     0.117 C 
BRANCH   7   8
HETATM    8  S   UNK N   1      31.779  17.918   8.406  0.00  0.00    -0.095 SA
BRANCH   8   9
HETATM    9  S   UNK N   1      30.439  16.703   7.278  0.00  0.00    -0.098 SA
BRANCH   9  10
HETATM   10  C   UNK N   1      29.200  18.027   7.199  0.00  0.00     0.086 C 
BRANCH  10  11
HETATM   11  C   UNK N   1      28.836  18.484   8.596  0.00  0.00     0.006 C 
HETATM   12  C   UNK N   1      28.118  17.362   9.315  0.00  0.00     0.006 C 
ENDBRANCH  10  11
ENDBRANCH   9  10
ENDBRANCH   8   9
ENDBRANCH   7   8
ENDBRANCH   1   7
TORSDOF 7
ENDMDL
MODEL 2
REMARK VINA RESULT:      -3.8      2.502      3.178
REMARK  7 active torsions:
REMARK  status: ('A' for Active; 'I' for Inactive)
REMARK    1  A    between atoms: C_2  and  N_1 
REMARK    2  A    between atoms: C_2  and  C_3 
REMARK    3  A    between atoms: C_2  and  C_5 
REMARK    4  A    between atoms: C_5  and  S_6 
REMARK    5  A    between atoms: S_6  and  S_7 
REMARK    6  A    between atoms: S_7  and  C_8 
REMARK    7  A    between atoms: C_8  and  C_9 
ROOT
HETATM    1  C   UNK N   1      34.496  17.061   8.862  0.00  0.00     0.146 C 
ENDROOT
BRANCH   1   2
HETATM    2  N   UNK N   1      34.830  17.176  10.272  0.00  0.00    -0.420 N 
HETATM    3  H   UNK N   1      34.468  16.958  11.200  0.00  0.00     0.150 HD
HETATM    4  H   UNK N   1      35.738  17.632  10.366  0.00  0.00     0.150 HD
ENDBRANCH   1   2
BRANCH   1   5
HETATM    5  C   UNK N   1      34.557  18.402   8.189  0.00  0.00     0.256 C 
HETATM    6  O   UNK N   1      35.337  19.268   8.568  0.00  0.00    -0.305 OA
ENDBRANCH   1   5
BRANCH   1   7
HETATM    7  C   UNK N   1      33.106  16.452   8.733  0.00  0.00     0.117 C 
BRANCH   7   8
HETATM    8  S   UNK N   1      32.105  17.335   7.493  0.00  0.00    -0.095 SA
BRANCH   8   9
HETATM    9  S   UNK N   1      31.748  15.570   6.353  0.00  0.00    -0.098 SA
BRANCH   9  10
HETATM   10  C   UNK N   1      31.008  16.519   4.994  0.00  0.00     0.086 C 
BRANCH  10  11
HETATM   11  C   UNK N   1      31.990  17.555   4.487  0.00  0.00     0.006 C 
HETATM   12  C   UNK N   1      32.745  16.989   3.304  0.00  0.00     0.006 C 
ENDBRANCH  10  11
ENDBRANCH   9  10
ENDBRANCH   8   9
ENDBRANCH   7   8
ENDBRANCH   1   7
TORSDOF 7
ENDMDL
MODEL 3
REMARK VINA RESULT:      -3.8     10.582     12.416
REMARK  7 active torsions:
REMARK  status: ('A' for Active; 'I' for Inactive)
REMARK    1  A    between atoms: C_2  and  N_1 
REMARK    2  A    between atoms: C_2  and  C_3 
REMARK    3  A    between atoms: C_2  and  C_5 
REMARK    4  A    between atoms: C_5  and  S_6 
REMARK    5  A    between atoms: S_6  and  S_7 
REMARK    6  A    between atoms: S_7  and  C_8 
REMARK    7  A    between atoms: C_8  and  C_9 
ROOT
HETATM    1  C   UNK N   1      20.500  20.030   2.146  0.00  0.00     0.146 C 
ENDROOT
BRANCH   1   2
HETATM    2  N   UNK N   1      20.299  18.699   1.597  0.00  0.00    -0.420 N 
HETATM    3  H   UNK N   1      19.575  18.094   1.211  0.00  0.00     0.150 HD
HETATM    4  H   UNK N   1      21.188  18.199   1.596  0.00  0.00     0.150 HD
ENDBRANCH   1   2
BRANCH   1   5
HETATM    5  C   UNK N   1      20.630  21.046   1.047  0.00  0.00     0.256 C 
HETATM    6  O   UNK N   1      21.136  20.754  -0.030  0.00  0.00    -0.305 OA
ENDBRANCH   1   5
BRANCH   1   7
HETATM    7  C   UNK N   1      21.744  20.019   3.025  0.00  0.00     0.117 C 
BRANCH   7   8
HETATM    8  S   UNK N   1      21.981  18.396   3.819  0.00  0.00    -0.095 SA
BRANCH   8   9
HETATM    9  S   UNK N   1      24.048  18.753   4.197  0.00  0.00    -0.098 SA
BRANCH   9  10
HETATM   10  C   UNK N   1      24.038  20.267   3.195  0.00  0.00     0.086 C 
BRANCH  10  11
HETATM   11  C   UNK N   1      25.418  20.522   2.624  0.00  0.00     0.006 C 
HETATM   12  C   UNK N   1      26.462  20.063   3.619  0.00  0.00     0.006 C 
ENDBRANCH  10  11
ENDBRANCH   9  10
ENDBRANCH   8   9
ENDBRANCH   7   8
ENDBRANCH   1   7
TORSDOF 7
ENDMDL
MODEL 4
REMARK VINA RESULT:      -3.7     10.716     11.156
REMARK  7 active torsions:
REMARK  status: ('A' for Active; 'I' for Inactive)
REMARK    1  A    between atoms: C_2  and  N_1 
REMARK    2  A    between atoms: C_2  and  C_3 
REMARK    3  A    between atoms: C_2  and  C_5 
REMARK    4  A    between atoms: C_5  and  S_6 
REMARK    5  A    between atoms: S_6  and  S_7 
REMARK    6  A    between atoms: S_7  and  C_8 
REMARK    7  A    between atoms: C_8  and  C_9 
ROOT
HETATM    1  C   UNK N   1      23.484  12.343  11.341  0.00  0.00     0.146 C 
ENDROOT
BRANCH   1   2
HETATM    2  N   UNK N   1      24.929  12.325  11.183  0.00  0.00    -0.420 N 
HETATM    3  H   UNK N   1      25.745  11.738  11.356  0.00  0.00     0.150 HD
HETATM    4  H   UNK N   1      25.230  13.198  10.750  0.00  0.00     0.150 HD
ENDBRANCH   1   2
BRANCH   1   5
HETATM    5  C   UNK N   1      23.092  11.875  12.712  0.00  0.00     0.256 C 
HETATM    6  O   UNK N   1      23.761  12.163  13.697  0.00  0.00    -0.305 OA
ENDBRANCH   1   5
BRANCH   1   7
HETATM    7  C   UNK N   1      22.860  11.460  10.267  0.00  0.00     0.117 C 
BRANCH   7   8
HETATM    8  S   UNK N   1      22.351  12.438   8.816  0.00  0.00    -0.095 SA
BRANCH   8   9
HETATM    9  S   UNK N   1      20.943  13.582   9.935  0.00  0.00    -0.098 SA
BRANCH   9  10
HETATM   10  C   UNK N   1      20.415  14.498   8.460  0.00  0.00     0.086 C 
BRANCH  10  11
HETATM   11  C   UNK N   1      20.755  15.967   8.609  0.00  0.00     0.006 C 
HETATM   12  C   UNK N   1      21.175  16.520   7.264  0.00  0.00     0.006 C 
ENDBRANCH  10  11
ENDBRANCH   9  10
ENDBRANCH   8   9
ENDBRANCH   7   8
ENDBRANCH   1   7
TORSDOF 7
ENDMDL
MODEL 5
REMARK VINA RESULT:      -3.5      6.336      7.717
REMARK  7 active torsions:
REMARK  status: ('A' for Active; 'I' for Inactive)
REMARK    1  A    between atoms: C_2  and  N_1 
REMARK    2  A    between atoms: C_2  and  C_3 
REMARK    3  A    between atoms: C_2  and  C_5 
REMARK    4  A    between atoms: C_5  and  S_6 
REMARK    5  A    between atoms: S_6  and  S_7 
REMARK    6  A    between atoms: S_7  and  C_8 
REMARK    7  A    between atoms: C_8  and  C_9 
ROOT
HETATM    1  C   UNK N   1      34.745  14.958  11.316  0.00  0.00     0.146 C 
ENDROOT
BRANCH   1   2
HETATM    2  N   UNK N   1      33.408  15.131  10.771  0.00  0.00    -0.420 N 
HETATM    3  H   UNK N   1      32.786  15.843  10.391  0.00  0.00     0.150 HD
HETATM    4  H   UNK N   1      32.928  14.231  10.769  0.00  0.00     0.150 HD
ENDBRANCH   1   2
BRANCH   1   5
HETATM    5  C   UNK N   1      35.775  15.543  10.394  0.00  0.00     0.256 C 
HETATM    6  O   UNK N   1      36.461  16.500  10.734  0.00  0.00    -0.305 OA
ENDBRANCH   1   5
BRANCH   1   7
HETATM    7  C   UNK N   1      34.997  13.472  11.538  0.00  0.00     0.117 C 
BRANCH   7   8
HETATM    8  S   UNK N   1      36.673  13.173  12.188  0.00  0.00    -0.095 SA
BRANCH   8   9
HETATM    9  S   UNK N   1      36.270  14.187  14.019  0.00  0.00    -0.098 SA
BRANCH   9  10
HETATM   10  C   UNK N   1      35.561  12.692  14.767  0.00  0.00     0.086 C 
BRANCH  10  11
HETATM   11  C   UNK N   1      34.696  13.064  15.953  0.00  0.00     0.006 C 
HETATM   12  C   UNK N   1      35.273  12.438  17.205  0.00  0.00     0.006 C 
ENDBRANCH  10  11
ENDBRANCH   9  10
ENDBRANCH   8   9
ENDBRANCH   7   8
ENDBRANCH   1   7
TORSDOF 7
ENDMDL
MODEL 6
REMARK VINA RESULT:      -3.5      3.519      3.925
REMARK  7 active torsions:
REMARK  status: ('A' for Active; 'I' for Inactive)
REMARK    1  A    between atoms: C_2  and  N_1 
REMARK    2  A    between atoms: C_2  and  C_3 
REMARK    3  A    between atoms: C_2  and  C_5 
REMARK    4  A    between atoms: C_5  and  S_6 
REMARK    5  A    between atoms: S_6  and  S_7 
REMARK    6  A    between atoms: S_7  and  C_8 
REMARK    7  A    between atoms: C_8  and  C_9 
ROOT
HETATM    1  C   UNK N   1      34.566  15.275  10.003  0.00  0.00     0.146 C 
ENDROOT
BRANCH   1   2
HETATM    2  N   UNK N   1      33.428  15.000  10.863  0.00  0.00    -0.420 N 
HETATM    3  H   UNK N   1      32.464  15.287  11.030  0.00  0.00     0.150 HD
HETATM    4  H   UNK N   1      33.679  14.268  11.528  0.00  0.00     0.150 HD
ENDBRANCH   1   2
BRANCH   1   5
HETATM    5  C   UNK N   1      35.302  16.499  10.467  0.00  0.00     0.256 C 
HETATM    6  O   UNK N   1      36.482  16.446  10.791  0.00  0.00    -0.305 OA
ENDBRANCH   1   5
BRANCH   1   7
HETATM    7  C   UNK N   1      34.072  15.449   8.572  0.00  0.00     0.117 C 
BRANCH   7   8
HETATM    8  S   UNK N   1      32.276  15.750   8.522  0.00  0.00    -0.095 SA
BRANCH   8   9
HETATM    9  S   UNK N   1      32.518  17.828   8.112  0.00  0.00    -0.098 SA
BRANCH   9  10
HETATM   10  C   UNK N   1      33.899  17.510   6.977  0.00  0.00     0.086 C 
BRANCH  10  11
HETATM   11  C   UNK N   1      33.408  17.524   5.544  0.00  0.00     0.006 C 
HETATM   12  C   UNK N   1      33.671  16.172   4.915  0.00  0.00     0.006 C 
ENDBRANCH  10  11
ENDBRANCH   9  10
ENDBRANCH   8   9
ENDBRANCH   7   8
ENDBRANCH   1   7
TORSDOF 7
ENDMDL
MODEL 7
REMARK VINA RESULT:      -3.5     11.421     11.936
REMARK  7 active torsions:
REMARK  status: ('A' for Active; 'I' for Inactive)
REMARK    1  A    between atoms: C_2  and  N_1 
REMARK    2  A    between atoms: C_2  and  C_3 
REMARK    3  A    between atoms: C_2  and  C_5 
REMARK    4  A    between atoms: C_5  and  S_6 
REMARK    5  A    between atoms: S_6  and  S_7 
REMARK    6  A    between atoms: S_7  and  C_8 
REMARK    7  A    between atoms: C_8  and  C_9 
ROOT
HETATM    1  C   UNK N   1      22.314  11.991  10.943  0.00  0.00     0.146 C 
ENDROOT
BRANCH   1   2
HETATM    2  N   UNK N   1      21.013  11.899  11.584  0.00  0.00    -0.420 N 
HETATM    3  H   UNK N   1      20.540  12.097  12.466  0.00  0.00     0.150 HD
HETATM    4  H   UNK N   1      20.343  11.498  10.928  0.00  0.00     0.150 HD
ENDBRANCH   1   2
BRANCH   1   5
HETATM    5  C   UNK N   1      23.414  11.987  11.965  0.00  0.00     0.256 C 
HETATM    6  O   UNK N   1      23.167  11.920  13.164  0.00  0.00    -0.305 OA
ENDBRANCH   1   5
BRANCH   1   7
HETATM    7  C   UNK N   1      22.360  13.261  10.102  0.00  0.00     0.117 C 
BRANCH   7   8
HETATM    8  S   UNK N   1      20.687  13.909   9.786  0.00  0.00    -0.095 SA
BRANCH   8   9
HETATM    9  S   UNK N   1      21.286  14.913   8.003  0.00  0.00    -0.098 SA
BRANCH   9  10
HETATM   10  C   UNK N   1      20.545  16.475   8.556  0.00  0.00     0.086 C 
BRANCH  10  11
HETATM   11  C   UNK N   1      19.129  16.595   8.030  0.00  0.00     0.006 C 
HETATM   12  C   UNK N   1      18.220  17.053   9.150  0.00  0.00     0.006 C 
ENDBRANCH  10  11
ENDBRANCH   9  10
ENDBRANCH   8   9
ENDBRANCH   7   8
ENDBRANCH   1   7
TORSDOF 7
ENDMDL
MODEL 8
REMARK VINA RESULT:      -3.2     14.257     15.176
REMARK  7 active torsions:
REMARK  status: ('A' for Active; 'I' for Inactive)
REMARK    1  A    between atoms: C_2  and  N_1 
REMARK    2  A    between atoms: C_2  and  C_3 
REMARK    3  A    between atoms: C_2  and  C_5 
REMARK    4  A    between atoms: C_5  and  S_6 
REMARK    5  A    between atoms: S_6  and  S_7 
REMARK    6  A    between atoms: S_7  and  C_8 
REMARK    7  A    between atoms: C_8  and  C_9 
ROOT
HETATM    1  C   UNK N   1      30.394  23.321  -3.852  0.00  0.00     0.146 C 
ENDROOT
BRANCH   1   2
HETATM    2  N   UNK N   1      29.681  22.513  -4.828  0.00  0.00    -0.420 N 
HETATM    3  H   UNK N   1      28.838  21.948  -4.936  0.00  0.00     0.150 HD
HETATM    4  H   UNK N   1      30.201  22.508  -5.705  0.00  0.00     0.150 HD
ENDBRANCH   1   2
BRANCH   1   5
HETATM    5  C   UNK N   1      30.629  22.545  -2.588  0.00  0.00     0.256 C 
HETATM    6  O   UNK N   1      30.503  23.071  -1.488  0.00  0.00    -0.305 OA
ENDBRANCH   1   5
BRANCH   1   7
HETATM    7  C   UNK N   1      29.586  24.582  -3.573  0.00  0.00     0.117 C 
BRANCH   7   8
HETATM    8  S   UNK N   1      27.800  24.285  -3.773  0.00  0.00    -0.095 SA
BRANCH   8   9
HETATM    9  S   UNK N   1      27.634  25.659  -5.394  0.00  0.00    -0.098 SA
BRANCH   9  10
HETATM   10  C   UNK N   1      25.885  25.246  -5.652  0.00  0.00     0.086 C 
BRANCH  10  11
HETATM   11  C   UNK N   1      25.044  26.506  -5.628  0.00  0.00     0.006 C 
HETATM   12  C   UNK N   1      25.956  27.712  -5.570  0.00  0.00     0.006 C 
ENDBRANCH  10  11
ENDBRANCH   9  10
ENDBRANCH   8   9
ENDBRANCH   7   8
ENDBRANCH   1   7
TORSDOF 7
ENDMDL
MODEL 9
REMARK VINA RESULT:      -3.2      4.168      6.480
REMARK  7 active torsions:
REMARK  status: ('A' for Active; 'I' for Inactive)
REMARK    1  A    between atoms: C_2  and  N_1 
REMARK    2  A    between atoms: C_2  and  C_3 
REMARK    3  A    between atoms: C_2  and  C_5 
REMARK    4  A    between atoms: C_5  and  S_6 
REMARK    5  A    between atoms: S_6  and  S_7 
REMARK    6  A    between atoms: S_7  and  C_8 
REMARK    7  A    between atoms: C_8  and  C_9 
ROOT
HETATM    1  C   UNK N   1      33.785  17.289   8.716  0.00  0.00     0.146 C 
ENDROOT
BRANCH   1   2
HETATM    2  N   UNK N   1      32.372  17.551   8.936  0.00  0.00    -0.420 N 
HETATM    3  H   UNK N   1      31.611  17.341   9.581  0.00  0.00     0.150 HD
HETATM    4  H   UNK N   1      32.021  18.150   8.188  0.00  0.00     0.150 HD
ENDBRANCH   1   2
BRANCH   1   5
HETATM    5  C   UNK N   1      34.068  17.091   7.254  0.00  0.00     0.256 C 
HETATM    6  O   UNK N   1      34.324  18.040   6.523  0.00  0.00    -0.305 OA
ENDBRANCH   1   5
BRANCH   1   7
HETATM    7  C   UNK N   1      34.189  16.059   9.519  0.00  0.00     0.117 C 
BRANCH   7   8
HETATM    8  S   UNK N   1      35.456  16.465  10.763  0.00  0.00    -0.095 SA
BRANCH   8   9
HETATM    9  S   UNK N   1      36.666  14.788  10.248  0.00  0.00    -0.098 SA
BRANCH   9  10
HETATM   10  C   UNK N   1      36.284  13.948  11.812  0.00  0.00     0.086 C 
BRANCH  10  11
HETATM   11  C   UNK N   1      37.159  12.722  11.971  0.00  0.00     0.006 C 
HETATM   12  C   UNK N   1      38.203  12.709  10.876  0.00  0.00     0.006 C 
ENDBRANCH  10  11
ENDBRANCH   9  10
ENDBRANCH   8   9
ENDBRANCH   7   8
ENDBRANCH   1   7
TORSDOF 7
ENDMDL
