REMARK  4 active torsions:
REMARK  status: ('A' for Active; 'I' for Inactive)
REMARK    1  A    between atoms: C_6  and  C_8 
REMARK       I    between atoms: C_11  and  N_16 
REMARK    2  A    between atoms: N_16  and  C_17 
REMARK    3  A    between atoms: C_19  and  N_24 
REMARK       I    between atoms: N_24  and  C_25 
REMARK    4  A    between atoms: C_25  and  C_26 
ROOT
HETATM    1  C   UNK N   1      -1.589   0.144   0.000  0.00  0.00     0.057 A 
HETATM    2  C   UNK N   1      -1.290  -1.206  -0.000  0.00  0.00     0.060 A 
HETATM    3  C   UNK N   1      -2.256  -2.203  -0.000  0.00  0.00     0.037 A 
HETATM    4  C   UNK N   1      -3.602  -1.829   0.000  0.00  0.00     0.030 A 
HETATM    5  C   UNK N   1      -3.947  -0.467   0.001  0.00  0.00     0.011 A 
HETATM    6  C   UNK N   1      -2.955   0.532   0.001  0.00  0.00    -0.035 A 
HETATM    7  C   UNK N   1      -3.410   1.944   0.002  0.00  0.00     0.050 C 
ENDROOT
BRANCH   1   8
HETATM    8  N   UNK N   1      -0.444   0.986   0.000  0.00  0.00    -0.191 N 
HETATM    9  C   UNK N   1      -0.134   2.365  -0.000  0.00  0.00     0.683 A 
HETATM   10  N   UNK N   1       1.178   2.706   0.000  0.00  0.00    -0.191 N 
HETATM   11  N   UNK N   1      -1.081   3.336  -0.002  0.00  0.00    -0.202 N 
HETATM   12  C   UNK N   1       1.587   3.997  -0.000  0.00  0.00     0.062 A 
ATOM     13  HN  UNK N   1       1.880   1.966   0.001  1.00  0.00     0.184 HD
HETATM   14  C   UNK N   1       0.626   5.012  -0.002  0.00  0.00     0.048 A 
HETATM   15  C   UNK N   1      -0.725   4.650  -0.002  0.00  0.00     0.108 A 
ATOM     16  HN  UNK N   1      -2.068   3.080  -0.002  1.00  0.00     0.183 HD
HETATM   17  H   UNK N   1       0.380   0.448   0.001  0.00  0.00     0.184 HD
BRANCH  12  18
HETATM   18  C   UNK N   1       3.036   4.290   0.000  0.00  0.00     0.007 A 
HETATM   19  C   UNK N   1       3.962   3.235   0.001  0.00  0.00     0.101 A 
HETATM   20  N   UNK N   1       5.298   3.488   0.001  0.00  0.00    -0.374 N 
HETATM   21  C   UNK N   1       5.776   4.761   0.001  0.00  0.00     0.087 A 
ATOM     22  HN  UNK N   1       5.955   2.708   0.002  1.00  0.00     0.164 HD
HETATM   23  C   UNK N   1       4.892   5.842  -0.000  0.00  0.00     0.018 A 
HETATM   24  C   UNK N   1       3.517   5.604  -0.000  0.00  0.00     0.016 A 
ENDBRANCH  12  18
ENDBRANCH   1   8
BRANCH   3  25
HETATM   25  N   UNK N   1      -1.876  -3.582  -0.000  0.00  0.00    -0.323 N 
HETATM   26  C   UNK N   1      -0.578  -4.022  -0.001  0.00  0.00     0.257 C 
HETATM   27  O   UNK N   1       0.354  -3.229  -0.001  0.00  0.00    -0.267 OA
HETATM   28  H   UNK N   1      -2.592  -4.257  -0.001  0.00  0.00     0.169 HD
BRANCH  26  29
HETATM   29  C   UNK N   1      -0.267  -5.463  -0.000  0.00  0.00     0.047 A 
HETATM   30  C   UNK N   1       1.070  -5.884  -0.000  0.00  0.00     0.020 A 
HETATM   31  C   UNK N   1       1.376  -7.242   0.000  0.00  0.00     0.018 A 
HETATM   32  C   UNK N   1       0.337  -8.172   0.000  0.00  0.00     0.087 A 
HETATM   33  N   UNK N   1      -0.958  -7.752   0.000  0.00  0.00    -0.374 N 
HETATM   34  C   UNK N   1      -1.278  -6.429  -0.000  0.00  0.00     0.104 A 
ATOM     35  HN  UNK N   1      -1.706  -8.445   0.000  1.00  0.00     0.164 HD
ENDBRANCH  26  29
ENDBRANCH   3  25
TORSDOF 4
