MODEL 1
REMARK VINA RESULT:      -9.1      0.000      0.000
REMARK  4 active torsions:
REMARK  status: ('A' for Active; 'I' for Inactive)
REMARK    1  A    between atoms: C_6  and  C_8 
REMARK       I    between atoms: C_11  and  N_16 
REMARK    2  A    between atoms: N_16  and  C_17 
REMARK    3  A    between atoms: C_19  and  N_24 
REMARK       I    between atoms: N_24  and  C_25 
REMARK    4  A    between atoms: C_25  and  C_26 
ROOT
HETATM    1  C   UNK N   1      35.139  14.221  11.010  0.00  0.00     0.057 A 
HETATM    2  C   UNK N   1      35.144  14.162  12.392  0.00  0.00     0.060 A 
HETATM    3  C   UNK N   1      36.118  13.500  13.125  0.00  0.00     0.037 A 
HETATM    4  C   UNK N   1      37.151  12.858  12.438  0.00  0.00     0.030 A 
HETATM    5  C   UNK N   1      37.182  12.894  11.034  0.00  0.00     0.011 A 
HETATM    6  C   UNK N   1      36.185  13.570  10.304  0.00  0.00    -0.035 A 
HETATM    7  C   UNK N   1      36.297  13.557   8.825  0.00  0.00     0.050 C 
ENDROOT
BRANCH   1   8
HETATM    8  N   UNK N   1      34.046  14.952  10.470  0.00  0.00    -0.191 N 
HETATM    9  C   UNK N   1      33.819  16.078   9.647  0.00  0.00     0.683 A 
HETATM   10  N   UNK N   1      32.529  16.412   9.395  0.00  0.00    -0.191 N 
HETATM   11  N   UNK N   1      34.822  16.820   9.116  0.00  0.00    -0.202 N 
HETATM   12  C   UNK N   1      32.198  17.472   8.620  0.00  0.00     0.062 A 
ATOM     13  HN  UNK N   1      31.785  15.846   9.802  1.00  0.00     0.184 HD
HETATM   14  C   UNK N   1      33.218  18.249   8.063  0.00  0.00     0.048 A 
HETATM   15  C   UNK N   1      34.545  17.896   8.329  0.00  0.00     0.108 A 
ATOM     16  HN  UNK N   1      35.792  16.569   9.305  1.00  0.00     0.183 HD
HETATM   17  H   UNK N   1      33.192  14.554  10.753  0.00  0.00     0.184 HD
BRANCH  12  18
HETATM   18  C   UNK N   1      30.769  17.773   8.391  0.00  0.00     0.007 A 
HETATM   19  C   UNK N   1      30.007  18.364   9.411  0.00  0.00     0.101 A 
HETATM   20  N   UNK N   1      28.692  18.647   9.216  0.00  0.00    -0.374 N 
HETATM   21  C   UNK N   1      28.077  18.369   8.035  0.00  0.00     0.087 A 
ATOM     22  HN  UNK N   1      28.155  19.075   9.970  1.00  0.00     0.164 HD
HETATM   23  C   UNK N   1      28.795  17.782   6.992  0.00  0.00     0.018 A 
HETATM   24  C   UNK N   1      30.146  17.483   7.172  0.00  0.00     0.016 A 
ENDBRANCH  12  18
ENDBRANCH   1   8
BRANCH   3  25
HETATM   25  N   UNK N   1      36.062  13.478  14.555  0.00  0.00    -0.323 N 
HETATM   26  C   UNK N   1      35.311  12.591  15.281  0.00  0.00     0.257 C 
HETATM   27  O   UNK N   1      34.627  11.743  14.724  0.00  0.00    -0.267 OA
HETATM   28  H   UNK N   1      36.595  14.143  15.047  0.00  0.00     0.169 HD
BRANCH  26  29
HETATM   29  C   UNK N   1      35.306  12.632  16.755  0.00  0.00     0.047 A 
HETATM   30  C   UNK N   1      35.318  11.434  17.482  0.00  0.00     0.020 A 
HETATM   31  C   UNK N   1      35.313  11.460  18.874  0.00  0.00     0.018 A 
HETATM   32  C   UNK N   1      35.295  12.691  19.530  0.00  0.00     0.087 A 
HETATM   33  N   UNK N   1      35.284  13.848  18.813  0.00  0.00    -0.374 N 
HETATM   34  C   UNK N   1      35.288  13.844  17.452  0.00  0.00     0.104 A 
ATOM     35  HN  UNK N   1      35.271  14.740  19.308  1.00  0.00     0.164 HD
ENDBRANCH  26  29
ENDBRANCH   3  25
TORSDOF 4
ENDMDL
MODEL 2
REMARK VINA RESULT:      -8.8      1.980      9.612
REMARK  4 active torsions:
REMARK  status: ('A' for Active; 'I' for Inactive)
REMARK    1  A    between atoms: C_6  and  C_8 
REMARK       I    between atoms: C_11  and  N_16 
REMARK    2  A    between atoms: N_16  and  C_17 
REMARK    3  A    between atoms: C_19  and  N_24 
REMARK       I    between atoms: N_24  and  C_25 
REMARK    4  A    between atoms: C_25  and  C_26 
ROOT
HETATM    1  C   UNK N   1      35.366  14.359  11.254  0.00  0.00     0.057 A 
HETATM    2  C   UNK N   1      34.282  15.129  10.874  0.00  0.00     0.060 A 
HETATM    3  C   UNK N   1      34.111  15.628   9.590  0.00  0.00     0.037 A 
HETATM    4  C   UNK N   1      35.081  15.339   8.627  0.00  0.00     0.030 A 
HETATM    5  C   UNK N   1      36.197  14.559   8.973  0.00  0.00     0.011 A 
HETATM    6  C   UNK N   1      36.356  14.061  10.281  0.00  0.00    -0.035 A 
HETATM    7  C   UNK N   1      37.565  13.247  10.558  0.00  0.00     0.050 C 
ENDROOT
BRANCH   1   8
HETATM    8  N   UNK N   1      35.336  13.957  12.617  0.00  0.00    -0.191 N 
HETATM    9  C   UNK N   1      34.936  12.846  13.394  0.00  0.00     0.683 A 
HETATM   10  N   UNK N   1      35.114  12.930  14.735  0.00  0.00    -0.191 N 
HETATM   11  N   UNK N   1      34.392  11.726  12.856  0.00  0.00    -0.202 N 
HETATM   12  C   UNK N   1      34.766  11.924  15.572  0.00  0.00     0.062 A 
ATOM     13  HN  UNK N   1      35.523  13.778  15.126  1.00  0.00     0.184 HD
HETATM   14  C   UNK N   1      34.204  10.761  15.037  0.00  0.00     0.048 A 
HETATM   15  C   UNK N   1      34.025  10.684  13.652  0.00  0.00     0.108 A 
ATOM     16  HN  UNK N   1      34.258  11.662  11.847  1.00  0.00     0.183 HD
HETATM   17  H   UNK N   1      35.704  14.665  13.193  0.00  0.00     0.184 HD
BRANCH  12  18
HETATM   18  C   UNK N   1      34.991  12.089  17.024  0.00  0.00     0.007 A 
HETATM   19  C   UNK N   1      34.994  13.375  17.588  0.00  0.00     0.101 A 
HETATM   20  N   UNK N   1      35.199  13.543  18.922  0.00  0.00    -0.374 N 
HETATM   21  C   UNK N   1      35.407  12.481  19.745  0.00  0.00     0.087 A 
ATOM     22  HN  UNK N   1      35.199  14.485  19.313  1.00  0.00     0.164 HD
HETATM   23  C   UNK N   1      35.412  11.184  19.228  0.00  0.00     0.018 A 
HETATM   24  C   UNK N   1      35.204  10.989  17.862  0.00  0.00     0.016 A 
ENDBRANCH  12  18
ENDBRANCH   1   8
BRANCH   3  25
HETATM   25  N   UNK N   1      32.965  16.420   9.265  0.00  0.00    -0.323 N 
HETATM   26  C   UNK N   1      31.930  15.987   8.478  0.00  0.00     0.257 C 
HETATM   27  O   UNK N   1      31.934  14.862   7.998  0.00  0.00    -0.267 OA
HETATM   28  H   UNK N   1      32.919  17.333   9.628  0.00  0.00     0.169 HD
BRANCH  26  29
HETATM   29  C   UNK N   1      30.781  16.865   8.189  0.00  0.00     0.047 A 
HETATM   30  C   UNK N   1      30.344  17.778   9.159  0.00  0.00     0.020 A 
HETATM   31  C   UNK N   1      29.260  18.610   8.899  0.00  0.00     0.018 A 
HETATM   32  C   UNK N   1      28.618  18.523   7.664  0.00  0.00     0.087 A 
HETATM   33  N   UNK N   1      29.051  17.633   6.729  0.00  0.00    -0.374 N 
HETATM   34  C   UNK N   1      30.109  16.810   6.964  0.00  0.00     0.104 A 
ATOM     35  HN  UNK N   1      28.571  17.581   5.831  1.00  0.00     0.164 HD
ENDBRANCH  26  29
ENDBRANCH   3  25
TORSDOF 4
ENDMDL
MODEL 3
REMARK VINA RESULT:      -8.1      3.031      9.805
REMARK  4 active torsions:
REMARK  status: ('A' for Active; 'I' for Inactive)
REMARK    1  A    between atoms: C_6  and  C_8 
REMARK       I    between atoms: C_11  and  N_16 
REMARK    2  A    between atoms: N_16  and  C_17 
REMARK    3  A    between atoms: C_19  and  N_24 
REMARK       I    between atoms: N_24  and  C_25 
REMARK    4  A    between atoms: C_25  and  C_26 
ROOT
HETATM    1  C   UNK N   1      36.610  14.305   9.229  0.00  0.00     0.057 A 
HETATM    2  C   UNK N   1      35.448  14.751   8.627  0.00  0.00     0.060 A 
HETATM    3  C   UNK N   1      35.258  14.768   7.252  0.00  0.00     0.037 A 
HETATM    4  C   UNK N   1      36.291  14.313   6.429  0.00  0.00     0.030 A 
HETATM    5  C   UNK N   1      37.488  13.853   7.003  0.00  0.00     0.011 A 
HETATM    6  C   UNK N   1      37.665  13.841   8.399  0.00  0.00    -0.035 A 
HETATM    7  C   UNK N   1      38.960  13.339   8.918  0.00  0.00     0.050 C 
ENDROOT
BRANCH   1   8
HETATM    8  N   UNK N   1      36.585  14.377  10.648  0.00  0.00    -0.191 N 
HETATM    9  C   UNK N   1      36.767  13.527  11.763  0.00  0.00     0.683 A 
HETATM   10  N   UNK N   1      36.636  14.081  12.993  0.00  0.00    -0.191 N 
HETATM   11  N   UNK N   1      37.058  12.207  11.647  0.00  0.00    -0.202 N 
HETATM   12  C   UNK N   1      36.789  13.358  14.129  0.00  0.00     0.062 A 
ATOM     13  HN  UNK N   1      36.416  15.074  13.067  1.00  0.00     0.184 HD
HETATM   14  C   UNK N   1      37.090  11.997  14.030  0.00  0.00     0.048 A 
HETATM   15  C   UNK N   1      37.223  11.435  12.756  0.00  0.00     0.108 A 
ATOM     16  HN  UNK N   1      37.157  11.791  10.722  1.00  0.00     0.183 HD
HETATM   17  H   UNK N   1      36.381  15.293  10.944  0.00  0.00     0.184 HD
BRANCH  12  18
HETATM   18  C   UNK N   1      36.632  14.033  15.435  0.00  0.00     0.007 A 
HETATM   19  C   UNK N   1      35.751  13.504  16.392  0.00  0.00     0.101 A 
HETATM   20  N   UNK N   1      35.595  14.113  17.598  0.00  0.00    -0.374 N 
HETATM   21  C   UNK N   1      36.280  15.245  17.912  0.00  0.00     0.087 A 
ATOM     22  HN  UNK N   1      34.951  13.714  18.280  1.00  0.00     0.164 HD
HETATM   23  C   UNK N   1      37.167  15.807  16.991  0.00  0.00     0.018 A 
HETATM   24  C   UNK N   1      37.342  15.197  15.747  0.00  0.00     0.016 A 
ENDBRANCH  12  18
ENDBRANCH   1   8
BRANCH   3  25
HETATM   25  N   UNK N   1      34.029  15.244   6.694  0.00  0.00    -0.323 N 
HETATM   26  C   UNK N   1      33.802  16.546   6.332  0.00  0.00     0.257 C 
HETATM   27  O   UNK N   1      34.670  17.397   6.470  0.00  0.00    -0.267 OA
HETATM   28  H   UNK N   1      33.301  14.595   6.565  0.00  0.00     0.169 HD
BRANCH  26  29
HETATM   29  C   UNK N   1      32.506  16.958   5.762  0.00  0.00     0.047 A 
HETATM   30  C   UNK N   1      31.329  16.751   6.495  0.00  0.00     0.020 A 
HETATM   31  C   UNK N   1      30.100  17.135   5.967  0.00  0.00     0.018 A 
HETATM   32  C   UNK N   1      30.058  17.726   4.705  0.00  0.00     0.087 A 
HETATM   33  N   UNK N   1      31.207  17.922   4.002  0.00  0.00    -0.374 N 
HETATM   34  C   UNK N   1      32.419  17.553   4.500  0.00  0.00     0.104 A 
ATOM     35  HN  UNK N   1      31.159  18.355   3.080  1.00  0.00     0.164 HD
ENDBRANCH  26  29
ENDBRANCH   3  25
TORSDOF 4
ENDMDL
MODEL 4
REMARK VINA RESULT:      -7.9      6.053     10.697
REMARK  4 active torsions:
REMARK  status: ('A' for Active; 'I' for Inactive)
REMARK    1  A    between atoms: C_6  and  C_8 
REMARK       I    between atoms: C_11  and  N_16 
REMARK    2  A    between atoms: N_16  and  C_17 
REMARK    3  A    between atoms: C_19  and  N_24 
REMARK       I    between atoms: N_24  and  C_25 
REMARK    4  A    between atoms: C_25  and  C_26 
ROOT
HETATM    1  C   UNK N   1      26.482  16.434   5.999  0.00  0.00     0.057 A 
HETATM    2  C   UNK N   1      27.706  16.649   6.605  0.00  0.00     0.060 A 
HETATM    3  C   UNK N   1      28.743  17.351   6.006  0.00  0.00     0.037 A 
HETATM    4  C   UNK N   1      28.546  17.869   4.724  0.00  0.00     0.030 A 
HETATM    5  C   UNK N   1      27.316  17.672   4.074  0.00  0.00     0.011 A 
HETATM    6  C   UNK N   1      26.274  16.957   4.695  0.00  0.00    -0.035 A 
HETATM    7  C   UNK N   1      25.010  16.797   3.935  0.00  0.00     0.050 C 
ENDROOT
BRANCH   1   8
HETATM    8  N   UNK N   1      25.569  15.691   6.795  0.00  0.00    -0.191 N 
HETATM    9  C   UNK N   1      25.051  14.378   6.880  0.00  0.00     0.683 A 
HETATM   10  N   UNK N   1      24.152  14.129   7.863  0.00  0.00    -0.191 N 
HETATM   11  N   UNK N   1      25.412  13.384   6.031  0.00  0.00    -0.202 N 
HETATM   12  C   UNK N   1      23.593  12.907   8.035  0.00  0.00     0.062 A 
ATOM     13  HN  UNK N   1      23.888  14.885   8.495  1.00  0.00     0.184 HD
HETATM   14  C   UNK N   1      23.952  11.870   7.170  0.00  0.00     0.048 A 
HETATM   15  C   UNK N   1      24.881  12.137   6.159  0.00  0.00     0.108 A 
ATOM     16  HN  UNK N   1      26.088  13.572   5.291  1.00  0.00     0.183 HD
HETATM   17  H   UNK N   1      25.182  16.260   7.499  0.00  0.00     0.184 HD
BRANCH  12  18
HETATM   18  C   UNK N   1      22.619  12.712   9.130  0.00  0.00     0.007 A 
HETATM   19  C   UNK N   1      22.858  11.738  10.112  0.00  0.00     0.101 A 
HETATM   20  N   UNK N   1      21.973  11.546  11.126  0.00  0.00    -0.374 N 
HETATM   21  C   UNK N   1      20.836  12.286  11.220  0.00  0.00     0.087 A 
ATOM     22  HN  UNK N   1      22.164  10.833  11.829  1.00  0.00     0.164 HD
HETATM   23  C   UNK N   1      20.556  13.266  10.266  0.00  0.00     0.018 A 
HETATM   24  C   UNK N   1      21.452  13.479   9.218  0.00  0.00     0.016 A 
ENDBRANCH  12  18
ENDBRANCH   1   8
BRANCH   3  25
HETATM   25  N   UNK N   1      29.985  17.536   6.692  0.00  0.00    -0.323 N 
HETATM   26  C   UNK N   1      30.921  16.550   6.867  0.00  0.00     0.257 C 
HETATM   27  O   UNK N   1      30.735  15.422   6.430  0.00  0.00    -0.267 OA
HETATM   28  H   UNK N   1      30.179  18.427   7.061  0.00  0.00     0.169 HD
BRANCH  26  29
HETATM   29  C   UNK N   1      32.180  16.821   7.585  0.00  0.00     0.047 A 
HETATM   30  C   UNK N   1      33.109  17.719   7.043  0.00  0.00     0.020 A 
HETATM   31  C   UNK N   1      34.301  17.982   7.712  0.00  0.00     0.018 A 
HETATM   32  C   UNK N   1      34.555  17.340   8.923  0.00  0.00     0.087 A 
HETATM   33  N   UNK N   1      33.646  16.469   9.441  0.00  0.00    -0.374 N 
HETATM   34  C   UNK N   1      32.475  16.199   8.803  0.00  0.00     0.104 A 
ATOM     35  HN  UNK N   1      33.848  16.008  10.328  1.00  0.00     0.164 HD
ENDBRANCH  26  29
ENDBRANCH   3  25
TORSDOF 4
ENDMDL
MODEL 5
REMARK VINA RESULT:      -7.8      6.653     11.223
REMARK  4 active torsions:
REMARK  status: ('A' for Active; 'I' for Inactive)
REMARK    1  A    between atoms: C_6  and  C_8 
REMARK       I    between atoms: C_11  and  N_16 
REMARK    2  A    between atoms: N_16  and  C_17 
REMARK    3  A    between atoms: C_19  and  N_24 
REMARK       I    between atoms: N_24  and  C_25 
REMARK    4  A    between atoms: C_25  and  C_26 
ROOT
HETATM    1  C   UNK N   1      26.044  15.873   5.536  0.00  0.00     0.057 A 
HETATM    2  C   UNK N   1      25.273  15.399   6.581  0.00  0.00     0.060 A 
HETATM    3  C   UNK N   1      23.928  15.078   6.455  0.00  0.00     0.037 A 
HETATM    4  C   UNK N   1      23.317  15.239   5.209  0.00  0.00     0.030 A 
HETATM    5  C   UNK N   1      24.067  15.719   4.122  0.00  0.00     0.011 A 
HETATM    6  C   UNK N   1      25.430  16.041   4.267  0.00  0.00    -0.035 A 
HETATM    7  C   UNK N   1      26.143  16.541   3.066  0.00  0.00     0.050 C 
ENDROOT
BRANCH   1   8
HETATM    8  N   UNK N   1      27.395  16.136   5.892  0.00  0.00    -0.191 N 
HETATM    9  C   UNK N   1      28.119  16.884   6.847  0.00  0.00     0.683 A 
HETATM   10  N   UNK N   1      29.472  16.820   6.790  0.00  0.00    -0.191 N 
HETATM   11  N   UNK N   1      27.523  17.648   7.796  0.00  0.00    -0.202 N 
HETATM   12  C   UNK N   1      30.263  17.496   7.656  0.00  0.00     0.062 A 
ATOM     13  HN  UNK N   1      29.908  16.242   6.071  1.00  0.00     0.184 HD
HETATM   14  C   UNK N   1      29.667  18.288   8.641  0.00  0.00     0.048 A 
HETATM   15  C   UNK N   1      28.271  18.348   8.693  0.00  0.00     0.108 A 
ATOM     16  HN  UNK N   1      26.505  17.697   7.840  1.00  0.00     0.183 HD
HETATM   17  H   UNK N   1      28.010  15.653   5.295  0.00  0.00     0.184 HD
BRANCH  12  18
HETATM   18  C   UNK N   1      31.731  17.375   7.530  0.00  0.00     0.007 A 
HETATM   19  C   UNK N   1      32.535  17.394   8.681  0.00  0.00     0.101 A 
HETATM   20  N   UNK N   1      33.887  17.284   8.581  0.00  0.00    -0.374 N 
HETATM   21  C   UNK N   1      34.498  17.155   7.374  0.00  0.00     0.087 A 
ATOM     22  HN  UNK N   1      34.454  17.300   9.429  1.00  0.00     0.164 HD
HETATM   23  C   UNK N   1      33.739  17.132   6.202  0.00  0.00     0.018 A 
HETATM   24  C   UNK N   1      32.350  17.243   6.282  0.00  0.00     0.016 A 
ENDBRANCH  12  18
ENDBRANCH   1   8
BRANCH   3  25
HETATM   25  N   UNK N   1      23.189  14.592   7.579  0.00  0.00    -0.323 N 
HETATM   26  C   UNK N   1      23.263  13.307   8.050  0.00  0.00     0.257 C 
HETATM   27  O   UNK N   1      23.991  12.482   7.515  0.00  0.00    -0.267 OA
HETATM   28  H   UNK N   1      22.589  15.219   8.041  0.00  0.00     0.169 HD
BRANCH  26  29
HETATM   29  C   UNK N   1      22.468  12.882   9.217  0.00  0.00     0.047 A 
HETATM   30  C   UNK N   1      21.213  13.461   9.450  0.00  0.00     0.020 A 
HETATM   31  C   UNK N   1      20.454  13.069  10.549  0.00  0.00     0.018 A 
HETATM   32  C   UNK N   1      20.960  12.096  11.410  0.00  0.00     0.087 A 
HETATM   33  N   UNK N   1      22.180  11.540  11.175  0.00  0.00    -0.374 N 
HETATM   34  C   UNK N   1      22.937  11.910  10.106  0.00  0.00     0.104 A 
ATOM     35  HN  UNK N   1      22.535  10.829  11.814  1.00  0.00     0.164 HD
ENDBRANCH  26  29
ENDBRANCH   3  25
TORSDOF 4
ENDMDL
MODEL 6
REMARK VINA RESULT:      -7.8      6.017     12.861
REMARK  4 active torsions:
REMARK  status: ('A' for Active; 'I' for Inactive)
REMARK    1  A    between atoms: C_6  and  C_8 
REMARK       I    between atoms: C_11  and  N_16 
REMARK    2  A    between atoms: N_16  and  C_17 
REMARK    3  A    between atoms: C_19  and  N_24 
REMARK       I    between atoms: N_24  and  C_25 
REMARK    4  A    between atoms: C_25  and  C_26 
ROOT
HETATM    1  C   UNK N   1      27.956  18.025   4.922  0.00  0.00     0.057 A 
HETATM    2  C   UNK N   1      27.522  17.023   4.074  0.00  0.00     0.060 A 
HETATM    3  C   UNK N   1      26.372  17.120   3.301  0.00  0.00     0.037 A 
HETATM    4  C   UNK N   1      25.611  18.289   3.381  0.00  0.00     0.030 A 
HETATM    5  C   UNK N   1      26.019  19.330   4.232  0.00  0.00     0.011 A 
HETATM    6  C   UNK N   1      27.187  19.215   5.009  0.00  0.00    -0.035 A 
HETATM    7  C   UNK N   1      27.542  20.363   5.879  0.00  0.00     0.050 C 
ENDROOT
BRANCH   1   8
HETATM    8  N   UNK N   1      29.157  17.710   5.614  0.00  0.00    -0.191 N 
HETATM    9  C   UNK N   1      30.539  17.582   5.349  0.00  0.00     0.683 A 
HETATM   10  N   UNK N   1      31.342  17.245   6.388  0.00  0.00    -0.191 N 
HETATM   11  N   UNK N   1      31.078  17.778   4.120  0.00  0.00    -0.202 N 
HETATM   12  C   UNK N   1      32.680  17.096   6.246  0.00  0.00     0.062 A 
ATOM     13  HN  UNK N   1      30.924  17.100   7.307  1.00  0.00     0.184 HD
HETATM   14  C   UNK N   1      33.254  17.294   4.987  0.00  0.00     0.048 A 
HETATM   15  C   UNK N   1      32.418  17.641   3.921  0.00  0.00     0.108 A 
ATOM     16  HN  UNK N   1      30.474  18.032   3.338  1.00  0.00     0.183 HD
HETATM   17  H   UNK N   1      28.970  17.528   6.563  0.00  0.00     0.184 HD
BRANCH  12  18
HETATM   18  C   UNK N   1      33.490  16.727   7.427  0.00  0.00     0.007 A 
HETATM   19  C   UNK N   1      33.592  17.615   8.509  0.00  0.00     0.101 A 
HETATM   20  N   UNK N   1      34.333  17.290   9.602  0.00  0.00    -0.374 N 
HETATM   21  C   UNK N   1      34.994  16.104   9.680  0.00  0.00     0.087 A 
ATOM     22  HN  UNK N   1      34.395  17.948  10.378  1.00  0.00     0.164 HD
HETATM   23  C   UNK N   1      34.922  15.190   8.627  0.00  0.00     0.018 A 
HETATM   24  C   UNK N   1      34.167  15.504   7.497  0.00  0.00     0.016 A 
ENDBRANCH  12  18
ENDBRANCH   1   8
BRANCH   3  25
HETATM   25  N   UNK N   1      25.980  16.044   2.444  0.00  0.00    -0.323 N 
HETATM   26  C   UNK N   1      25.131  15.035   2.817  0.00  0.00     0.257 C 
HETATM   27  O   UNK N   1      24.648  15.003   3.941  0.00  0.00    -0.267 OA
HETATM   28  H   UNK N   1      26.344  16.027   1.531  0.00  0.00     0.169 HD
BRANCH  26  29
HETATM   29  C   UNK N   1      24.773  13.960   1.874  0.00  0.00     0.047 A 
HETATM   30  C   UNK N   1      23.834  14.208   0.863  0.00  0.00     0.020 A 
HETATM   31  C   UNK N   1      23.488  13.200  -0.033  0.00  0.00     0.018 A 
HETATM   32  C   UNK N   1      24.087  11.947   0.090  0.00  0.00     0.087 A 
HETATM   33  N   UNK N   1      24.998  11.717   1.076  0.00  0.00    -0.374 N 
HETATM   34  C   UNK N   1      25.350  12.689   1.961  0.00  0.00     0.104 A 
ATOM     35  HN  UNK N   1      25.427  10.795   1.152  1.00  0.00     0.164 HD
ENDBRANCH  26  29
ENDBRANCH   3  25
TORSDOF 4
ENDMDL
MODEL 7
REMARK VINA RESULT:      -7.6      3.062      9.923
REMARK  4 active torsions:
REMARK  status: ('A' for Active; 'I' for Inactive)
REMARK    1  A    between atoms: C_6  and  C_8 
REMARK       I    between atoms: C_11  and  N_16 
REMARK    2  A    between atoms: N_16  and  C_17 
REMARK    3  A    between atoms: C_19  and  N_24 
REMARK       I    between atoms: N_24  and  C_25 
REMARK    4  A    between atoms: C_25  and  C_26 
ROOT
HETATM    1  C   UNK N   1      32.962  14.181   8.159  0.00  0.00     0.057 A 
HETATM    2  C   UNK N   1      32.119  15.277   8.140  0.00  0.00     0.060 A 
HETATM    3  C   UNK N   1      31.586  15.812   6.975  0.00  0.00     0.037 A 
HETATM    4  C   UNK N   1      31.915  15.216   5.755  0.00  0.00     0.030 A 
HETATM    5  C   UNK N   1      32.769  14.101   5.732  0.00  0.00     0.011 A 
HETATM    6  C   UNK N   1      33.301  13.570   6.923  0.00  0.00    -0.035 A 
HETATM    7  C   UNK N   1      34.194  12.392   6.804  0.00  0.00     0.050 C 
ENDROOT
BRANCH   1   8
HETATM    8  N   UNK N   1      33.387  13.806   9.462  0.00  0.00    -0.191 N 
HETATM    9  C   UNK N   1      34.302  14.235  10.451  0.00  0.00     0.683 A 
HETATM   10  N   UNK N   1      34.356  13.517  11.599  0.00  0.00    -0.191 N 
HETATM   11  N   UNK N   1      35.110  15.313  10.293  0.00  0.00    -0.202 N 
HETATM   12  C   UNK N   1      35.195  13.839  12.612  0.00  0.00     0.062 A 
ATOM     13  HN  UNK N   1      33.743  12.708  11.705  1.00  0.00     0.184 HD
HETATM   14  C   UNK N   1      36.036  14.947  12.468  0.00  0.00     0.048 A 
HETATM   15  C   UNK N   1      35.973  15.681  11.279  0.00  0.00     0.108 A 
ATOM     16  HN  UNK N   1      35.069  15.853   9.429  1.00  0.00     0.183 HD
HETATM   17  H   UNK N   1      32.898  13.009   9.769  0.00  0.00     0.184 HD
BRANCH  12  18
HETATM   18  C   UNK N   1      35.197  13.008  13.834  0.00  0.00     0.007 A 
HETATM   19  C   UNK N   1      34.493  11.794  13.854  0.00  0.00     0.101 A 
HETATM   20  N   UNK N   1      34.484  11.018  14.971  0.00  0.00    -0.374 N 
HETATM   21  C   UNK N   1      35.152  11.391  16.095  0.00  0.00     0.087 A 
ATOM     22  HN  UNK N   1      33.967  10.139  14.966  1.00  0.00     0.164 HD
HETATM   23  C   UNK N   1      35.866  12.591  16.121  0.00  0.00     0.018 A 
HETATM   24  C   UNK N   1      35.887  13.402  14.986  0.00  0.00     0.016 A 
ENDBRANCH  12  18
ENDBRANCH   1   8
BRANCH   3  25
HETATM   25  N   UNK N   1      30.720  16.949   7.028  0.00  0.00    -0.323 N 
HETATM   26  C   UNK N   1      29.426  16.951   6.577  0.00  0.00     0.257 C 
HETATM   27  O   UNK N   1      28.929  15.945   6.089  0.00  0.00    -0.267 OA
HETATM   28  H   UNK N   1      31.076  17.782   7.412  0.00  0.00     0.169 HD
BRANCH  26  29
HETATM   29  C   UNK N   1      28.594  18.165   6.667  0.00  0.00     0.047 A 
HETATM   30  C   UNK N   1      28.259  18.865   5.500  0.00  0.00     0.020 A 
HETATM   31  C   UNK N   1      27.475  20.013   5.573  0.00  0.00     0.018 A 
HETATM   32  C   UNK N   1      27.032  20.454   6.819  0.00  0.00     0.087 A 
HETATM   33  N   UNK N   1      27.363  19.767   7.947  0.00  0.00    -0.374 N 
HETATM   34  C   UNK N   1      28.128  18.642   7.897  0.00  0.00     0.104 A 
ATOM     35  HN  UNK N   1      27.031  20.102   8.850  1.00  0.00     0.164 HD
ENDBRANCH  26  29
ENDBRANCH   3  25
TORSDOF 4
ENDMDL
MODEL 8
REMARK VINA RESULT:      -7.6      2.676      4.277
REMARK  4 active torsions:
REMARK  status: ('A' for Active; 'I' for Inactive)
REMARK    1  A    between atoms: C_6  and  C_8 
REMARK       I    between atoms: C_11  and  N_16 
REMARK    2  A    between atoms: N_16  and  C_17 
REMARK    3  A    between atoms: C_19  and  N_24 
REMARK       I    between atoms: N_24  and  C_25 
REMARK    4  A    between atoms: C_25  and  C_26 
ROOT
HETATM    1  C   UNK N   1      33.207  16.083   9.057  0.00  0.00     0.057 A 
HETATM    2  C   UNK N   1      33.349  14.900   9.758  0.00  0.00     0.060 A 
HETATM    3  C   UNK N   1      34.497  14.561  10.461  0.00  0.00     0.037 A 
HETATM    4  C   UNK N   1      35.568  15.459  10.465  0.00  0.00     0.030 A 
HETATM    5  C   UNK N   1      35.463  16.672   9.764  0.00  0.00     0.011 A 
HETATM    6  C   UNK N   1      34.292  17.000   9.055  0.00  0.00    -0.035 A 
HETATM    7  C   UNK N   1      34.268  18.302   8.343  0.00  0.00     0.050 C 
ENDROOT
BRANCH   1   8
HETATM    8  N   UNK N   1      31.949  16.221   8.411  0.00  0.00    -0.191 N 
HETATM    9  C   UNK N   1      30.755  16.966   8.548  0.00  0.00     0.683 A 
HETATM   10  N   UNK N   1      29.775  16.740   7.639  0.00  0.00    -0.191 N 
HETATM   11  N   UNK N   1      30.560  17.876   9.535  0.00  0.00    -0.202 N 
HETATM   12  C   UNK N   1      28.592  17.398   7.676  0.00  0.00     0.062 A 
ATOM     13  HN  UNK N   1      29.934  16.053   6.902  1.00  0.00     0.184 HD
HETATM   14  C   UNK N   1      28.372  18.340   8.686  0.00  0.00     0.048 A 
HETATM   15  C   UNK N   1      29.390  18.566   9.619  0.00  0.00     0.108 A 
ATOM     16  HN  UNK N   1      31.297  18.046  10.218  1.00  0.00     0.183 HD
HETATM   17  H   UNK N   1      31.891  15.617   7.636  0.00  0.00     0.184 HD
BRANCH  12  18
HETATM   18  C   UNK N   1      27.572  17.097   6.650  0.00  0.00     0.007 A 
HETATM   19  C   UNK N   1      27.437  17.936   5.532  0.00  0.00     0.101 A 
HETATM   20  N   UNK N   1      26.503  17.672   4.580  0.00  0.00    -0.374 N 
HETATM   21  C   UNK N   1      25.676  16.597   4.679  0.00  0.00     0.087 A 
ATOM     22  HN  UNK N   1      26.420  18.294   3.775  1.00  0.00     0.164 HD
HETATM   23  C   UNK N   1      25.774  15.736   5.773  0.00  0.00     0.018 A 
HETATM   24  C   UNK N   1      26.726  15.988   6.762  0.00  0.00     0.016 A 
ENDBRANCH  12  18
ENDBRANCH   1   8
BRANCH   3  25
HETATM   25  N   UNK N   1      34.577  13.319  11.166  0.00  0.00    -0.323 N 
HETATM   26  C   UNK N   1      34.942  13.203  12.482  0.00  0.00     0.257 C 
HETATM   27  O   UNK N   1      35.228  14.192  13.144  0.00  0.00    -0.267 OA
HETATM   28  H   UNK N   1      34.357  12.496  10.674  0.00  0.00     0.169 HD
BRANCH  26  29
HETATM   29  C   UNK N   1      35.000  11.884  13.138  0.00  0.00     0.047 A 
HETATM   30  C   UNK N   1      34.201  11.634  14.263  0.00  0.00     0.020 A 
HETATM   31  C   UNK N   1      34.247  10.393  14.891  0.00  0.00     0.018 A 
HETATM   32  C   UNK N   1      35.096   9.408  14.388  0.00  0.00     0.087 A 
HETATM   33  N   UNK N   1      35.868   9.662  13.296  0.00  0.00    -0.374 N 
HETATM   34  C   UNK N   1      35.837  10.869  12.666  0.00  0.00     0.104 A 
ATOM     35  HN  UNK N   1      36.483   8.931  12.940  1.00  0.00     0.164 HD
ENDBRANCH  26  29
ENDBRANCH   3  25
TORSDOF 4
ENDMDL
MODEL 9
REMARK VINA RESULT:      -7.5      6.928     12.425
REMARK  4 active torsions:
REMARK  status: ('A' for Active; 'I' for Inactive)
REMARK    1  A    between atoms: C_6  and  C_8 
REMARK       I    between atoms: C_11  and  N_16 
REMARK    2  A    between atoms: N_16  and  C_17 
REMARK    3  A    between atoms: C_19  and  N_24 
REMARK       I    between atoms: N_24  and  C_25 
REMARK    4  A    between atoms: C_25  and  C_26 
ROOT
HETATM    1  C   UNK N   1      25.384  18.442   4.070  0.00  0.00     0.057 A 
HETATM    2  C   UNK N   1      26.503  17.898   4.674  0.00  0.00     0.060 A 
HETATM    3  C   UNK N   1      27.697  18.588   4.833  0.00  0.00     0.037 A 
HETATM    4  C   UNK N   1      27.779  19.900   4.361  0.00  0.00     0.030 A 
HETATM    5  C   UNK N   1      26.664  20.488   3.740  0.00  0.00     0.011 A 
HETATM    6  C   UNK N   1      25.460  19.775   3.587  0.00  0.00    -0.035 A 
HETATM    7  C   UNK N   1      24.334  20.475   2.920  0.00  0.00     0.050 C 
ENDROOT
BRANCH   1   8
HETATM    8  N   UNK N   1      24.273  17.557   4.016  0.00  0.00    -0.191 N 
HETATM    9  C   UNK N   1      23.056  17.329   4.697  0.00  0.00     0.683 A 
HETATM   10  N   UNK N   1      22.280  16.309   4.257  0.00  0.00    -0.191 N 
HETATM   11  N   UNK N   1      22.648  18.077   5.753  0.00  0.00    -0.202 N 
HETATM   12  C   UNK N   1      21.095  16.003   4.837  0.00  0.00     0.062 A 
ATOM     13  HN  UNK N   1      22.598  15.754   3.463  1.00  0.00     0.184 HD
HETATM   14  C   UNK N   1      20.658  16.762   5.926  0.00  0.00     0.048 A 
HETATM   15  C   UNK N   1      21.466  17.812   6.373  0.00  0.00     0.108 A 
ATOM     16  HN  UNK N   1      23.232  18.845   6.085  1.00  0.00     0.183 HD
HETATM   17  H   UNK N   1      24.384  16.909   3.283  0.00  0.00     0.184 HD
BRANCH  12  18
HETATM   18  C   UNK N   1      20.304  14.875   4.300  0.00  0.00     0.007 A 
HETATM   19  C   UNK N   1      19.915  14.874   2.951  0.00  0.00     0.101 A 
HETATM   20  N   UNK N   1      19.187  13.845   2.442  0.00  0.00    -0.374 N 
HETATM   21  C   UNK N   1      18.816  12.791   3.218  0.00  0.00     0.087 A 
ATOM     22  HN  UNK N   1      18.914  13.863   1.460  1.00  0.00     0.164 HD
HETATM   23  C   UNK N   1      19.181  12.749   4.565  0.00  0.00     0.018 A 
HETATM   24  C   UNK N   1      19.928  13.796   5.107  0.00  0.00     0.016 A 
ENDBRANCH  12  18
ENDBRANCH   1   8
BRANCH   3  25
HETATM   25  N   UNK N   1      28.816  17.964   5.468  0.00  0.00    -0.323 N 
HETATM   26  C   UNK N   1      29.032  17.964   6.821  0.00  0.00     0.257 C 
HETATM   27  O   UNK N   1      28.249  18.517   7.582  0.00  0.00    -0.267 OA
HETATM   28  H   UNK N   1      29.474  17.507   4.896  0.00  0.00     0.169 HD
BRANCH  26  29
HETATM   29  C   UNK N   1      30.212  17.297   7.401  0.00  0.00     0.047 A 
HETATM   30  C   UNK N   1      30.731  16.149   6.785  0.00  0.00     0.020 A 
HETATM   31  C   UNK N   1      31.844  15.509   7.324  0.00  0.00     0.018 A 
HETATM   32  C   UNK N   1      32.431  16.026   8.478  0.00  0.00     0.087 A 
HETATM   33  N   UNK N   1      31.919  17.141   9.067  0.00  0.00    -0.374 N 
HETATM   34  C   UNK N   1      30.831  17.781   8.557  0.00  0.00     0.104 A 
ATOM     35  HN  UNK N   1      32.360  17.505   9.911  1.00  0.00     0.164 HD
ENDBRANCH  26  29
ENDBRANCH   3  25
TORSDOF 4
ENDMDL
