MODEL 1
REMARK VINA RESULT:      -5.2      0.000      0.000
REMARK  4 active torsions:
REMARK  status: ('A' for Active; 'I' for Inactive)
REMARK    1  A    between atoms: O_1  and  C_2 
REMARK    2  A    between atoms: C_2  and  C_4 
REMARK    3  A    between atoms: C_6  and  O_7 
REMARK    4  A    between atoms: C_8  and  O_9 
ROOT
HETATM    1  C   UNK N   1      21.701  13.223   9.798  0.00  0.00     0.040 A 
HETATM    2  C   UNK N   1      21.639  12.542  11.020  0.00  0.00     0.057 A 
HETATM    3  C   UNK N   1      22.801  12.070  11.626  0.00  0.00     0.099 A 
HETATM    4  C   UNK N   1      24.044  12.275  11.013  0.00  0.00     0.098 A 
HETATM    5  C   UNK N   1      24.114  12.956   9.791  0.00  0.00     0.040 A 
HETATM    6  C   UNK N   1      22.945  13.430   9.184  0.00  0.00     0.021 A 
ENDROOT
BRANCH   1   7
HETATM    7  C   UNK N   1      20.455  13.713   9.177  0.00  0.00     0.176 C 
HETATM    8  O   UNK N   1      19.514  14.053   9.874  0.00  0.00    -0.646 OA
BRANCH   7   9
HETATM    9  O   UNK N   1      20.348  13.789   7.835  0.00  0.00    -0.773 OA
HETATM   10  H   UNK N   1      20.882  13.244   7.291  0.00  0.00     0.167 HD
ENDBRANCH   7   9
ENDBRANCH   1   7
BRANCH   3  11
HETATM   11  O   UNK N   1      22.719  11.418  12.798  0.00  0.00    -0.358 OA
HETATM   12  H   UNK N   1      23.089  10.561  12.885  0.00  0.00     0.217 HD
ENDBRANCH   3  11
BRANCH   4  13
HETATM   13  O   UNK N   1      25.169  11.823  11.591  0.00  0.00    -0.358 OA
HETATM   14  H   UNK N   1      25.268  10.909  11.773  0.00  0.00     0.217 HD
ENDBRANCH   4  13
TORSDOF 4
ENDMDL
MODEL 2
REMARK VINA RESULT:      -5.2     11.174     12.740
REMARK  4 active torsions:
REMARK  status: ('A' for Active; 'I' for Inactive)
REMARK    1  A    between atoms: O_1  and  C_2 
REMARK    2  A    between atoms: C_2  and  C_4 
REMARK    3  A    between atoms: C_6  and  O_7 
REMARK    4  A    between atoms: C_8  and  O_9 
ROOT
HETATM    1  C   UNK N   1      34.505  17.083   9.181  0.00  0.00     0.040 A 
HETATM    2  C   UNK N   1      33.542  16.093   8.946  0.00  0.00     0.057 A 
HETATM    3  C   UNK N   1      33.405  15.017   9.820  0.00  0.00     0.099 A 
HETATM    4  C   UNK N   1      34.233  14.921  10.946  0.00  0.00     0.098 A 
HETATM    5  C   UNK N   1      35.198  15.906  11.188  0.00  0.00     0.040 A 
HETATM    6  C   UNK N   1      35.333  16.986  10.308  0.00  0.00     0.021 A 
ENDROOT
BRANCH   1   7
HETATM    7  C   UNK N   1      34.630  18.211   8.239  0.00  0.00     0.176 C 
HETATM    8  O   UNK N   1      34.083  18.165   7.150  0.00  0.00    -0.646 OA
BRANCH   7   9
HETATM    9  O   UNK N   1      35.349  19.301   8.574  0.00  0.00    -0.773 OA
HETATM   10  H   UNK N   1      35.107  20.143   8.242  0.00  0.00     0.167 HD
ENDBRANCH   7   9
ENDBRANCH   1   7
BRANCH   3  11
HETATM   11  O   UNK N   1      32.476  14.078   9.575  0.00  0.00    -0.358 OA
HETATM   12  H   UNK N   1      32.481  13.615   8.761  0.00  0.00     0.217 HD
ENDBRANCH   3  11
BRANCH   4  13
HETATM   13  O   UNK N   1      34.107  13.886  11.794  0.00  0.00    -0.358 OA
HETATM   14  H   UNK N   1      33.336  13.804  12.322  0.00  0.00     0.217 HD
ENDBRANCH   4  13
TORSDOF 4
ENDMDL
MODEL 3
REMARK VINA RESULT:      -5.1     11.736     13.055
REMARK  4 active torsions:
REMARK  status: ('A' for Active; 'I' for Inactive)
REMARK    1  A    between atoms: O_1  and  C_2 
REMARK    2  A    between atoms: C_2  and  C_4 
REMARK    3  A    between atoms: C_6  and  O_7 
REMARK    4  A    between atoms: C_8  and  O_9 
ROOT
HETATM    1  C   UNK N   1      34.483  17.062   9.158  0.00  0.00     0.040 A 
HETATM    2  C   UNK N   1      35.394  16.907  10.210  0.00  0.00     0.057 A 
HETATM    3  C   UNK N   1      35.282  15.834  11.091  0.00  0.00     0.099 A 
HETATM    4  C   UNK N   1      34.251  14.899  10.928  0.00  0.00     0.098 A 
HETATM    5  C   UNK N   1      33.336  15.047   9.878  0.00  0.00     0.040 A 
HETATM    6  C   UNK N   1      33.452  16.126   8.994  0.00  0.00     0.021 A 
ENDROOT
BRANCH   1   7
HETATM    7  C   UNK N   1      34.624  18.207   8.239  0.00  0.00     0.176 C 
HETATM    8  O   UNK N   1      34.084  18.187   7.146  0.00  0.00    -0.646 OA
BRANCH   7   9
HETATM    9  O   UNK N   1      35.350  19.284   8.600  0.00  0.00    -0.773 OA
HETATM   10  H   UNK N   1      36.180  19.447   8.198  0.00  0.00     0.167 HD
ENDBRANCH   7   9
ENDBRANCH   1   7
BRANCH   3  11
HETATM   11  O   UNK N   1      36.166  15.705  12.095  0.00  0.00    -0.358 OA
HETATM   12  H   UNK N   1      36.006  15.092  12.785  0.00  0.00     0.217 HD
ENDBRANCH   3  11
BRANCH   4  13
HETATM   13  O   UNK N   1      34.137  13.861  11.773  0.00  0.00    -0.358 OA
HETATM   14  H   UNK N   1      34.781  13.180  11.770  0.00  0.00     0.217 HD
ENDBRANCH   4  13
TORSDOF 4
ENDMDL
MODEL 4
REMARK VINA RESULT:      -5.0      1.140      4.158
REMARK  4 active torsions:
REMARK  status: ('A' for Active; 'I' for Inactive)
REMARK    1  A    between atoms: O_1  and  C_2 
REMARK    2  A    between atoms: C_2  and  C_4 
REMARK    3  A    between atoms: C_6  and  O_7 
REMARK    4  A    between atoms: C_8  and  O_9 
ROOT
HETATM    1  C   UNK N   1      22.892  12.229  10.594  0.00  0.00     0.040 A 
HETATM    2  C   UNK N   1      21.707  12.977  10.604  0.00  0.00     0.057 A 
HETATM    3  C   UNK N   1      20.978  13.162   9.432  0.00  0.00     0.099 A 
HETATM    4  C   UNK N   1      21.428  12.598   8.231  0.00  0.00     0.098 A 
HETATM    5  C   UNK N   1      22.611  11.850   8.213  0.00  0.00     0.040 A 
HETATM    6  C   UNK N   1      23.342  11.664   9.392  0.00  0.00     0.021 A 
ENDROOT
BRANCH   1   7
HETATM    7  C   UNK N   1      23.646  12.048  11.849  0.00  0.00     0.176 C 
HETATM    8  O   UNK N   1      23.061  11.767  12.882  0.00  0.00    -0.646 OA
BRANCH   7   9
HETATM    9  O   UNK N   1      24.986  12.192  11.865  0.00  0.00    -0.773 OA
HETATM   10  H   UNK N   1      25.428  12.385  12.668  0.00  0.00     0.167 HD
ENDBRANCH   7   9
ENDBRANCH   1   7
BRANCH   3  11
HETATM   11  O   UNK N   1      19.844  13.883   9.464  0.00  0.00    -0.358 OA
HETATM   12  H   UNK N   1      19.622  14.374  10.231  0.00  0.00     0.217 HD
ENDBRANCH   3  11
BRANCH   4  13
HETATM   13  O   UNK N   1      20.730  12.772   7.097  0.00  0.00    -0.358 OA
HETATM   14  H   UNK N   1      20.227  12.065   6.741  0.00  0.00     0.217 HD
ENDBRANCH   4  13
TORSDOF 4
ENDMDL
MODEL 5
REMARK VINA RESULT:      -5.0      0.858      2.265
REMARK  4 active torsions:
REMARK  status: ('A' for Active; 'I' for Inactive)
REMARK    1  A    between atoms: O_1  and  C_2 
REMARK    2  A    between atoms: C_2  and  C_4 
REMARK    3  A    between atoms: C_6  and  O_7 
REMARK    4  A    between atoms: C_8  and  O_9 
ROOT
HETATM    1  C   UNK N   1      21.677  13.200   9.818  0.00  0.00     0.040 A 
HETATM    2  C   UNK N   1      22.910  13.500   9.226  0.00  0.00     0.057 A 
HETATM    3  C   UNK N   1      24.098  13.046   9.795  0.00  0.00     0.099 A 
HETATM    4  C   UNK N   1      24.064  12.284  10.970  0.00  0.00     0.098 A 
HETATM    5  C   UNK N   1      22.835  11.980  11.569  0.00  0.00     0.040 A 
HETATM    6  C   UNK N   1      21.643  12.436  10.994  0.00  0.00     0.021 A 
ENDROOT
BRANCH   1   7
HETATM    7  C   UNK N   1      20.433  13.692   9.196  0.00  0.00     0.176 C 
HETATM    8  O   UNK N   1      20.351  13.788   7.983  0.00  0.00    -0.646 OA
BRANCH   7   9
HETATM    9  O   UNK N   1      19.380  14.040   9.961  0.00  0.00    -0.773 OA
HETATM   10  H   UNK N   1      19.425  14.806  10.500  0.00  0.00     0.167 HD
ENDBRANCH   7   9
ENDBRANCH   1   7
BRANCH   3  11
HETATM   11  O   UNK N   1      25.269  13.347   9.210  0.00  0.00    -0.358 OA
HETATM   12  H   UNK N   1      25.390  13.189   8.294  0.00  0.00     0.217 HD
ENDBRANCH   3  11
BRANCH   4  13
HETATM   13  O   UNK N   1      25.206  11.843  11.525  0.00  0.00    -0.358 OA
HETATM   14  H   UNK N   1      25.182  11.159  12.165  0.00  0.00     0.217 HD
ENDBRANCH   4  13
TORSDOF 4
ENDMDL
MODEL 6
REMARK VINA RESULT:      -4.9     19.162     20.754
REMARK  4 active torsions:
REMARK  status: ('A' for Active; 'I' for Inactive)
REMARK    1  A    between atoms: O_1  and  C_2 
REMARK    2  A    between atoms: C_2  and  C_4 
REMARK    3  A    between atoms: C_6  and  O_7 
REMARK    4  A    between atoms: C_8  and  O_9 
ROOT
HETATM    1  C   UNK N   1      26.123  27.666  -4.020  0.00  0.00     0.040 A 
HETATM    2  C   UNK N   1      26.435  26.447  -3.405  0.00  0.00     0.057 A 
HETATM    3  C   UNK N   1      26.147  25.241  -4.038  0.00  0.00     0.099 A 
HETATM    4  C   UNK N   1      25.539  25.240  -5.300  0.00  0.00     0.098 A 
HETATM    5  C   UNK N   1      25.224  26.454  -5.922  0.00  0.00     0.040 A 
HETATM    6  C   UNK N   1      25.516  27.666  -5.284  0.00  0.00     0.021 A 
ENDROOT
BRANCH   1   7
HETATM    7  C   UNK N   1      26.439  28.930  -3.329  0.00  0.00     0.176 C 
HETATM    8  O   UNK N   1      27.141  28.926  -2.332  0.00  0.00    -0.646 OA
BRANCH   7   9
HETATM    9  O   UNK N   1      25.953  30.099  -3.792  0.00  0.00    -0.773 OA
HETATM   10  H   UNK N   1      26.479  30.874  -3.753  0.00  0.00     0.167 HD
ENDBRANCH   7   9
ENDBRANCH   1   7
BRANCH   3  11
HETATM   11  O   UNK N   1      26.454  24.083  -3.429  0.00  0.00    -0.358 OA
HETATM   12  H   UNK N   1      25.959  23.798  -2.686  0.00  0.00     0.217 HD
ENDBRANCH   3  11
BRANCH   4  13
HETATM   13  O   UNK N   1      25.258  24.080  -5.917  0.00  0.00    -0.358 OA
HETATM   14  H   UNK N   1      24.780  23.412  -5.465  0.00  0.00     0.217 HD
ENDBRANCH   4  13
TORSDOF 4
ENDMDL
MODEL 7
REMARK VINA RESULT:      -4.8     22.069     23.867
REMARK  4 active torsions:
REMARK  status: ('A' for Active; 'I' for Inactive)
REMARK    1  A    between atoms: O_1  and  C_2 
REMARK    2  A    between atoms: C_2  and  C_4 
REMARK    3  A    between atoms: C_6  and  O_7 
REMARK    4  A    between atoms: C_8  and  O_9 
ROOT
HETATM    1  C   UNK N   1      42.489  20.979   3.220  0.00  0.00     0.040 A 
HETATM    2  C   UNK N   1      43.760  21.062   3.803  0.00  0.00     0.057 A 
HETATM    3  C   UNK N   1      44.532  22.212   3.656  0.00  0.00     0.099 A 
HETATM    4  C   UNK N   1      44.039  23.297   2.920  0.00  0.00     0.098 A 
HETATM    5  C   UNK N   1      42.770  23.221   2.333  0.00  0.00     0.040 A 
HETATM    6  C   UNK N   1      41.995  22.065   2.483  0.00  0.00     0.021 A 
ENDROOT
BRANCH   1   7
HETATM    7  C   UNK N   1      41.692  19.750   3.391  0.00  0.00     0.176 C 
HETATM    8  O   UNK N   1      42.096  18.689   2.945  0.00  0.00    -0.646 OA
BRANCH   7   9
HETATM    9  O   UNK N   1      40.511  19.790   4.040  0.00  0.00    -0.773 OA
HETATM   10  H   UNK N   1      40.486  19.986   4.956  0.00  0.00     0.167 HD
ENDBRANCH   7   9
ENDBRANCH   1   7
BRANCH   3  11
HETATM   11  O   UNK N   1      45.749  22.270   4.224  0.00  0.00    -0.358 OA
HETATM   12  H   UNK N   1      46.263  21.491   4.312  0.00  0.00     0.217 HD
ENDBRANCH   3  11
BRANCH   4  13
HETATM   13  O   UNK N   1      44.778  24.409   2.773  0.00  0.00    -0.358 OA
HETATM   14  H   UNK N   1      45.379  24.483   2.057  0.00  0.00     0.217 HD
ENDBRANCH   4  13
TORSDOF 4
ENDMDL
MODEL 8
REMARK VINA RESULT:      -4.8     13.999     15.322
REMARK  4 active torsions:
REMARK  status: ('A' for Active; 'I' for Inactive)
REMARK    1  A    between atoms: O_1  and  C_2 
REMARK    2  A    between atoms: C_2  and  C_4 
REMARK    3  A    between atoms: C_6  and  O_7 
REMARK    4  A    between atoms: C_8  and  O_9 
ROOT
HETATM    1  C   UNK N   1      35.442  12.566  17.085  0.00  0.00     0.040 A 
HETATM    2  C   UNK N   1      35.101  13.363  18.185  0.00  0.00     0.057 A 
HETATM    3  C   UNK N   1      35.063  12.821  19.468  0.00  0.00     0.099 A 
HETATM    4  C   UNK N   1      35.368  11.468  19.665  0.00  0.00     0.098 A 
HETATM    5  C   UNK N   1      35.710  10.664  18.571  0.00  0.00     0.040 A 
HETATM    6  C   UNK N   1      35.748  11.212  17.283  0.00  0.00     0.021 A 
ENDROOT
BRANCH   1   7
HETATM    7  C   UNK N   1      35.476  13.164  15.738  0.00  0.00     0.176 C 
HETATM    8  O   UNK N   1      34.489  13.119  15.022  0.00  0.00    -0.646 OA
BRANCH   7   9
HETATM    9  O   UNK N   1      36.595  13.765  15.287  0.00  0.00    -0.773 OA
HETATM   10  H   UNK N   1      36.590  14.682  15.094  0.00  0.00     0.167 HD
ENDBRANCH   7   9
ENDBRANCH   1   7
BRANCH   3  11
HETATM   11  O   UNK N   1      34.732  13.605  20.508  0.00  0.00    -0.358 OA
HETATM   12  H   UNK N   1      35.088  13.432  21.357  0.00  0.00     0.217 HD
ENDBRANCH   3  11
BRANCH   4  13
HETATM   13  O   UNK N   1      35.333  10.938  20.899  0.00  0.00    -0.358 OA
HETATM   14  H   UNK N   1      35.927  10.251  21.132  0.00  0.00     0.217 HD
ENDBRANCH   4  13
TORSDOF 4
ENDMDL
MODEL 9
REMARK VINA RESULT:      -4.7     10.400     12.434
REMARK  4 active torsions:
REMARK  status: ('A' for Active; 'I' for Inactive)
REMARK    1  A    between atoms: O_1  and  C_2 
REMARK    2  A    between atoms: C_2  and  C_4 
REMARK    3  A    between atoms: C_6  and  O_7 
REMARK    4  A    between atoms: C_8  and  O_9 
ROOT
HETATM    1  C   UNK N   1      33.421  17.754   7.591  0.00  0.00     0.040 A 
HETATM    2  C   UNK N   1      32.095  17.563   8.002  0.00  0.00     0.057 A 
HETATM    3  C   UNK N   1      31.110  17.222   7.079  0.00  0.00     0.099 A 
HETATM    4  C   UNK N   1      31.441  17.068   5.726  0.00  0.00     0.098 A 
HETATM    5  C   UNK N   1      32.764  17.257   5.307  0.00  0.00     0.040 A 
HETATM    6  C   UNK N   1      33.752  17.598   6.237  0.00  0.00     0.021 A 
ENDROOT
BRANCH   1   7
HETATM    7  C   UNK N   1      34.445  18.114   8.589  0.00  0.00     0.176 C 
HETATM    8  O   UNK N   1      35.199  19.051   8.384  0.00  0.00    -0.646 OA
BRANCH   7   9
HETATM    9  O   UNK N   1      34.557  17.412   9.734  0.00  0.00    -0.773 OA
HETATM   10  H   UNK N   1      34.808  17.844  10.526  0.00  0.00     0.167 HD
ENDBRANCH   7   9
ENDBRANCH   1   7
BRANCH   3  11
HETATM   11  O   UNK N   1      29.845  17.045   7.495  0.00  0.00    -0.358 OA
HETATM   12  H   UNK N   1      29.594  16.240   7.903  0.00  0.00     0.217 HD
ENDBRANCH   3  11
BRANCH   4  13
HETATM   13  O   UNK N   1      30.496  16.739   4.830  0.00  0.00    -0.358 OA
HETATM   14  H   UNK N   1      30.696  16.142   4.135  0.00  0.00     0.217 HD
ENDBRANCH   4  13
TORSDOF 4
ENDMDL
