REMARK  4 active torsions:
REMARK  status: ('A' for Active; 'I' for Inactive)
REMARK    1  A    between atoms: O_1  and  C_2 
REMARK    2  A    between atoms: C_2  and  C_4 
REMARK    3  A    between atoms: C_6  and  O_7 
REMARK    4  A    between atoms: C_8  and  O_9 
ROOT
HETATM    1  C   UNK N   1       0.541   1.824  -0.000  0.00  0.00     0.040 A 
HETATM    2  C   UNK N   1       1.771   1.154   0.000  0.00  0.00     0.057 A 
HETATM    3  C   UNK N   1       1.819  -0.238   0.000  0.00  0.00     0.099 A 
HETATM    4  C   UNK N   1       0.630  -0.979   0.000  0.00  0.00     0.098 A 
HETATM    5  C   UNK N   1      -0.604  -0.317  -0.000  0.00  0.00     0.040 A 
HETATM    6  C   UNK N   1      -0.649   1.082  -0.001  0.00  0.00     0.021 A 
ENDROOT
BRANCH   1   7
HETATM    7  C   UNK N   1       0.518   3.299  -0.000  0.00  0.00     0.176 C 
HETATM    8  O   UNK N   1       1.562   3.929  -0.000  0.00  0.00    -0.646 OA
BRANCH   7   9
HETATM    9  O   UNK N   1      -0.656   3.961  -0.000  0.00  0.00    -0.773 OA
HETATM   10  H   UNK N   1      -0.666   4.898  -0.000  0.00  0.00     0.167 HD
ENDBRANCH   7   9
ENDBRANCH   1   7
BRANCH   3  11
HETATM   11  O   UNK N   1       3.010  -0.860   0.001  0.00  0.00    -0.358 OA
HETATM   12  H   UNK N   1       3.050  -1.796   0.001  0.00  0.00     0.217 HD
ENDBRANCH   3  11
BRANCH   4  13
HETATM   13  O   UNK N   1       0.668  -2.322   0.000  0.00  0.00    -0.358 OA
HETATM   14  H   UNK N   1      -0.130  -2.814   0.000  0.00  0.00     0.217 HD
ENDBRANCH   4  13
TORSDOF 4
