MODEL 1
REMARK VINA RESULT:      -7.8      0.000      0.000
REMARK  6 active torsions:
REMARK  status: ('A' for Active; 'I' for Inactive)
REMARK    1  A    between atoms: C_1  and  O_14 
REMARK       I    between atoms: C_6  and  N_10 
REMARK    2  A    between atoms: C_9  and  C_19 
REMARK    3  A    between atoms: C_12  and  C_26 
REMARK    4  A    between atoms: C_12  and  O_27 
REMARK    5  A    between atoms: C_19  and  N_20 
REMARK    6  A    between atoms: N_20  and  C_21 
ROOT
HETATM    1  C   UNK N   1      33.503  15.003   9.839  0.00  0.00     0.186 A 
HETATM    2  C   UNK N   1      34.430  14.733  10.845  0.00  0.00     0.129 A 
HETATM    3  C   UNK N   1      35.394  15.698  11.159  0.00  0.00     0.152 A 
HETATM    4  N   UNK N   1      34.411  13.560  11.519  0.00  0.00    -0.351 N 
ATOM      5  HN  UNK N   1      33.706  12.861  11.286  1.00  0.00     0.166 HD
HETATM    6  C   UNK N   1      34.497  17.124   9.499  0.00  0.00     0.679 A 
HETATM    7  N   UNK N   1      35.411  16.876  10.480  0.00  0.00    -0.174 N 
ATOM      8  HN  UNK N   1      36.113  17.580  10.708  1.00  0.00     0.186 HD
HETATM    9  C   UNK N   1      35.312  13.295  12.499  0.00  0.00     0.043 A 
HETATM   10  N   UNK N   1      34.526  18.348   8.805  0.00  0.00    -0.234 N 
HETATM   11  C   UNK N   1      36.282  14.258  12.818  0.00  0.00     0.116 A 
HETATM   12  N   UNK N   1      33.555  16.192   9.186  0.00  0.00    -0.168 N 
ATOM     13  HN  UNK N   1      32.877  16.390   8.451  1.00  0.00     0.186 HD
HETATM   14  N   UNK N   1      36.302  15.442  12.139  0.00  0.00    -0.348 N 
ATOM     15  HN  UNK N   1      37.006  16.144  12.370  1.00  0.00     0.167 HD
HETATM   16  H   UNK N   1      35.206  19.025   9.028  0.00  0.00     0.174 HD
HETATM   17  H   UNK N   1      33.867  18.528   8.096  0.00  0.00     0.174 HD
ENDROOT
BRANCH   9  18
HETATM   18  C   UNK N   1      35.207  11.973  13.181  0.00  0.00     0.178 C 
BRANCH  18  19
HETATM   19  N   UNK N   1      34.174  11.856  14.184  0.00  0.00    -0.384 N 
HETATM   20  H   UNK N   1      33.228  11.776  13.922  0.00  0.00     0.160 HD
BRANCH  19  21
HETATM   21  C   UNK N   1      34.549  11.858  15.554  0.00  0.00     0.028 A 
HETATM   22  C   UNK N   1      34.848  10.661  16.215  0.00  0.00     0.030 A 
HETATM   23  C   UNK N   1      35.216  10.682  17.568  0.00  0.00     0.020 A 
HETATM   24  C   UNK N   1      35.287  11.901  18.267  0.00  0.00     0.037 A 
HETATM   25  C   UNK N   1      34.987  13.091  17.602  0.00  0.00     0.020 A 
HETATM   26  C   UNK N   1      34.622  13.070  16.260  0.00  0.00     0.030 A 
BRANCH  24  27
HETATM   27  C   UNK N   1      35.672  11.947  19.690  0.00  0.00     0.176 C 
HETATM   28  O   UNK N   1      36.226  10.993  20.214  0.00  0.00    -0.646 OA
BRANCH  27  29
HETATM   29  O   UNK N   1      35.413  13.048  20.425  0.00  0.00    -0.773 OA
HETATM   30  H   UNK N   1      36.023  13.759  20.435  0.00  0.00     0.167 HD
ENDBRANCH  27  29
ENDBRANCH  24  27
ENDBRANCH  19  21
ENDBRANCH  18  19
ENDBRANCH   9  18
BRANCH   1  31
HETATM   31  O   UNK N   1      32.565  14.098   9.515  0.00  0.00    -0.344 OA
HETATM   32  H   UNK N   1      32.484  13.804   8.629  0.00  0.00     0.219 HD
ENDBRANCH   1  31
TORSDOF 6
ENDMDL
MODEL 2
REMARK VINA RESULT:      -7.6     13.944     15.860
REMARK  6 active torsions:
REMARK  status: ('A' for Active; 'I' for Inactive)
REMARK    1  A    between atoms: C_1  and  O_14 
REMARK       I    between atoms: C_6  and  N_10 
REMARK    2  A    between atoms: C_9  and  C_19 
REMARK    3  A    between atoms: C_12  and  C_26 
REMARK    4  A    between atoms: C_12  and  O_27 
REMARK    5  A    between atoms: C_19  and  N_20 
REMARK    6  A    between atoms: N_20  and  C_21 
ROOT
HETATM    1  C   UNK N   1      19.849  18.482   2.922  0.00  0.00     0.186 A 
HETATM    2  C   UNK N   1      21.075  18.404   3.581  0.00  0.00     0.129 A 
HETATM    3  C   UNK N   1      22.089  19.306   3.239  0.00  0.00     0.152 A 
HETATM    4  N   UNK N   1      21.298  17.476   4.540  0.00  0.00    -0.351 N 
ATOM      5  HN  UNK N   1      20.555  16.822   4.785  1.00  0.00     0.166 HD
HETATM    6  C   UNK N   1      20.659  20.300   1.641  0.00  0.00     0.679 A 
HETATM    7  N   UNK N   1      21.863  20.237   2.275  0.00  0.00    -0.174 N 
ATOM      8  HN  UNK N   1      22.602  20.895   2.024  1.00  0.00     0.186 HD
HETATM    9  C   UNK N   1      22.491  17.398   5.182  0.00  0.00     0.043 A 
HETATM   10  N   UNK N   1      20.438  21.269   0.644  0.00  0.00    -0.234 N 
HETATM   11  C   UNK N   1      23.513  18.299   4.844  0.00  0.00     0.116 A 
HETATM   12  N   UNK N   1      19.664  19.427   1.966  0.00  0.00    -0.168 N 
ATOM     13  HN  UNK N   1      18.768  19.485   1.484  1.00  0.00     0.186 HD
HETATM   14  N   UNK N   1      23.290  19.236   3.877  0.00  0.00    -0.348 N 
ATOM     15  HN  UNK N   1      24.031  19.892   3.630  1.00  0.00     0.167 HD
HETATM   16  H   UNK N   1      21.154  21.902   0.406  0.00  0.00     0.174 HD
HETATM   17  H   UNK N   1      19.568  21.315   0.186  0.00  0.00     0.174 HD
ENDROOT
BRANCH   9  18
HETATM   18  C   UNK N   1      22.635  16.340   6.223  0.00  0.00     0.178 C 
BRANCH  18  19
HETATM   19  N   UNK N   1      21.407  15.833   6.789  0.00  0.00    -0.384 N 
HETATM   20  H   UNK N   1      20.534  16.128   6.440  0.00  0.00     0.160 HD
BRANCH  19  21
HETATM   21  C   UNK N   1      21.480  14.902   7.859  0.00  0.00     0.028 A 
HETATM   22  C   UNK N   1      22.532  13.981   7.933  0.00  0.00     0.030 A 
HETATM   23  C   UNK N   1      22.590  13.068   8.997  0.00  0.00     0.020 A 
HETATM   24  C   UNK N   1      21.594  13.072   9.991  0.00  0.00     0.037 A 
HETATM   25  C   UNK N   1      20.547  13.992   9.910  0.00  0.00     0.020 A 
HETATM   26  C   UNK N   1      20.491  14.897   8.856  0.00  0.00     0.030 A 
BRANCH  24  27
HETATM   27  C   UNK N   1      21.634  12.120  11.118  0.00  0.00     0.176 C 
HETATM   28  O   UNK N   1      20.666  11.984  11.849  0.00  0.00    -0.646 OA
BRANCH  27  29
HETATM   29  O   UNK N   1      22.746  11.392  11.348  0.00  0.00    -0.773 OA
HETATM   30  H   UNK N   1      22.734  10.464  11.218  0.00  0.00     0.167 HD
ENDBRANCH  27  29
ENDBRANCH  24  27
ENDBRANCH  19  21
ENDBRANCH  18  19
ENDBRANCH   9  18
BRANCH   1  31
HETATM   31  O   UNK N   1      18.854  17.631   3.227  0.00  0.00    -0.344 OA
HETATM   32  H   UNK N   1      18.868  16.756   2.893  0.00  0.00     0.219 HD
ENDBRANCH   1  31
TORSDOF 6
ENDMDL
MODEL 3
REMARK VINA RESULT:      -7.6      3.718      8.967
REMARK  6 active torsions:
REMARK  status: ('A' for Active; 'I' for Inactive)
REMARK    1  A    between atoms: C_1  and  O_14 
REMARK       I    between atoms: C_6  and  N_10 
REMARK    2  A    between atoms: C_9  and  C_19 
REMARK    3  A    between atoms: C_12  and  C_26 
REMARK    4  A    between atoms: C_12  and  O_27 
REMARK    5  A    between atoms: C_19  and  N_20 
REMARK    6  A    between atoms: N_20  and  C_21 
ROOT
HETATM    1  C   UNK N   1      34.993  12.935  12.630  0.00  0.00     0.186 A 
HETATM    2  C   UNK N   1      34.978  13.982  11.711  0.00  0.00     0.129 A 
HETATM    3  C   UNK N   1      35.722  15.137  11.983  0.00  0.00     0.152 A 
HETATM    4  N   UNK N   1      34.261  13.902  10.567  0.00  0.00    -0.351 N 
ATOM      5  HN  UNK N   1      33.721  13.058  10.374  1.00  0.00     0.166 HD
HETATM    6  C   UNK N   1      36.445  14.183  14.021  0.00  0.00     0.679 A 
HETATM    7  N   UNK N   1      36.443  15.216  13.133  0.00  0.00    -0.174 N 
ATOM      8  HN  UNK N   1      36.985  16.057  13.332  1.00  0.00     0.186 HD
HETATM    9  C   UNK N   1      34.245  14.920   9.670  0.00  0.00     0.043 A 
HETATM   10  N   UNK N   1      37.196  14.278  15.208  0.00  0.00    -0.234 N 
HETATM   11  C   UNK N   1      34.989  16.081   9.936  0.00  0.00     0.116 A 
HETATM   12  N   UNK N   1      35.725  13.055  13.767  0.00  0.00    -0.168 N 
ATOM     13  HN  UNK N   1      35.736  12.289  14.440  1.00  0.00     0.186 HD
HETATM   14  N   UNK N   1      35.714  16.164  11.090  0.00  0.00    -0.348 N 
ATOM     15  HN  UNK N   1      36.255  17.006  11.285  1.00  0.00     0.167 HD
HETATM   16  H   UNK N   1      37.718  15.092  15.397  0.00  0.00     0.174 HD
HETATM   17  H   UNK N   1      37.198  13.532  15.851  0.00  0.00     0.174 HD
ENDROOT
BRANCH   9  18
HETATM   18  C   UNK N   1      33.423  14.732   8.440  0.00  0.00     0.178 C 
BRANCH  18  19
HETATM   19  N   UNK N   1      33.187  15.915   7.646  0.00  0.00    -0.384 N 
HETATM   20  H   UNK N   1      33.867  16.234   7.008  0.00  0.00     0.160 HD
BRANCH  19  21
HETATM   21  C   UNK N   1      31.958  16.608   7.801  0.00  0.00     0.028 A 
HETATM   22  C   UNK N   1      31.836  17.647   8.731  0.00  0.00     0.030 A 
HETATM   23  C   UNK N   1      30.614  18.322   8.872  0.00  0.00     0.020 A 
HETATM   24  C   UNK N   1      29.508  17.959   8.082  0.00  0.00     0.037 A 
HETATM   25  C   UNK N   1      29.636  16.922   7.156  0.00  0.00     0.020 A 
HETATM   26  C   UNK N   1      30.847  16.254   7.017  0.00  0.00     0.030 A 
BRANCH  24  27
HETATM   27  C   UNK N   1      28.213  18.655   8.213  0.00  0.00     0.176 C 
HETATM   28  O   UNK N   1      27.827  19.417   7.340  0.00  0.00    -0.646 OA
BRANCH  27  29
HETATM   29  O   UNK N   1      27.444  18.452   9.303  0.00  0.00    -0.773 OA
HETATM   30  H   UNK N   1      26.621  18.012   9.220  0.00  0.00     0.167 HD
ENDBRANCH  27  29
ENDBRANCH  24  27
ENDBRANCH  19  21
ENDBRANCH  18  19
ENDBRANCH   9  18
BRANCH   1  31
HETATM   31  O   UNK N   1      34.289  11.814  12.399  0.00  0.00    -0.344 OA
HETATM   32  H   UNK N   1      33.381  11.868  12.174  0.00  0.00     0.219 HD
ENDBRANCH   1  31
TORSDOF 6
ENDMDL
MODEL 4
REMARK VINA RESULT:      -7.3     13.498     15.850
REMARK  6 active torsions:
REMARK  status: ('A' for Active; 'I' for Inactive)
REMARK    1  A    between atoms: C_1  and  O_14 
REMARK       I    between atoms: C_6  and  N_10 
REMARK    2  A    between atoms: C_9  and  C_19 
REMARK    3  A    between atoms: C_12  and  C_26 
REMARK    4  A    between atoms: C_12  and  O_27 
REMARK    5  A    between atoms: C_19  and  N_20 
REMARK    6  A    between atoms: N_20  and  C_21 
ROOT
HETATM    1  C   UNK N   1      22.332  19.822   3.208  0.00  0.00     0.186 A 
HETATM    2  C   UNK N   1      21.544  18.776   3.687  0.00  0.00     0.129 A 
HETATM    3  C   UNK N   1      20.350  18.467   3.026  0.00  0.00     0.152 A 
HETATM    4  N   UNK N   1      21.914  18.061   4.774  0.00  0.00    -0.351 N 
ATOM      5  HN  UNK N   1      22.785  18.291   5.251  1.00  0.00     0.166 HD
HETATM    6  C   UNK N   1      20.762  20.206   1.479  0.00  0.00     0.679 A 
HETATM    7  N   UNK N   1      19.980  19.187   1.934  0.00  0.00    -0.174 N 
ATOM      8  HN  UNK N   1      19.110  18.963   1.451  1.00  0.00     0.186 HD
HETATM    9  C   UNK N   1      21.148  17.043   5.242  0.00  0.00     0.043 A 
HETATM   10  N   UNK N   1      20.367  20.944   0.347  0.00  0.00    -0.234 N 
HETATM   11  C   UNK N   1      19.949  16.727   4.584  0.00  0.00     0.116 A 
HETATM   12  N   UNK N   1      21.926  20.516   2.114  0.00  0.00    -0.168 N 
ATOM     13  HN  UNK N   1      22.502  21.281   1.763  1.00  0.00     0.186 HD
HETATM   14  N   UNK N   1      19.574  17.448   3.488  0.00  0.00    -0.348 N 
ATOM     15  HN  UNK N   1      18.703  17.220   3.008  1.00  0.00     0.167 HD
HETATM   16  H   UNK N   1      19.526  20.724  -0.116  0.00  0.00     0.174 HD
HETATM   17  H   UNK N   1      20.932  21.680   0.017  0.00  0.00     0.174 HD
ENDROOT
BRANCH   9  18
HETATM   18  C   UNK N   1      21.644  16.317   6.447  0.00  0.00     0.178 C 
BRANCH  18  19
HETATM   19  N   UNK N   1      20.898  15.142   6.833  0.00  0.00    -0.384 N 
HETATM   20  H   UNK N   1      20.105  14.861   6.321  0.00  0.00     0.160 HD
BRANCH  19  21
HETATM   21  C   UNK N   1      21.330  14.399   7.964  0.00  0.00     0.028 A 
HETATM   22  C   UNK N   1      20.485  14.219   9.065  0.00  0.00     0.030 A 
HETATM   23  C   UNK N   1      20.927  13.482  10.174  0.00  0.00     0.020 A 
HETATM   24  C   UNK N   1      22.218  12.923  10.186  0.00  0.00     0.037 A 
HETATM   25  C   UNK N   1      23.056  13.107   9.085  0.00  0.00     0.020 A 
HETATM   26  C   UNK N   1      22.617  13.837   7.985  0.00  0.00     0.030 A 
BRANCH  24  27
HETATM   27  C   UNK N   1      22.705  12.145  11.341  0.00  0.00     0.176 C 
HETATM   28  O   UNK N   1      23.901  11.967  11.510  0.00  0.00    -0.646 OA
BRANCH  27  29
HETATM   29  O   UNK N   1      21.826  11.623  12.222  0.00  0.00    -0.773 OA
HETATM   30  H   UNK N   1      21.473  12.159  12.906  0.00  0.00     0.167 HD
ENDBRANCH  27  29
ENDBRANCH  24  27
ENDBRANCH  19  21
ENDBRANCH  18  19
ENDBRANCH   9  18
BRANCH   1  31
HETATM   31  O   UNK N   1      23.484  20.144   3.820  0.00  0.00    -0.344 OA
HETATM   32  H   UNK N   1      23.702  19.756   4.644  0.00  0.00     0.219 HD
ENDBRANCH   1  31
TORSDOF 6
ENDMDL
MODEL 5
REMARK VINA RESULT:      -7.3      4.804      8.990
REMARK  6 active torsions:
REMARK  status: ('A' for Active; 'I' for Inactive)
REMARK    1  A    between atoms: C_1  and  O_14 
REMARK       I    between atoms: C_6  and  N_10 
REMARK    2  A    between atoms: C_9  and  C_19 
REMARK    3  A    between atoms: C_12  and  C_26 
REMARK    4  A    between atoms: C_12  and  O_27 
REMARK    5  A    between atoms: C_19  and  N_20 
REMARK    6  A    between atoms: N_20  and  C_21 
ROOT
HETATM    1  C   UNK N   1      35.528  16.039  10.861  0.00  0.00     0.186 A 
HETATM    2  C   UNK N   1      34.822  15.291   9.921  0.00  0.00     0.129 A 
HETATM    3  C   UNK N   1      34.366  14.014  10.272  0.00  0.00     0.152 A 
HETATM    4  N   UNK N   1      34.572  15.775   8.683  0.00  0.00    -0.351 N 
ATOM      5  HN  UNK N   1      34.907  16.705   8.433  1.00  0.00     0.166 HD
HETATM    6  C   UNK N   1      35.310  14.275  12.423  0.00  0.00     0.679 A 
HETATM    7  N   UNK N   1      34.617  13.529  11.516  0.00  0.00    -0.174 N 
ATOM      8  HN  UNK N   1      34.285  12.600  11.773  1.00  0.00     0.186 HD
HETATM    9  C   UNK N   1      33.885  15.048   7.766  0.00  0.00     0.043 A 
HETATM   10  N   UNK N   1      35.564  13.761  13.709  0.00  0.00    -0.234 N 
HETATM   11  C   UNK N   1      33.424  13.767   8.111  0.00  0.00     0.116 A 
HETATM   12  N   UNK N   1      35.758  15.518  12.093  0.00  0.00    -0.168 N 
ATOM     13  HN  UNK N   1      36.275  16.065  12.781  1.00  0.00     0.186 HD
HETATM   14  N   UNK N   1      33.675  13.277   9.360  0.00  0.00    -0.348 N 
ATOM     15  HN  UNK N   1      33.341  12.347   9.612  1.00  0.00     0.167 HD
HETATM   16  H   UNK N   1      35.241  12.862  13.953  0.00  0.00     0.174 HD
HETATM   17  H   UNK N   1      36.064  14.299  14.365  0.00  0.00     0.174 HD
ENDROOT
BRANCH   9  18
HETATM   18  C   UNK N   1      33.662  15.672   6.430  0.00  0.00     0.178 C 
BRANCH  18  19
HETATM   19  N   UNK N   1      33.114  17.008   6.436  0.00  0.00    -0.384 N 
HETATM   20  H   UNK N   1      33.607  17.754   6.024  0.00  0.00     0.160 HD
BRANCH  19  21
HETATM   21  C   UNK N   1      31.850  17.225   7.047  0.00  0.00     0.028 A 
HETATM   22  C   UNK N   1      30.679  16.730   6.462  0.00  0.00     0.030 A 
HETATM   23  C   UNK N   1      29.439  16.954   7.080  0.00  0.00     0.020 A 
HETATM   24  C   UNK N   1      29.366  17.674   8.287  0.00  0.00     0.037 A 
HETATM   25  C   UNK N   1      30.538  18.164   8.865  0.00  0.00     0.020 A 
HETATM   26  C   UNK N   1      31.767  17.943   8.252  0.00  0.00     0.030 A 
BRANCH  24  27
HETATM   27  C   UNK N   1      28.074  17.921   8.954  0.00  0.00     0.176 C 
HETATM   28  O   UNK N   1      27.578  17.073   9.679  0.00  0.00    -0.646 OA
BRANCH  27  29
HETATM   29  O   UNK N   1      27.429  19.090   8.764  0.00  0.00    -0.773 OA
HETATM   30  H   UNK N   1      26.514  19.093   8.558  0.00  0.00     0.167 HD
ENDBRANCH  27  29
ENDBRANCH  24  27
ENDBRANCH  19  21
ENDBRANCH  18  19
ENDBRANCH   9  18
BRANCH   1  31
HETATM   31  O   UNK N   1      35.980  17.267  10.555  0.00  0.00    -0.344 OA
HETATM   32  H   UNK N   1      35.565  17.764   9.878  0.00  0.00     0.219 HD
ENDBRANCH   1  31
TORSDOF 6
ENDMDL
MODEL 6
REMARK VINA RESULT:      -7.2      2.843      9.311
REMARK  6 active torsions:
REMARK  status: ('A' for Active; 'I' for Inactive)
REMARK    1  A    between atoms: C_1  and  O_14 
REMARK       I    between atoms: C_6  and  N_10 
REMARK    2  A    between atoms: C_9  and  C_19 
REMARK    3  A    between atoms: C_12  and  C_26 
REMARK    4  A    between atoms: C_12  and  O_27 
REMARK    5  A    between atoms: C_19  and  N_20 
REMARK    6  A    between atoms: N_20  and  C_21 
ROOT
HETATM    1  C   UNK N   1      36.775  14.222  14.985  0.00  0.00     0.186 A 
HETATM    2  C   UNK N   1      36.126  14.136  13.755  0.00  0.00     0.129 A 
HETATM    3  C   UNK N   1      35.278  13.050  13.507  0.00  0.00     0.152 A 
HETATM    4  N   UNK N   1      36.303  15.079  12.802  0.00  0.00    -0.351 N 
ATOM      5  HN  UNK N   1      36.922  15.868  12.988  1.00  0.00     0.166 HD
HETATM    6  C   UNK N   1      35.744  12.203  15.665  0.00  0.00     0.679 A 
HETATM    7  N   UNK N   1      35.102  12.103  14.466  0.00  0.00    -0.174 N 
ATOM      8  HN  UNK N   1      34.485  11.311  14.288  1.00  0.00     0.186 HD
HETATM    9  C   UNK N   1      35.673  14.997  11.603  0.00  0.00     0.043 A 
HETATM   10  N   UNK N   1      35.553  11.215  16.649  0.00  0.00    -0.234 N 
HETATM   11  C   UNK N   1      34.820  13.911  11.347  0.00  0.00     0.116 A 
HETATM   12  N   UNK N   1      36.571  13.255  15.916  0.00  0.00    -0.168 N 
ATOM     13  HN  UNK N   1      37.045  13.317  16.817  1.00  0.00     0.186 HD
HETATM   14  N   UNK N   1      34.641  12.958  12.308  0.00  0.00    -0.348 N 
ATOM     15  HN  UNK N   1      34.023  12.168  12.125  1.00  0.00     0.167 HD
HETATM   16  H   UNK N   1      34.955  10.452  16.472  0.00  0.00     0.174 HD
HETATM   17  H   UNK N   1      36.016  11.286  17.515  0.00  0.00     0.174 HD
ENDROOT
BRANCH   9  18
HETATM   18  C   UNK N   1      35.934  16.089  10.620  0.00  0.00     0.178 C 
BRANCH  18  19
HETATM   19  N   UNK N   1      34.865  17.041  10.428  0.00  0.00    -0.384 N 
HETATM   20  H   UNK N   1      34.617  17.668  11.145  0.00  0.00     0.160 HD
BRANCH  19  21
HETATM   21  C   UNK N   1      34.178  17.054   9.185  0.00  0.00     0.028 A 
HETATM   22  C   UNK N   1      34.517  17.980   8.191  0.00  0.00     0.030 A 
HETATM   23  C   UNK N   1      33.829  17.980   6.969  0.00  0.00     0.020 A 
HETATM   24  C   UNK N   1      32.797  17.052   6.735  0.00  0.00     0.037 A 
HETATM   25  C   UNK N   1      32.463  16.132   7.730  0.00  0.00     0.020 A 
HETATM   26  C   UNK N   1      33.146  16.132   8.942  0.00  0.00     0.030 A 
BRANCH  24  27
HETATM   27  C   UNK N   1      32.059  17.034   5.458  0.00  0.00     0.176 C 
HETATM   28  O   UNK N   1      31.017  16.406   5.352  0.00  0.00    -0.646 OA
BRANCH  27  29
HETATM   29  O   UNK N   1      32.534  17.714   4.394  0.00  0.00    -0.773 OA
HETATM   30  H   UNK N   1      32.462  17.349   3.534  0.00  0.00     0.167 HD
ENDBRANCH  27  29
ENDBRANCH  24  27
ENDBRANCH  19  21
ENDBRANCH  18  19
ENDBRANCH   9  18
BRANCH   1  31
HETATM   31  O   UNK N   1      37.595  15.252  15.254  0.00  0.00    -0.344 OA
HETATM   32  H   UNK N   1      37.289  15.973  15.768  0.00  0.00     0.219 HD
ENDBRANCH   1  31
TORSDOF 6
ENDMDL
MODEL 7
REMARK VINA RESULT:      -7.2      1.573      2.427
REMARK  6 active torsions:
REMARK  status: ('A' for Active; 'I' for Inactive)
REMARK    1  A    between atoms: C_1  and  O_14 
REMARK       I    between atoms: C_6  and  N_10 
REMARK    2  A    between atoms: C_9  and  C_19 
REMARK    3  A    between atoms: C_12  and  C_26 
REMARK    4  A    between atoms: C_12  and  O_27 
REMARK    5  A    between atoms: C_19  and  N_20 
REMARK    6  A    between atoms: N_20  and  C_21 
ROOT
HETATM    1  C   UNK N   1      32.625  14.507   9.054  0.00  0.00     0.186 A 
HETATM    2  C   UNK N   1      33.715  15.043   9.738  0.00  0.00     0.129 A 
HETATM    3  C   UNK N   1      33.920  16.428   9.711  0.00  0.00     0.152 A 
HETATM    4  N   UNK N   1      34.571  14.252  10.424  0.00  0.00    -0.351 N 
ATOM      5  HN  UNK N   1      34.416  13.244  10.440  1.00  0.00     0.166 HD
HETATM    6  C   UNK N   1      31.998  16.680   8.358  0.00  0.00     0.679 A 
HETATM    7  N   UNK N   1      33.058  17.222   9.022  0.00  0.00    -0.174 N 
ATOM      8  HN  UNK N   1      33.207  18.231   9.001  1.00  0.00     0.186 HD
HETATM    9  C   UNK N   1      35.633  14.772  11.090  0.00  0.00     0.043 A 
HETATM   10  N   UNK N   1      31.113  17.514   7.648  0.00  0.00    -0.234 N 
HETATM   11  C   UNK N   1      35.845  16.160  11.068  0.00  0.00     0.116 A 
HETATM   12  N   UNK N   1      31.789  15.335   8.378  0.00  0.00    -0.168 N 
ATOM     13  HN  UNK N   1      30.991  14.943   7.878  1.00  0.00     0.186 HD
HETATM   14  N   UNK N   1      34.982  16.960  10.376  0.00  0.00    -0.348 N 
ATOM     15  HN  UNK N   1      35.134  17.968  10.358  1.00  0.00     0.167 HD
HETATM   16  H   UNK N   1      31.260  18.488   7.631  0.00  0.00     0.174 HD
HETATM   17  H   UNK N   1      30.347  17.123   7.169  0.00  0.00     0.174 HD
ENDROOT
BRANCH   9  18
HETATM   18  C   UNK N   1      36.517  13.814  11.815  0.00  0.00     0.178 C 
BRANCH  18  19
HETATM   19  N   UNK N   1      35.850  12.805  12.604  0.00  0.00    -0.384 N 
HETATM   20  H   UNK N   1      35.505  11.985  12.181  0.00  0.00     0.160 HD
BRANCH  19  21
HETATM   21  C   UNK N   1      35.700  13.018  14.000  0.00  0.00     0.028 A 
HETATM   22  C   UNK N   1      34.714  12.338  14.725  0.00  0.00     0.030 A 
HETATM   23  C   UNK N   1      34.580  12.560  16.104  0.00  0.00     0.020 A 
HETATM   24  C   UNK N   1      35.432  13.465  16.764  0.00  0.00     0.037 A 
HETATM   25  C   UNK N   1      36.413  14.140  16.035  0.00  0.00     0.020 A 
HETATM   26  C   UNK N   1      36.546  13.919  14.668  0.00  0.00     0.030 A 
BRANCH  24  27
HETATM   27  C   UNK N   1      35.309  13.714  18.213  0.00  0.00     0.176 C 
HETATM   28  O   UNK N   1      35.249  14.855  18.643  0.00  0.00    -0.646 OA
BRANCH  27  29
HETATM   29  O   UNK N   1      35.262  12.677  19.075  0.00  0.00    -0.773 OA
HETATM   30  H   UNK N   1      35.171  12.835  19.994  0.00  0.00     0.167 HD
ENDBRANCH  27  29
ENDBRANCH  24  27
ENDBRANCH  19  21
ENDBRANCH  18  19
ENDBRANCH   9  18
BRANCH   1  31
HETATM   31  O   UNK N   1      32.400  13.182   9.061  0.00  0.00    -0.344 OA
HETATM   32  H   UNK N   1      32.471  12.691   8.266  0.00  0.00     0.219 HD
ENDBRANCH   1  31
TORSDOF 6
ENDMDL
MODEL 8
REMARK VINA RESULT:      -7.2     13.095     15.520
REMARK  6 active torsions:
REMARK  status: ('A' for Active; 'I' for Inactive)
REMARK    1  A    between atoms: C_1  and  O_14 
REMARK       I    between atoms: C_6  and  N_10 
REMARK    2  A    between atoms: C_9  and  C_19 
REMARK    3  A    between atoms: C_12  and  C_26 
REMARK    4  A    between atoms: C_12  and  O_27 
REMARK    5  A    between atoms: C_19  and  N_20 
REMARK    6  A    between atoms: N_20  and  C_21 
ROOT
HETATM    1  C   UNK N   1      20.025  17.239   2.306  0.00  0.00     0.186 A 
HETATM    2  C   UNK N   1      20.464  17.410   3.618  0.00  0.00     0.129 A 
HETATM    3  C   UNK N   1      20.963  18.658   4.010  0.00  0.00     0.152 A 
HETATM    4  N   UNK N   1      20.417  16.396   4.512  0.00  0.00    -0.351 N 
ATOM      5  HN  UNK N   1      20.053  15.489   4.220  1.00  0.00     0.166 HD
HETATM    6  C   UNK N   1      20.575  19.491   1.832  0.00  0.00     0.679 A 
HETATM    7  N   UNK N   1      21.009  19.676   3.110  0.00  0.00    -0.174 N 
ATOM      8  HN  UNK N   1      21.372  20.586   3.395  1.00  0.00     0.186 HD
HETATM    9  C   UNK N   1      20.845  16.561   5.789  0.00  0.00     0.043 A 
HETATM   10  N   UNK N   1      20.629  20.554   0.910  0.00  0.00    -0.234 N 
HETATM   11  C   UNK N   1      21.346  17.810   6.190  0.00  0.00     0.116 A 
HETATM   12  N   UNK N   1      20.089  18.281   1.439  0.00  0.00    -0.168 N 
ATOM     13  HN  UNK N   1      19.768  18.156   0.480  1.00  0.00     0.186 HD
HETATM   14  N   UNK N   1      21.394  18.834   5.289  0.00  0.00    -0.348 N 
ATOM     15  HN  UNK N   1      21.758  19.743   5.578  1.00  0.00     0.167 HD
HETATM   16  H   UNK N   1      20.981  21.431   1.189  0.00  0.00     0.174 HD
HETATM   17  H   UNK N   1      20.316  20.421  -0.014  0.00  0.00     0.174 HD
ENDROOT
BRANCH   9  18
HETATM   18  C   UNK N   1      20.750  15.381   6.696  0.00  0.00     0.178 C 
BRANCH  18  19
HETATM   19  N   UNK N   1      21.924  14.543   6.773  0.00  0.00    -0.384 N 
HETATM   20  H   UNK N   1      22.494  14.404   5.981  0.00  0.00     0.160 HD
BRANCH  19  21
HETATM   21  C   UNK N   1      22.241  13.922   8.010  0.00  0.00     0.028 A 
HETATM   22  C   UNK N   1      21.260  13.745   8.993  0.00  0.00     0.030 A 
HETATM   23  C   UNK N   1      21.590  13.130  10.210  0.00  0.00     0.020 A 
HETATM   24  C   UNK N   1      22.905  12.689  10.449  0.00  0.00     0.037 A 
HETATM   25  C   UNK N   1      23.879  12.869   9.464  0.00  0.00     0.020 A 
HETATM   26  C   UNK N   1      23.551  13.478   8.259  0.00  0.00     0.030 A 
BRANCH  24  27
HETATM   27  C   UNK N   1      23.275  12.040  11.721  0.00  0.00     0.176 C 
HETATM   28  O   UNK N   1      24.447  11.946  12.051  0.00  0.00    -0.646 OA
BRANCH  27  29
HETATM   29  O   UNK N   1      22.316  11.544  12.530  0.00  0.00    -0.773 OA
HETATM   30  H   UNK N   1      22.378  10.664  12.845  0.00  0.00     0.167 HD
ENDBRANCH  27  29
ENDBRANCH  24  27
ENDBRANCH  19  21
ENDBRANCH  18  19
ENDBRANCH   9  18
BRANCH   1  31
HETATM   31  O   UNK N   1      19.541  16.053   1.898  0.00  0.00    -0.344 OA
HETATM   32  H   UNK N   1      18.877  15.621   2.398  0.00  0.00     0.219 HD
ENDBRANCH   1  31
TORSDOF 6
ENDMDL
MODEL 9
REMARK VINA RESULT:      -7.1      7.855     13.341
REMARK  6 active torsions:
REMARK  status: ('A' for Active; 'I' for Inactive)
REMARK    1  A    between atoms: C_1  and  O_14 
REMARK       I    between atoms: C_6  and  N_10 
REMARK    2  A    between atoms: C_9  and  C_19 
REMARK    3  A    between atoms: C_12  and  C_26 
REMARK    4  A    between atoms: C_12  and  O_27 
REMARK    5  A    between atoms: C_19  and  N_20 
REMARK    6  A    between atoms: N_20  and  C_21 
ROOT
HETATM    1  C   UNK N   1      33.620  17.017   6.677  0.00  0.00     0.186 A 
HETATM    2  C   UNK N   1      32.239  17.118   6.834  0.00  0.00     0.129 A 
HETATM    3  C   UNK N   1      31.706  17.197   8.126  0.00  0.00     0.152 A 
HETATM    4  N   UNK N   1      31.411  17.140   5.765  0.00  0.00    -0.351 N 
ATOM      5  HN  UNK N   1      31.806  17.082   4.826  1.00  0.00     0.166 HD
HETATM    6  C   UNK N   1      33.888  17.075   9.028  0.00  0.00     0.679 A 
HETATM    7  N   UNK N   1      32.540  17.175   9.200  0.00  0.00    -0.174 N 
ATOM      8  HN  UNK N   1      32.153  17.232  10.142  1.00  0.00     0.186 HD
HETATM    9  C   UNK N   1      30.066  17.239   5.916  0.00  0.00     0.043 A 
HETATM   10  N   UNK N   1      34.740  17.053  10.148  0.00  0.00    -0.234 N 
HETATM   11  C   UNK N   1      29.524  17.319   7.209  0.00  0.00     0.116 A 
HETATM   12  N   UNK N   1      34.418  16.998   7.776  0.00  0.00    -0.168 N 
ATOM     13  HN  UNK N   1      35.428  16.924   7.661  1.00  0.00     0.186 HD
HETATM   14  N   UNK N   1      30.358  17.296   8.289  0.00  0.00    -0.348 N 
ATOM     15  HN  UNK N   1      29.967  17.354   9.229  1.00  0.00     0.167 HD
HETATM   16  H   UNK N   1      34.362  17.109  11.056  0.00  0.00     0.174 HD
HETATM   17  H   UNK N   1      35.714  16.981  10.025  0.00  0.00     0.174 HD
ENDROOT
BRANCH   9  18
HETATM   18  C   UNK N   1      29.241  17.255   4.673  0.00  0.00     0.178 C 
BRANCH  18  19
HETATM   19  N   UNK N   1      28.919  18.559   4.142  0.00  0.00    -0.384 N 
HETATM   20  H   UNK N   1      29.633  19.201   3.922  0.00  0.00     0.160 HD
BRANCH  19  21
HETATM   21  C   UNK N   1      27.555  18.897   3.941  0.00  0.00     0.028 A 
HETATM   22  C   UNK N   1      27.175  20.222   3.696  0.00  0.00     0.030 A 
HETATM   23  C   UNK N   1      25.822  20.538   3.500  0.00  0.00     0.020 A 
HETATM   24  C   UNK N   1      24.843  19.529   3.549  0.00  0.00     0.037 A 
HETATM   25  C   UNK N   1      25.228  18.210   3.794  0.00  0.00     0.020 A 
HETATM   26  C   UNK N   1      26.569  17.897   3.988  0.00  0.00     0.030 A 
BRANCH  24  27
HETATM   27  C   UNK N   1      23.415  19.839   3.347  0.00  0.00     0.176 C 
HETATM   28  O   UNK N   1      23.074  20.912   2.874  0.00  0.00    -0.646 OA
BRANCH  27  29
HETATM   29  O   UNK N   1      22.473  18.934   3.684  0.00  0.00    -0.773 OA
HETATM   30  H   UNK N   1      22.704  18.188   4.201  0.00  0.00     0.167 HD
ENDBRANCH  27  29
ENDBRANCH  24  27
ENDBRANCH  19  21
ENDBRANCH  18  19
ENDBRANCH   9  18
BRANCH   1  31
HETATM   31  O   UNK N   1      34.164  16.939   5.450  0.00  0.00    -0.344 OA
HETATM   32  H   UNK N   1      34.699  16.205   5.221  0.00  0.00     0.219 HD
ENDBRANCH   1  31
TORSDOF 6
ENDMDL
