MODEL 1
REMARK VINA RESULT:      -6.2      0.000      0.000
REMARK  3 active torsions:
REMARK  status: ('A' for Active; 'I' for Inactive)
REMARK    1  A    between atoms: C_2  and  C_3 
REMARK    2  A    between atoms: C_3  and  C_8 
REMARK    3  A    between atoms: C_13  and  C_15 
ROOT
HETATM    1  C   UNK N   1      36.045  15.104  11.461  0.00  0.00     0.212 A 
HETATM    2  N   UNK N   1      37.085  14.313  11.137  0.00  0.00    -0.275 N 
ATOM      3  HN  UNK N   1      37.577  14.291  10.244  1.00  0.00     0.189 HD
HETATM    4  N   UNK N   1      37.345  13.573  12.202  0.00  0.00    -0.281 N 
ATOM      5  HN  UNK N   1      38.075  12.867  12.290  1.00  0.00     0.189 HD
HETATM    6  C   UNK N   1      36.455  13.934  13.149  0.00  0.00     0.148 A 
HETATM    7  O   UNK N   1      35.655  14.870  12.692  0.00  0.00    -0.274 OA
ENDROOT
BRANCH   1   8
HETATM    8  C   UNK N   1      35.448  16.110  10.568  0.00  0.00     0.223 C 
HETATM    9  O   UNK N   1      35.882  17.253  10.575  0.00  0.00    -0.286 OA
BRANCH   8  10
HETATM   10  C   UNK N   1      34.329  15.721   9.632  0.00  0.00     0.155 C 
HETATM   11  N   UNK N   1      33.248  15.075  10.359  0.00  0.00    -0.410 N 
HETATM   12  C   UNK N   1      32.084  15.214   9.491  0.00  0.00     0.114 C 
HETATM   13  H   UNK N   1      33.293  14.625  11.273  0.00  0.00     0.154 HD
HETATM   14  C   UNK N   1      32.308  16.424   8.598  0.00  0.00     0.022 C 
HETATM   15  C   UNK N   1      33.701  16.904   8.927  0.00  0.00     0.034 C 
ENDBRANCH   8  10
ENDBRANCH   1   8
BRANCH   6  16
HETATM   16  C   UNK N   1      36.427  13.370  14.539  0.00  0.00     0.016 C 
HETATM   17  C   UNK N   1      37.006  14.388  15.502  0.00  0.00     0.023 C 
HETATM   18  C   UNK N   1      35.006  13.051  14.967  0.00  0.00     0.023 C 
HETATM   19  C   UNK N   1      37.253  12.100  14.601  0.00  0.00     0.023 C 
ENDBRANCH   6  16
TORSDOF 3
ENDMDL
MODEL 2
REMARK VINA RESULT:      -6.0      1.319      1.881
REMARK  3 active torsions:
REMARK  status: ('A' for Active; 'I' for Inactive)
REMARK    1  A    between atoms: C_2  and  C_3 
REMARK    2  A    between atoms: C_3  and  C_8 
REMARK    3  A    between atoms: C_13  and  C_15 
ROOT
HETATM    1  C   UNK N   1      35.544  14.823  12.447  0.00  0.00     0.212 A 
HETATM    2  N   UNK N   1      36.721  14.986  13.080  0.00  0.00    -0.275 N 
ATOM      3  HN  UNK N   1      37.450  15.659  12.847  1.00  0.00     0.189 HD
HETATM    4  N   UNK N   1      36.747  14.101  14.064  0.00  0.00    -0.281 N 
ATOM      5  HN  UNK N   1      37.501  13.959  14.736  1.00  0.00     0.189 HD
HETATM    6  C   UNK N   1      35.583  13.424  14.005  0.00  0.00     0.148 A 
HETATM    7  O   UNK N   1      34.847  13.865  13.009  0.00  0.00    -0.274 OA
ENDROOT
BRANCH   1   8
HETATM    8  C   UNK N   1      35.092  15.630  11.301  0.00  0.00     0.223 C 
HETATM    9  O   UNK N   1      35.359  16.823  11.264  0.00  0.00    -0.286 OA
BRANCH   8  10
HETATM   10  C   UNK N   1      34.332  14.979  10.172  0.00  0.00     0.155 C 
HETATM   11  N   UNK N   1      32.908  14.934  10.465  0.00  0.00    -0.410 N 
HETATM   12  C   UNK N   1      32.267  14.775   9.164  0.00  0.00     0.114 C 
HETATM   13  H   UNK N   1      32.458  15.001  11.377  0.00  0.00     0.154 HD
HETATM   14  C   UNK N   1      33.208  15.333   8.108  0.00  0.00     0.022 C 
HETATM   15  C   UNK N   1      34.458  15.722   8.860  0.00  0.00     0.034 C 
ENDBRANCH   8  10
ENDBRANCH   1   8
BRANCH   6  16
HETATM   16  C   UNK N   1      35.179  12.353  14.974  0.00  0.00     0.016 C 
HETATM   17  C   UNK N   1      34.151  11.450  14.320  0.00  0.00     0.023 C 
HETATM   18  C   UNK N   1      36.373  11.511  15.383  0.00  0.00     0.023 C 
HETATM   19  C   UNK N   1      34.573  12.978  16.216  0.00  0.00     0.023 C 
ENDBRANCH   6  16
TORSDOF 3
ENDMDL
MODEL 3
REMARK VINA RESULT:      -6.0      6.544      7.921
REMARK  3 active torsions:
REMARK  status: ('A' for Active; 'I' for Inactive)
REMARK    1  A    between atoms: C_2  and  C_3 
REMARK    2  A    between atoms: C_3  and  C_8 
REMARK    3  A    between atoms: C_13  and  C_15 
ROOT
HETATM    1  C   UNK N   1      32.221  17.517   7.440  0.00  0.00     0.212 A 
HETATM    2  N   UNK N   1      32.215  17.497   8.786  0.00  0.00    -0.275 N 
ATOM      3  HN  UNK N   1      33.030  17.454   9.397  1.00  0.00     0.189 HD
HETATM    4  N   UNK N   1      30.947  17.545   9.161  0.00  0.00    -0.281 N 
ATOM      5  HN  UNK N   1      30.594  17.544  10.117  1.00  0.00     0.189 HD
HETATM    6  C   UNK N   1      30.213  17.594   8.031  0.00  0.00     0.148 A 
HETATM    7  O   UNK N   1      30.995  17.572   6.976  0.00  0.00    -0.274 OA
ENDROOT
BRANCH   1   8
HETATM    8  C   UNK N   1      33.435  17.507   6.608  0.00  0.00     0.223 C 
HETATM    9  O   UNK N   1      34.446  18.063   7.014  0.00  0.00    -0.286 OA
BRANCH   8  10
HETATM   10  C   UNK N   1      33.435  16.791   5.280  0.00  0.00     0.155 C 
HETATM   11  N   UNK N   1      32.575  15.619   5.324  0.00  0.00    -0.410 N 
HETATM   12  C   UNK N   1      32.266  15.333   3.927  0.00  0.00     0.114 C 
HETATM   13  H   UNK N   1      32.257  15.110   6.149  0.00  0.00     0.154 HD
HETATM   14  C   UNK N   1      32.407  16.628   3.143  0.00  0.00     0.022 C 
HETATM   15  C   UNK N   1      32.911  17.641   4.142  0.00  0.00     0.034 C 
ENDBRANCH   8  10
ENDBRANCH   1   8
BRANCH   6  16
HETATM   16  C   UNK N   1      28.717  17.705   8.001  0.00  0.00     0.016 C 
HETATM   17  C   UNK N   1      28.168  16.763   6.947  0.00  0.00     0.023 C 
HETATM   18  C   UNK N   1      28.117  17.332   9.344  0.00  0.00     0.023 C 
HETATM   19  C   UNK N   1      28.309  19.125   7.660  0.00  0.00     0.023 C 
ENDBRANCH   6  16
TORSDOF 3
ENDMDL
MODEL 4
REMARK VINA RESULT:      -5.8      2.729      3.825
REMARK  3 active torsions:
REMARK  status: ('A' for Active; 'I' for Inactive)
REMARK    1  A    between atoms: C_2  and  C_3 
REMARK    2  A    between atoms: C_3  and  C_8 
REMARK    3  A    between atoms: C_13  and  C_15 
ROOT
HETATM    1  C   UNK N   1      34.955  17.061   9.371  0.00  0.00     0.212 A 
HETATM    2  N   UNK N   1      35.013  17.138  10.714  0.00  0.00    -0.275 N 
ATOM      3  HN  UNK N   1      34.828  17.963  11.285  1.00  0.00     0.189 HD
HETATM    4  N   UNK N   1      35.357  15.937  11.149  0.00  0.00    -0.281 N 
ATOM      5  HN  UNK N   1      35.490  15.655  12.119  1.00  0.00     0.189 HD
HETATM    6  C   UNK N   1      35.498  15.157  10.057  0.00  0.00     0.148 A 
HETATM    7  O   UNK N   1      35.256  15.850   8.967  0.00  0.00    -0.274 OA
ENDROOT
BRANCH   1   8
HETATM    8  C   UNK N   1      34.578  18.173   8.485  0.00  0.00     0.223 C 
HETATM    9  O   UNK N   1      35.261  19.188   8.470  0.00  0.00    -0.286 OA
BRANCH   8  10
HETATM   10  C   UNK N   1      33.376  18.047   7.582  0.00  0.00     0.155 C 
HETATM   11  N   UNK N   1      33.551  16.956   6.636  0.00  0.00    -0.410 N 
HETATM   12  C   UNK N   1      32.200  16.620   6.202  0.00  0.00     0.114 C 
HETATM   13  H   UNK N   1      34.426  16.521   6.342  0.00  0.00     0.154 HD
HETATM   14  C   UNK N   1      31.237  17.050   7.298  0.00  0.00     0.022 C 
HETATM   15  C   UNK N   1      32.097  17.739   8.330  0.00  0.00     0.034 C 
ENDBRANCH   8  10
ENDBRANCH   1   8
BRANCH   6  16
HETATM   16  C   UNK N   1      35.838  13.697  10.101  0.00  0.00     0.016 C 
HETATM   17  C   UNK N   1      36.683  13.346   8.892  0.00  0.00     0.023 C 
HETATM   18  C   UNK N   1      36.622  13.359  11.355  0.00  0.00     0.023 C 
HETATM   19  C   UNK N   1      34.569  12.868  10.078  0.00  0.00     0.023 C 
ENDBRANCH   6  16
TORSDOF 3
ENDMDL
MODEL 5
REMARK VINA RESULT:      -5.6     20.816     22.501
REMARK  3 active torsions:
REMARK  status: ('A' for Active; 'I' for Inactive)
REMARK    1  A    between atoms: C_2  and  C_3 
REMARK    2  A    between atoms: C_3  and  C_8 
REMARK    3  A    between atoms: C_13  and  C_15 
ROOT
HETATM    1  C   UNK N   1      26.551  26.441  -3.706  0.00  0.00     0.212 A 
HETATM    2  N   UNK N   1      25.887  27.226  -2.836  0.00  0.00    -0.275 N 
ATOM      3  HN  UNK N   1      25.230  26.920  -2.119  1.00  0.00     0.189 HD
HETATM    4  N   UNK N   1      26.252  28.471  -3.095  0.00  0.00    -0.281 N 
ATOM      5  HN  UNK N   1      25.931  29.312  -2.617  1.00  0.00     0.189 HD
HETATM    6  C   UNK N   1      27.131  28.411  -4.116  0.00  0.00     0.148 A 
HETATM    7  O   UNK N   1      27.310  27.165  -4.493  0.00  0.00    -0.274 OA
ENDROOT
BRANCH   1   8
HETATM    8  C   UNK N   1      26.457  24.972  -3.746  0.00  0.00     0.223 C 
HETATM    9  O   UNK N   1      26.644  24.330  -2.722  0.00  0.00    -0.286 OA
BRANCH   8  10
HETATM   10  C   UNK N   1      26.106  24.273  -5.036  0.00  0.00     0.155 C 
HETATM   11  N   UNK N   1      25.495  25.198  -5.977  0.00  0.00    -0.410 N 
HETATM   12  C   UNK N   1      25.672  24.572  -7.282  0.00  0.00     0.114 C 
HETATM   13  H   UNK N   1      25.044  26.089  -5.770  0.00  0.00     0.154 HD
HETATM   14  C   UNK N   1      26.874  23.644  -7.196  0.00  0.00     0.022 C 
HETATM   15  C   UNK N   1      27.308  23.695  -5.751  0.00  0.00     0.034 C 
ENDBRANCH   8  10
ENDBRANCH   1   8
BRANCH   6  16
HETATM   16  C   UNK N   1      27.833  29.602  -4.697  0.00  0.00     0.016 C 
HETATM   17  C   UNK N   1      27.004  30.845  -4.436  0.00  0.00     0.023 C 
HETATM   18  C   UNK N   1      29.200  29.790  -4.065  0.00  0.00     0.023 C 
HETATM   19  C   UNK N   1      28.006  29.425  -6.193  0.00  0.00     0.023 C 
ENDBRANCH   6  16
TORSDOF 3
ENDMDL
MODEL 6
REMARK VINA RESULT:      -5.6      2.299      6.248
REMARK  3 active torsions:
REMARK  status: ('A' for Active; 'I' for Inactive)
REMARK    1  A    between atoms: C_2  and  C_3 
REMARK    2  A    between atoms: C_3  and  C_8 
REMARK    3  A    between atoms: C_13  and  C_15 
ROOT
HETATM    1  C   UNK N   1      34.015  14.987  10.383  0.00  0.00     0.212 A 
HETATM    2  N   UNK N   1      32.676  14.873  10.463  0.00  0.00    -0.275 N 
ATOM      3  HN  UNK N   1      32.154  14.234  11.061  1.00  0.00     0.189 HD
HETATM    4  N   UNK N   1      32.170  15.753   9.613  0.00  0.00    -0.281 N 
ATOM      5  HN  UNK N   1      31.182  15.922   9.428  1.00  0.00     0.189 HD
HETATM    6  C   UNK N   1      33.216  16.381   9.039  0.00  0.00     0.148 A 
HETATM    7  O   UNK N   1      34.348  15.907   9.509  0.00  0.00    -0.274 OA
ENDROOT
BRANCH   1   8
HETATM    8  C   UNK N   1      34.970  14.208  11.187  0.00  0.00     0.223 C 
HETATM    9  O   UNK N   1      34.762  14.050  12.382  0.00  0.00    -0.286 OA
BRANCH   8  10
HETATM   10  C   UNK N   1      36.180  13.586  10.532  0.00  0.00     0.155 C 
HETATM   11  N   UNK N   1      36.957  14.591   9.823  0.00  0.00    -0.410 N 
HETATM   12  C   UNK N   1      38.285  14.004   9.687  0.00  0.00     0.114 C 
HETATM   13  H   UNK N   1      36.643  15.504   9.494  0.00  0.00     0.154 HD
HETATM   14  C   UNK N   1      38.463  12.988  10.804  0.00  0.00     0.022 C 
HETATM   15  C   UNK N   1      37.134  12.950  11.519  0.00  0.00     0.034 C 
ENDBRANCH   8  10
ENDBRANCH   1   8
BRANCH   6  16
HETATM   16  C   UNK N   1      33.088  17.493   8.041  0.00  0.00     0.016 C 
HETATM   17  C   UNK N   1      33.011  16.905   6.645  0.00  0.00     0.023 C 
HETATM   18  C   UNK N   1      31.834  18.309   8.293  0.00  0.00     0.023 C 
HETATM   19  C   UNK N   1      34.293  18.410   8.129  0.00  0.00     0.023 C 
ENDBRANCH   6  16
TORSDOF 3
ENDMDL
MODEL 7
REMARK VINA RESULT:      -5.6      1.779      2.214
REMARK  3 active torsions:
REMARK  status: ('A' for Active; 'I' for Inactive)
REMARK    1  A    between atoms: C_2  and  C_3 
REMARK    2  A    between atoms: C_3  and  C_8 
REMARK    3  A    between atoms: C_13  and  C_15 
ROOT
HETATM    1  C   UNK N   1      35.579  15.558  10.598  0.00  0.00     0.212 A 
HETATM    2  N   UNK N   1      36.720  15.571  11.313  0.00  0.00    -0.275 N 
ATOM      3  HN  UNK N   1      37.356  16.359  11.430  1.00  0.00     0.189 HD
HETATM    4  N   UNK N   1      36.854  14.361  11.833  0.00  0.00    -0.281 N 
ATOM      5  HN  UNK N   1      37.614  14.035  12.429  1.00  0.00     0.189 HD
HETATM    6  C   UNK N   1      35.789  13.644  11.422  0.00  0.00     0.148 A 
HETATM    7  O   UNK N   1      35.009  14.378  10.661  0.00  0.00    -0.274 OA
ENDROOT
BRANCH   1   8
HETATM    8  C   UNK N   1      35.033  16.717   9.873  0.00  0.00     0.223 C 
HETATM    9  O   UNK N   1      35.523  17.824  10.053  0.00  0.00    -0.286 OA
BRANCH   8  10
HETATM   10  C   UNK N   1      33.900  16.531   8.894  0.00  0.00     0.155 C 
HETATM   11  N   UNK N   1      32.748  15.927   9.546  0.00  0.00    -0.410 N 
HETATM   12  C   UNK N   1      31.618  16.262   8.686  0.00  0.00     0.114 C 
HETATM   13  H   UNK N   1      32.734  15.390  10.412  0.00  0.00     0.154 HD
HETATM   14  C   UNK N   1      31.975  17.523   7.916  0.00  0.00     0.022 C 
HETATM   15  C   UNK N   1      33.401  17.831   8.302  0.00  0.00     0.034 C 
ENDBRANCH   8  10
ENDBRANCH   1   8
BRANCH   6  16
HETATM   16  C   UNK N   1      35.521  12.224  11.825  0.00  0.00     0.016 C 
HETATM   17  C   UNK N   1      36.839  11.483  11.944  0.00  0.00     0.023 C 
HETATM   18  C   UNK N   1      34.808  12.163  13.163  0.00  0.00     0.023 C 
HETATM   19  C   UNK N   1      34.660  11.542  10.779  0.00  0.00     0.023 C 
ENDBRANCH   6  16
TORSDOF 3
ENDMDL
MODEL 8
REMARK VINA RESULT:      -5.5      2.510      3.601
REMARK  3 active torsions:
REMARK  status: ('A' for Active; 'I' for Inactive)
REMARK    1  A    between atoms: C_2  and  C_3 
REMARK    2  A    between atoms: C_3  and  C_8 
REMARK    3  A    between atoms: C_13  and  C_15 
ROOT
HETATM    1  C   UNK N   1      35.815  14.327  12.793  0.00  0.00     0.212 A 
HETATM    2  N   UNK N   1      36.828  14.742  13.578  0.00  0.00    -0.275 N 
ATOM      3  HN  UNK N   1      37.536  15.436  13.341  1.00  0.00     0.189 HD
HETATM    4  N   UNK N   1      36.723  14.073  14.715  0.00  0.00    -0.281 N 
ATOM      5  HN  UNK N   1      37.337  14.150  15.525  1.00  0.00     0.189 HD
HETATM    6  C   UNK N   1      35.648  13.269  14.593  0.00  0.00     0.148 A 
HETATM    7  O   UNK N   1      35.094  13.422  13.411  0.00  0.00    -0.274 OA
ENDROOT
BRANCH   1   8
HETATM    8  C   UNK N   1      35.541  14.840  11.441  0.00  0.00     0.223 C 
HETATM    9  O   UNK N   1      34.685  15.700  11.286  0.00  0.00    -0.286 OA
BRANCH   8  10
HETATM   10  C   UNK N   1      36.332  14.327  10.262  0.00  0.00     0.155 C 
HETATM   11  N   UNK N   1      37.692  14.842  10.289  0.00  0.00    -0.410 N 
HETATM   12  C   UNK N   1      38.454  13.920   9.453  0.00  0.00     0.114 C 
HETATM   13  H   UNK N   1      38.037  15.665  10.782  0.00  0.00     0.154 HD
HETATM   14  C   UNK N   1      37.729  12.583   9.452  0.00  0.00     0.022 C 
HETATM   15  C   UNK N   1      36.465  12.819  10.242  0.00  0.00     0.034 C 
ENDBRANCH   8  10
ENDBRANCH   1   8
BRANCH   6  16
HETATM   16  C   UNK N   1      35.140  12.367  15.678  0.00  0.00     0.016 C 
HETATM   17  C   UNK N   1      33.957  11.575  15.156  0.00  0.00     0.023 C 
HETATM   18  C   UNK N   1      36.216  11.394  16.124  0.00  0.00     0.023 C 
HETATM   19  C   UNK N   1      34.699  13.190  16.873  0.00  0.00     0.023 C 
ENDBRANCH   6  16
TORSDOF 3
ENDMDL
MODEL 9
REMARK VINA RESULT:      -5.4      6.801     10.409
REMARK  3 active torsions:
REMARK  status: ('A' for Active; 'I' for Inactive)
REMARK    1  A    between atoms: C_2  and  C_3 
REMARK    2  A    between atoms: C_3  and  C_8 
REMARK    3  A    between atoms: C_13  and  C_15 
ROOT
HETATM    1  C   UNK N   1      28.567  17.731   7.503  0.00  0.00     0.212 A 
HETATM    2  N   UNK N   1      27.482  16.964   7.284  0.00  0.00    -0.275 N 
ATOM      3  HN  UNK N   1      27.287  16.054   7.700  1.00  0.00     0.189 HD
HETATM    4  N   UNK N   1      26.720  17.622   6.426  0.00  0.00    -0.281 N 
ATOM      5  HN  UNK N   1      25.823  17.316   6.049  1.00  0.00     0.189 HD
HETATM    6  C   UNK N   1      27.361  18.774   6.145  0.00  0.00     0.148 A 
HETATM    7  O   UNK N   1      28.497  18.838   6.803  0.00  0.00    -0.274 OA
ENDROOT
BRANCH   1   8
HETATM    8  C   UNK N   1      29.664  17.387   8.422  0.00  0.00     0.223 C 
HETATM    9  O   UNK N   1      29.462  17.392   9.628  0.00  0.00    -0.286 OA
BRANCH   8  10
HETATM   10  C   UNK N   1      31.017  17.003   7.874  0.00  0.00     0.155 C 
HETATM   11  N   UNK N   1      31.046  17.139   6.426  0.00  0.00    -0.410 N 
HETATM   12  C   UNK N   1      32.462  17.240   6.092  0.00  0.00     0.114 C 
HETATM   13  H   UNK N   1      30.252  17.160   5.787  0.00  0.00     0.154 HD
HETATM   14  C   UNK N   1      33.193  17.774   7.313  0.00  0.00     0.022 C 
HETATM   15  C   UNK N   1      32.141  17.874   8.391  0.00  0.00     0.034 C 
ENDBRANCH   8  10
ENDBRANCH   1   8
BRANCH   6  16
HETATM   16  C   UNK N   1      26.819  19.843   5.243  0.00  0.00     0.016 C 
HETATM   17  C   UNK N   1      25.368  19.539   4.924  0.00  0.00     0.023 C 
HETATM   18  C   UNK N   1      26.894  21.205   5.907  0.00  0.00     0.023 C 
HETATM   19  C   UNK N   1      27.613  19.885   3.952  0.00  0.00     0.023 C 
ENDBRANCH   6  16
TORSDOF 3
ENDMDL
