MODEL 1
REMARK VINA RESULT:      -4.7      0.000      0.000
REMARK  4 active torsions:
REMARK  status: ('A' for Active; 'I' for Inactive)
REMARK    1  A    between atoms: N_1  and  C_2 
REMARK    2  A    between atoms: C_2  and  S_3 
REMARK    3  A    between atoms: S_3  and  C_12 
REMARK    4  A    between atoms: N_4  and  C_6 
ROOT
HETATM    1  C   UNK N   1      35.932  13.535  14.547  0.00  0.00     0.138 C 
HETATM    2  N   UNK N   1      35.023  12.991  15.297  0.00  0.00    -0.337 N 
ATOM      3  HN  UNK N   1      34.123  12.794  14.859  1.00  0.00     0.168 HD
ENDROOT
BRANCH   2   4
HETATM    4  C   UNK N   1      35.156  12.641  16.682  0.00  0.00     0.034 A 
HETATM    5  C   UNK N   1      35.424  11.308  17.018  0.00  0.00     0.029 A 
HETATM    6  C   UNK N   1      35.562  10.927  18.359  0.00  0.00     0.002 A 
HETATM    7  C   UNK N   1      35.433  11.877  19.375  0.00  0.00     0.000 A 
HETATM    8  C   UNK N   1      35.168  13.209  19.053  0.00  0.00     0.002 A 
HETATM    9  C   UNK N   1      35.030  13.588  17.716  0.00  0.00     0.029 A 
ENDBRANCH   2   4
BRANCH   1  10
HETATM   10  N   UNK N   1      37.215  13.855  15.050  0.00  0.00    -0.380 N 
HETATM   11  H   UNK N   1      37.311  14.217  15.960  0.00  0.00     0.158 HD
HETATM   12  H   UNK N   1      38.012  13.715  14.489  0.00  0.00     0.158 HD
ENDBRANCH   1  10
BRANCH   1  13
HETATM   13  S   UNK N   1      35.603  13.915  12.810  0.00  0.00    -0.095 SA
BRANCH  13  14
HETATM   14  C   UNK N   1      37.017  13.055  12.061  0.00  0.00     0.078 C 
HETATM   15  C   UNK N   1      36.791  11.560  12.183  0.00  0.00     0.016 C 
ENDBRANCH  13  14
ENDBRANCH   1  13
TORSDOF 4
ENDMDL
MODEL 2
REMARK VINA RESULT:      -4.6      1.240      2.081
REMARK  4 active torsions:
REMARK  status: ('A' for Active; 'I' for Inactive)
REMARK    1  A    between atoms: N_1  and  C_2 
REMARK    2  A    between atoms: C_2  and  S_3 
REMARK    3  A    between atoms: S_3  and  C_12 
REMARK    4  A    between atoms: N_4  and  C_6 
ROOT
HETATM    1  C   UNK N   1      35.844  13.153  14.241  0.00  0.00     0.138 C 
HETATM    2  N   UNK N   1      34.911  12.845  15.090  0.00  0.00    -0.337 N 
ATOM      3  HN  UNK N   1      33.957  12.810  14.731  1.00  0.00     0.168 HD
ENDROOT
BRANCH   2   4
HETATM    4  C   UNK N   1      35.087  12.549  16.482  0.00  0.00     0.034 A 
HETATM    5  C   UNK N   1      35.023  13.598  17.408  0.00  0.00     0.029 A 
HETATM    6  C   UNK N   1      35.190  13.350  18.776  0.00  0.00     0.002 A 
HETATM    7  C   UNK N   1      35.421  12.049  19.231  0.00  0.00     0.000 A 
HETATM    8  C   UNK N   1      35.485  10.995  18.319  0.00  0.00     0.002 A 
HETATM    9  C   UNK N   1      35.319  11.244  16.954  0.00  0.00     0.029 A 
ENDBRANCH   2   4
BRANCH   1  10
HETATM   10  N   UNK N   1      37.202  13.233  14.629  0.00  0.00    -0.380 N 
HETATM   11  H   UNK N   1      37.565  14.077  14.981  0.00  0.00     0.158 HD
HETATM   12  H   UNK N   1      37.784  12.443  14.548  0.00  0.00     0.158 HD
ENDBRANCH   1  10
BRANCH   1  13
HETATM   13  S   UNK N   1      35.454  13.499  12.510  0.00  0.00    -0.095 SA
BRANCH  13  14
HETATM   14  C   UNK N   1      36.097  15.194  12.410  0.00  0.00     0.078 C 
HETATM   15  C   UNK N   1      35.392  15.910  11.274  0.00  0.00     0.016 C 
ENDBRANCH  13  14
ENDBRANCH   1  13
TORSDOF 4
ENDMDL
MODEL 3
REMARK VINA RESULT:      -4.5     24.991     26.479
REMARK  4 active torsions:
REMARK  status: ('A' for Active; 'I' for Inactive)
REMARK    1  A    between atoms: N_1  and  C_2 
REMARK    2  A    between atoms: C_2  and  S_3 
REMARK    3  A    between atoms: S_3  and  C_12 
REMARK    4  A    between atoms: N_4  and  C_6 
ROOT
HETATM    1  C   UNK N   1      27.549  29.421  -3.008  0.00  0.00     0.138 C 
HETATM    2  N   UNK N   1      26.470  28.706  -2.918  0.00  0.00    -0.337 N 
ATOM      3  HN  UNK N   1      25.810  28.961  -2.184  1.00  0.00     0.168 HD
ENDROOT
BRANCH   2   4
HETATM    4  C   UNK N   1      26.114  27.590  -3.746  0.00  0.00     0.034 A 
HETATM    5  C   UNK N   1      26.567  26.314  -3.390  0.00  0.00     0.029 A 
HETATM    6  C   UNK N   1      26.240  25.199  -4.173  0.00  0.00     0.002 A 
HETATM    7  C   UNK N   1      25.455  25.352  -5.318  0.00  0.00     0.000 A 
HETATM    8  C   UNK N   1      24.995  26.618  -5.683  0.00  0.00     0.002 A 
HETATM    9  C   UNK N   1      25.323  27.729  -4.902  0.00  0.00     0.029 A 
ENDBRANCH   2   4
BRANCH   1  10
HETATM   10  N   UNK N   1      28.535  29.155  -3.987  0.00  0.00    -0.380 N 
HETATM   11  H   UNK N   1      29.132  28.378  -3.888  0.00  0.00     0.158 HD
HETATM   12  H   UNK N   1      28.625  29.747  -4.769  0.00  0.00     0.158 HD
ENDBRANCH   1  10
BRANCH   1  13
HETATM   13  S   UNK N   1      27.850  30.803  -1.882  0.00  0.00    -0.095 SA
BRANCH  13  14
HETATM   14  C   UNK N   1      28.832  29.933  -0.625  0.00  0.00     0.078 C 
HETATM   15  C   UNK N   1      28.236  30.223   0.738  0.00  0.00     0.016 C 
ENDBRANCH  13  14
ENDBRANCH   1  13
TORSDOF 4
ENDMDL
MODEL 4
REMARK VINA RESULT:      -4.4     22.558     25.037
REMARK  4 active torsions:
REMARK  status: ('A' for Active; 'I' for Inactive)
REMARK    1  A    between atoms: N_1  and  C_2 
REMARK    2  A    between atoms: C_2  and  S_3 
REMARK    3  A    between atoms: S_3  and  C_12 
REMARK    4  A    between atoms: N_4  and  C_6 
ROOT
HETATM    1  C   UNK N   1      28.503  24.201  -3.318  0.00  0.00     0.138 C 
HETATM    2  N   UNK N   1      27.242  24.467  -3.167  0.00  0.00    -0.337 N 
ATOM      3  HN  UNK N   1      26.732  23.904  -2.487  1.00  0.00     0.168 HD
ENDROOT
BRANCH   2   4
HETATM    4  C   UNK N   1      26.493  25.473  -3.862  0.00  0.00     0.034 A 
HETATM    5  C   UNK N   1      25.870  25.136  -5.071  0.00  0.00     0.029 A 
HETATM    6  C   UNK N   1      25.129  26.091  -5.779  0.00  0.00     0.002 A 
HETATM    7  C   UNK N   1      25.004  27.391  -5.283  0.00  0.00     0.000 A 
HETATM    8  C   UNK N   1      25.618  27.739  -4.079  0.00  0.00     0.002 A 
HETATM    9  C   UNK N   1      26.357  26.786  -3.374  0.00  0.00     0.029 A 
ENDBRANCH   2   4
BRANCH   1  10
HETATM   10  N   UNK N   1      29.308  24.917  -4.235  0.00  0.00    -0.380 N 
HETATM   11  H   UNK N   1      28.888  25.495  -4.912  0.00  0.00     0.158 HD
HETATM   12  H   UNK N   1      30.288  24.836  -4.197  0.00  0.00     0.158 HD
ENDBRANCH   1  10
BRANCH   1  13
HETATM   13  S   UNK N   1      29.303  22.893  -2.359  0.00  0.00    -0.095 SA
BRANCH  13  14
HETATM   14  C   UNK N   1      30.646  22.481  -3.510  0.00  0.00     0.078 C 
HETATM   15  C   UNK N   1      30.657  20.979  -3.719  0.00  0.00     0.016 C 
ENDBRANCH  13  14
ENDBRANCH   1  13
TORSDOF 4
ENDMDL
MODEL 5
REMARK VINA RESULT:      -4.2      1.897      2.430
REMARK  4 active torsions:
REMARK  status: ('A' for Active; 'I' for Inactive)
REMARK    1  A    between atoms: N_1  and  C_2 
REMARK    2  A    between atoms: C_2  and  S_3 
REMARK    3  A    between atoms: S_3  and  C_12 
REMARK    4  A    between atoms: N_4  and  C_6 
ROOT
HETATM    1  C   UNK N   1      35.752  13.130  13.093  0.00  0.00     0.138 C 
HETATM    2  N   UNK N   1      36.418  13.252  14.200  0.00  0.00    -0.337 N 
ATOM      3  HN  UNK N   1      37.260  13.827  14.169  1.00  0.00     0.168 HD
ENDROOT
BRANCH   2   4
HETATM    4  C   UNK N   1      36.088  12.660  15.464  0.00  0.00     0.034 A 
HETATM    5  C   UNK N   1      36.470  11.335  15.708  0.00  0.00     0.029 A 
HETATM    6  C   UNK N   1      36.167  10.721  16.930  0.00  0.00     0.002 A 
HETATM    7  C   UNK N   1      35.480  11.429  17.920  0.00  0.00     0.000 A 
HETATM    8  C   UNK N   1      35.097  12.751  17.690  0.00  0.00     0.002 A 
HETATM    9  C   UNK N   1      35.398  13.362  16.470  0.00  0.00     0.029 A 
ENDBRANCH   2   4
BRANCH   1  10
HETATM   10  N   UNK N   1      34.570  12.355  13.020  0.00  0.00    -0.380 N 
HETATM   11  H   UNK N   1      34.562  11.516  12.507  0.00  0.00     0.158 HD
HETATM   12  H   UNK N   1      33.755  12.657  13.483  0.00  0.00     0.158 HD
ENDBRANCH   1  10
BRANCH   1  13
HETATM   13  S   UNK N   1      36.303  13.946  11.577  0.00  0.00    -0.095 SA
BRANCH  13  14
HETATM   14  C   UNK N   1      34.889  15.057  11.325  0.00  0.00     0.078 C 
HETATM   15  C   UNK N   1      35.415  16.442  10.999  0.00  0.00     0.016 C 
ENDBRANCH  13  14
ENDBRANCH   1  13
TORSDOF 4
ENDMDL
MODEL 6
REMARK VINA RESULT:      -4.1      1.969      2.772
REMARK  4 active torsions:
REMARK  status: ('A' for Active; 'I' for Inactive)
REMARK    1  A    between atoms: N_1  and  C_2 
REMARK    2  A    between atoms: C_2  and  S_3 
REMARK    3  A    between atoms: S_3  and  C_12 
REMARK    4  A    between atoms: N_4  and  C_6 
ROOT
HETATM    1  C   UNK N   1      34.760  11.484  14.298  0.00  0.00     0.138 C 
HETATM    2  N   UNK N   1      35.651  11.977  15.103  0.00  0.00    -0.337 N 
ATOM      3  HN  UNK N   1      36.504  12.341  14.678  1.00  0.00     0.168 HD
ENDROOT
BRANCH   2   4
HETATM    4  C   UNK N   1      35.558  12.058  16.532  0.00  0.00     0.034 A 
HETATM    5  C   UNK N   1      35.220  13.285  17.117  0.00  0.00     0.029 A 
HETATM    6  C   UNK N   1      35.120  13.405  18.509  0.00  0.00     0.002 A 
HETATM    7  C   UNK N   1      35.355  12.298  19.328  0.00  0.00     0.000 A 
HETATM    8  C   UNK N   1      35.691  11.069  18.757  0.00  0.00     0.002 A 
HETATM    9  C   UNK N   1      35.792  10.951  17.369  0.00  0.00     0.029 A 
ENDBRANCH   2   4
BRANCH   1  10
HETATM   10  N   UNK N   1      33.542  10.949  14.778  0.00  0.00    -0.380 N 
HETATM   11  H   UNK N   1      33.074  11.383  15.527  0.00  0.00     0.158 HD
HETATM   12  H   UNK N   1      33.162  10.141  14.362  0.00  0.00     0.158 HD
ENDBRANCH   1  10
BRANCH   1  13
HETATM   13  S   UNK N   1      35.031  11.457  12.510  0.00  0.00    -0.095 SA
BRANCH  13  14
HETATM   14  C   UNK N   1      34.550   9.737  12.179  0.00  0.00     0.078 C 
HETATM   15  C   UNK N   1      33.380   9.741  11.215  0.00  0.00     0.016 C 
ENDBRANCH  13  14
ENDBRANCH   1  13
TORSDOF 4
ENDMDL
MODEL 7
REMARK VINA RESULT:      -4.1      7.949     10.065
REMARK  4 active torsions:
REMARK  status: ('A' for Active; 'I' for Inactive)
REMARK    1  A    between atoms: N_1  and  C_2 
REMARK    2  A    between atoms: C_2  and  S_3 
REMARK    3  A    between atoms: S_3  and  C_12 
REMARK    4  A    between atoms: N_4  and  C_6 
ROOT
HETATM    1  C   UNK N   1      32.719  15.783   9.018  0.00  0.00     0.138 C 
HETATM    2  N   UNK N   1      32.310  16.713   8.209  0.00  0.00    -0.337 N 
ATOM      3  HN  UNK N   1      32.996  17.084   7.552  1.00  0.00     0.168 HD
ENDROOT
BRANCH   2   4
HETATM    4  C   UNK N   1      30.991  17.272   8.149  0.00  0.00     0.034 A 
HETATM    5  C   UNK N   1      30.099  16.795   7.179  0.00  0.00     0.029 A 
HETATM    6  C   UNK N   1      28.803  17.316   7.089  0.00  0.00     0.002 A 
HETATM    7  C   UNK N   1      28.386  18.319   7.968  0.00  0.00     0.000 A 
HETATM    8  C   UNK N   1      29.264  18.802   8.939  0.00  0.00     0.002 A 
HETATM    9  C   UNK N   1      30.558  18.282   9.028  0.00  0.00     0.029 A 
ENDBRANCH   2   4
BRANCH   1  10
HETATM   10  N   UNK N   1      31.854  15.199   9.973  0.00  0.00    -0.380 N 
HETATM   11  H   UNK N   1      31.738  15.619  10.855  0.00  0.00     0.158 HD
HETATM   12  H   UNK N   1      31.368  14.370   9.755  0.00  0.00     0.158 HD
ENDBRANCH   1  10
BRANCH   1  13
HETATM   13  S   UNK N   1      34.424  15.183   8.966  0.00  0.00    -0.095 SA
BRANCH  13  14
HETATM   14  C   UNK N   1      34.738  15.074  10.751  0.00  0.00     0.078 C 
HETATM   15  C   UNK N   1      35.455  16.336  11.192  0.00  0.00     0.016 C 
ENDBRANCH  13  14
ENDBRANCH   1  13
TORSDOF 4
ENDMDL
MODEL 8
REMARK VINA RESULT:      -4.0      5.289      8.688
REMARK  4 active torsions:
REMARK  status: ('A' for Active; 'I' for Inactive)
REMARK    1  A    between atoms: N_1  and  C_2 
REMARK    2  A    between atoms: C_2  and  S_3 
REMARK    3  A    between atoms: S_3  and  C_12 
REMARK    4  A    between atoms: N_4  and  C_6 
ROOT
HETATM    1  C   UNK N   1      34.828  15.180  10.901  0.00  0.00     0.138 C 
HETATM    2  N   UNK N   1      35.451  15.806   9.950  0.00  0.00    -0.337 N 
ATOM      3  HN  UNK N   1      36.456  15.933  10.066  1.00  0.00     0.168 HD
ENDROOT
BRANCH   2   4
HETATM    4  C   UNK N   1      34.868  16.340   8.754  0.00  0.00     0.034 A 
HETATM    5  C   UNK N   1      34.871  15.556   7.593  0.00  0.00     0.029 A 
HETATM    6  C   UNK N   1      34.311  16.042   6.405  0.00  0.00     0.002 A 
HETATM    7  C   UNK N   1      33.742  17.317   6.368  0.00  0.00     0.000 A 
HETATM    8  C   UNK N   1      33.731  18.109   7.517  0.00  0.00     0.002 A 
HETATM    9  C   UNK N   1      34.291  17.623   8.702  0.00  0.00     0.029 A 
ENDBRANCH   2   4
BRANCH   1  10
HETATM   10  N   UNK N   1      33.433  14.950  10.846  0.00  0.00    -0.380 N 
HETATM   11  H   UNK N   1      32.821  15.503  11.383  0.00  0.00     0.158 HD
HETATM   12  H   UNK N   1      33.074  14.236  10.271  0.00  0.00     0.158 HD
ENDBRANCH   1  10
BRANCH   1  13
HETATM   13  S   UNK N   1      35.714  14.565  12.351  0.00  0.00    -0.095 SA
BRANCH  13  14
HETATM   14  C   UNK N   1      36.215  12.942  11.708  0.00  0.00     0.078 C 
HETATM   15  C   UNK N   1      37.629  13.053  11.169  0.00  0.00     0.016 C 
ENDBRANCH  13  14
ENDBRANCH   1  13
TORSDOF 4
ENDMDL
MODEL 9
REMARK VINA RESULT:      -4.0      8.873     10.872
REMARK  4 active torsions:
REMARK  status: ('A' for Active; 'I' for Inactive)
REMARK    1  A    between atoms: N_1  and  C_2 
REMARK    2  A    between atoms: C_2  and  S_3 
REMARK    3  A    between atoms: S_3  and  C_12 
REMARK    4  A    between atoms: N_4  and  C_6 
ROOT
HETATM    1  C   UNK N   1      29.864  18.161   8.399  0.00  0.00     0.138 C 
HETATM    2  N   UNK N   1      30.798  17.557   7.730  0.00  0.00    -0.337 N 
ATOM      3  HN  UNK N   1      30.578  17.293   6.770  1.00  0.00     0.168 HD
ENDROOT
BRANCH   2   4
HETATM    4  C   UNK N   1      32.108  17.220   8.207  0.00  0.00     0.034 A 
HETATM    5  C   UNK N   1      33.149  18.141   8.027  0.00  0.00     0.029 A 
HETATM    6  C   UNK N   1      34.442  17.850   8.479  0.00  0.00     0.002 A 
HETATM    7  C   UNK N   1      34.706  16.634   9.116  0.00  0.00     0.000 A 
HETATM    8  C   UNK N   1      33.677  15.709   9.303  0.00  0.00     0.002 A 
HETATM    9  C   UNK N   1      32.388  16.001   8.851  0.00  0.00     0.029 A 
ENDBRANCH   2   4
BRANCH   1  10
HETATM   10  N   UNK N   1      30.058  18.570   9.739  0.00  0.00    -0.380 N 
HETATM   11  H   UNK N   1      29.291  18.627  10.353  0.00  0.00     0.158 HD
HETATM   12  H   UNK N   1      30.961  18.798  10.058  0.00  0.00     0.158 HD
ENDBRANCH   1  10
BRANCH   1  13
HETATM   13  S   UNK N   1      28.258  18.514   7.648  0.00  0.00    -0.095 SA
BRANCH  13  14
HETATM   14  C   UNK N   1      28.659  18.112   5.922  0.00  0.00     0.078 C 
HETATM   15  C   UNK N   1      28.122  19.217   5.033  0.00  0.00     0.016 C 
ENDBRANCH  13  14
ENDBRANCH   1  13
TORSDOF 4
ENDMDL
