MODEL 1
REMARK VINA RESULT:      -6.7      0.000      0.000
REMARK  8 active torsions:
REMARK  status: ('A' for Active; 'I' for Inactive)
REMARK    1  A    between atoms: O_3  and  C_4 
REMARK    2  A    between atoms: C_6  and  O_7 
REMARK    3  A    between atoms: C_10  and  C_11 
REMARK    4  A    between atoms: C_11  and  C_12 
REMARK    5  A    between atoms: C_16  and  N_17 
REMARK    6  A    between atoms: N_24  and  C_25 
REMARK    7  A    between atoms: C_25  and  C_26 
REMARK    8  A    between atoms: C_26  and  C_27 
ROOT
HETATM    1  C   UNK N   1      28.512  17.580   5.983  0.00  0.00     0.090 A 
HETATM    2  N   UNK N   1      28.079  18.346   4.946  0.00  0.00    -0.339 N 
ATOM      3  HN  UNK N   1      28.225  18.189   3.949  1.00  0.00     0.167 HD
HETATM    4  C   UNK N   1      27.413  19.352   5.533  0.00  0.00     0.122 A 
HETATM    5  C   UNK N   1      26.798  20.451   4.960  0.00  0.00     0.133 A 
HETATM    6  C   UNK N   1      27.443  19.207   6.872  0.00  0.00     0.143 A 
HETATM    7  N   UNK N   1      26.898  20.124   7.710  0.00  0.00    -0.302 N 
ATOM      8  HN  UNK N   1      26.938  20.000   8.721  1.00  0.00     0.171 HD
HETATM    9  C   UNK N   1      26.292  21.223   7.158  0.00  0.00     0.269 A 
HETATM   10  N   UNK N   1      26.243  21.379   5.794  0.00  0.00    -0.303 N 
ATOM     11  HN  UNK N   1      25.784  22.200   5.398  1.00  0.00     0.171 HD
HETATM   12  N   UNK N   1      28.125  18.089   7.188  0.00  0.00    -0.320 N 
HETATM   13  F   UNK N   1      25.753  22.171   7.963  0.00  0.00    -0.165 F 
ENDROOT
BRANCH   1  14
HETATM   14  C   UNK N   1      29.462  16.420   5.810  0.00  0.00     0.118 C 
BRANCH  14  15
HETATM   15  C   UNK N   1      30.744  16.616   5.031  0.00  0.00    -0.015 A 
HETATM   16  C   UNK N   1      30.791  16.615   3.615  0.00  0.00     0.075 A 
HETATM   17  C   UNK N   1      32.003  16.901   2.964  0.00  0.00     0.040 A 
HETATM   18  C   UNK N   1      33.145  17.222   3.695  0.00  0.00     0.039 A 
HETATM   19  C   UNK N   1      33.101  17.252   5.095  0.00  0.00     0.068 A 
HETATM   20  C   UNK N   1      31.904  16.939   5.753  0.00  0.00     0.047 A 
BRANCH  16  21
HETATM   21  O   UNK N   1      29.674  16.360   2.895  0.00  0.00    -0.355 OA
HETATM   22  C   UNK N   1      29.300  15.099   2.487  0.00  0.00     0.210 C 
ENDBRANCH  16  21
BRANCH  19  23
HETATM   23  O   UNK N   1      34.185  17.605   5.826  0.00  0.00    -0.356 OA
HETATM   24  C   UNK N   1      34.174  17.682   7.202  0.00  0.00     0.210 C 
ENDBRANCH  19  23
ENDBRANCH  14  15
ENDBRANCH   1  14
BRANCH  12  25
HETATM   25  C   UNK N   1      28.484  17.573   8.513  0.00  0.00     0.132 C 
BRANCH  25  26
HETATM   26  C   UNK N   1      29.451  18.490   9.254  0.00  0.00     0.020 C 
BRANCH  26  27
HETATM   27  C   UNK N   1      30.889  18.128   8.933  0.00  0.00    -0.003 C 
HETATM   28  C   UNK N   1      31.105  16.637   9.108  0.00  0.00     0.005 C 
ENDBRANCH  26  27
ENDBRANCH  25  26
ENDBRANCH  12  25
BRANCH   5  29
HETATM   29  N   UNK N   1      26.771  20.630   3.562  0.00  0.00    -0.383 N 
HETATM   30  H   UNK N   1      26.005  20.309   3.034  0.00  0.00     0.157 HD
HETATM   31  H   UNK N   1      27.523  21.079   3.112  0.00  0.00     0.157 HD
ENDBRANCH   5  29
TORSDOF 8
ENDMDL
MODEL 2
REMARK VINA RESULT:      -6.3     10.387     13.376
REMARK  8 active torsions:
REMARK  status: ('A' for Active; 'I' for Inactive)
REMARK    1  A    between atoms: O_3  and  C_4 
REMARK    2  A    between atoms: C_6  and  O_7 
REMARK    3  A    between atoms: C_10  and  C_11 
REMARK    4  A    between atoms: C_11  and  C_12 
REMARK    5  A    between atoms: C_16  and  N_17 
REMARK    6  A    between atoms: N_24  and  C_25 
REMARK    7  A    between atoms: C_25  and  C_26 
REMARK    8  A    between atoms: C_26  and  C_27 
ROOT
HETATM    1  C   UNK N   1      35.427  12.584  13.579  0.00  0.00     0.090 A 
HETATM    2  N   UNK N   1      35.026  13.772  13.056  0.00  0.00    -0.339 N 
ATOM      3  HN  UNK N   1      34.198  14.316  13.300  1.00  0.00     0.167 HD
HETATM    4  C   UNK N   1      35.967  14.069  12.146  0.00  0.00     0.122 A 
HETATM    5  C   UNK N   1      36.044  15.144  11.280  0.00  0.00     0.133 A 
HETATM    6  C   UNK N   1      36.901  13.098  12.115  0.00  0.00     0.143 A 
HETATM    7  N   UNK N   1      37.934  13.119  11.236  0.00  0.00    -0.302 N 
ATOM      8  HN  UNK N   1      38.627  12.370  11.223  1.00  0.00     0.171 HD
HETATM    9  C   UNK N   1      38.020  14.174  10.366  0.00  0.00     0.269 A 
HETATM   10  N   UNK N   1      37.082  15.177  10.393  0.00  0.00    -0.303 N 
ATOM     11  HN  UNK N   1      37.162  15.958   9.742  1.00  0.00     0.171 HD
HETATM   12  N   UNK N   1      36.592  12.147  13.018  0.00  0.00    -0.320 N 
HETATM   13  F   UNK N   1      39.027  14.220   9.460  0.00  0.00    -0.165 F 
ENDROOT
BRANCH   1  14
HETATM   14  C   UNK N   1      34.578  11.771  14.527  0.00  0.00     0.118 C 
BRANCH  14  15
HETATM   15  C   UNK N   1      34.799  11.898  16.019  0.00  0.00    -0.015 A 
HETATM   16  C   UNK N   1      35.059  10.783  16.855  0.00  0.00     0.075 A 
HETATM   17  C   UNK N   1      35.351  10.993  18.213  0.00  0.00     0.040 A 
HETATM   18  C   UNK N   1      35.423  12.282  18.735  0.00  0.00     0.039 A 
HETATM   19  C   UNK N   1      35.194  13.392  17.909  0.00  0.00     0.068 A 
HETATM   20  C   UNK N   1      34.874  13.190  16.560  0.00  0.00     0.047 A 
BRANCH  16  21
HETATM   21  O   UNK N   1      35.047   9.530  16.345  0.00  0.00    -0.355 OA
HETATM   22  C   UNK N   1      35.398   8.410  17.066  0.00  0.00     0.210 C 
ENDBRANCH  16  21
BRANCH  19  23
HETATM   23  O   UNK N   1      35.304  14.656  18.382  0.00  0.00    -0.356 OA
HETATM   24  C   UNK N   1      36.247  15.551  17.928  0.00  0.00     0.210 C 
ENDBRANCH  19  23
ENDBRANCH  14  15
ENDBRANCH   1  14
BRANCH  12  25
HETATM   25  C   UNK N   1      37.266  10.872  13.280  0.00  0.00     0.132 C 
BRANCH  25  26
HETATM   26  C   UNK N   1      38.111  10.908  14.550  0.00  0.00     0.020 C 
BRANCH  26  27
HETATM   27  C   UNK N   1      38.333   9.507  15.089  0.00  0.00    -0.003 C 
HETATM   28  C   UNK N   1      39.609   8.922  14.514  0.00  0.00     0.005 C 
ENDBRANCH  26  27
ENDBRANCH  25  26
ENDBRANCH  12  25
BRANCH   5  29
HETATM   29  N   UNK N   1      35.068  16.161  11.285  0.00  0.00    -0.383 N 
HETATM   30  H   UNK N   1      35.226  17.001  11.774  0.00  0.00     0.157 HD
HETATM   31  H   UNK N   1      34.223  16.030  10.796  0.00  0.00     0.157 HD
ENDBRANCH   5  29
TORSDOF 8
ENDMDL
MODEL 3
REMARK VINA RESULT:      -6.3      4.863      6.575
REMARK  8 active torsions:
REMARK  status: ('A' for Active; 'I' for Inactive)
REMARK    1  A    between atoms: O_3  and  C_4 
REMARK    2  A    between atoms: C_6  and  O_7 
REMARK    3  A    between atoms: C_10  and  C_11 
REMARK    4  A    between atoms: C_11  and  C_12 
REMARK    5  A    between atoms: C_16  and  N_17 
REMARK    6  A    between atoms: N_24  and  C_25 
REMARK    7  A    between atoms: C_25  and  C_26 
REMARK    8  A    between atoms: C_26  and  C_27 
ROOT
HETATM    1  C   UNK N   1      23.181  17.815   4.226  0.00  0.00     0.090 A 
HETATM    2  N   UNK N   1      22.005  17.315   3.761  0.00  0.00    -0.339 N 
ATOM      3  HN  UNK N   1      21.640  16.369   3.873  1.00  0.00     0.167 HD
HETATM    4  C   UNK N   1      21.434  18.348   3.123  0.00  0.00     0.122 A 
HETATM    5  C   UNK N   1      20.244  18.399   2.420  0.00  0.00     0.133 A 
HETATM    6  C   UNK N   1      22.232  19.432   3.194  0.00  0.00     0.143 A 
HETATM    7  N   UNK N   1      21.921  20.599   2.575  0.00  0.00    -0.302 N 
ATOM      8  HN  UNK N   1      22.542  21.406   2.634  1.00  0.00     0.171 HD
HETATM    9  C   UNK N   1      20.748  20.662   1.868  0.00  0.00     0.269 A 
HETATM   10  N   UNK N   1      19.919  19.569   1.796  0.00  0.00    -0.303 N 
ATOM     11  HN  UNK N   1      19.048  19.633   1.270  1.00  0.00     0.171 HD
HETATM   12  N   UNK N   1      23.342  19.128   3.894  0.00  0.00    -0.320 N 
HETATM   13  F   UNK N   1      20.413  21.804   1.220  0.00  0.00    -0.165 F 
ENDROOT
BRANCH   1  14
HETATM   14  C   UNK N   1      24.247  16.957   4.865  0.00  0.00     0.118 C 
BRANCH  14  15
HETATM   15  C   UNK N   1      25.325  16.343   3.999  0.00  0.00    -0.015 A 
HETATM   16  C   UNK N   1      25.041  15.451   2.935  0.00  0.00     0.075 A 
HETATM   17  C   UNK N   1      26.090  14.999   2.115  0.00  0.00     0.040 A 
HETATM   18  C   UNK N   1      27.393  15.446   2.317  0.00  0.00     0.039 A 
HETATM   19  C   UNK N   1      27.679  16.348   3.351  0.00  0.00     0.068 A 
HETATM   20  C   UNK N   1      26.644  16.781   4.190  0.00  0.00     0.047 A 
BRANCH  16  21
HETATM   21  O   UNK N   1      23.770  15.055   2.695  0.00  0.00    -0.355 OA
HETATM   22  C   UNK N   1      23.363  14.466   1.519  0.00  0.00     0.210 C 
ENDBRANCH  16  21
BRANCH  19  23
HETATM   23  O   UNK N   1      28.930  16.833   3.537  0.00  0.00    -0.356 OA
HETATM   24  C   UNK N   1      29.301  17.552   4.653  0.00  0.00     0.210 C 
ENDBRANCH  19  23
ENDBRANCH  14  15
ENDBRANCH   1  14
BRANCH  12  25
HETATM   25  C   UNK N   1      24.521  19.959   4.157  0.00  0.00     0.132 C 
BRANCH  25  26
HETATM   26  C   UNK N   1      25.468  20.025   2.962  0.00  0.00     0.020 C 
BRANCH  26  27
HETATM   27  C   UNK N   1      26.895  20.265   3.418  0.00  0.00    -0.003 C 
HETATM   28  C   UNK N   1      26.931  20.510   4.915  0.00  0.00     0.005 C 
ENDBRANCH  26  27
ENDBRANCH  25  26
ENDBRANCH  12  25
BRANCH   5  29
HETATM   29  N   UNK N   1      19.404  17.271   2.320  0.00  0.00    -0.383 N 
HETATM   30  H   UNK N   1      19.347  16.625   3.060  0.00  0.00     0.157 HD
HETATM   31  H   UNK N   1      18.871  17.129   1.504  0.00  0.00     0.157 HD
ENDBRANCH   5  29
TORSDOF 8
ENDMDL
MODEL 4
REMARK VINA RESULT:      -6.2      2.128      3.699
REMARK  8 active torsions:
REMARK  status: ('A' for Active; 'I' for Inactive)
REMARK    1  A    between atoms: O_3  and  C_4 
REMARK    2  A    between atoms: C_6  and  O_7 
REMARK    3  A    between atoms: C_10  and  C_11 
REMARK    4  A    between atoms: C_11  and  C_12 
REMARK    5  A    between atoms: C_16  and  N_17 
REMARK    6  A    between atoms: N_24  and  C_25 
REMARK    7  A    between atoms: C_25  and  C_26 
REMARK    8  A    between atoms: C_26  and  C_27 
ROOT
HETATM    1  C   UNK N   1      29.654  16.893   6.262  0.00  0.00     0.090 A 
HETATM    2  N   UNK N   1      28.958  17.773   7.029  0.00  0.00    -0.339 N 
ATOM      3  HN  UNK N   1      28.916  17.818   8.048  1.00  0.00     0.167 HD
HETATM    4  C   UNK N   1      28.342  18.571   6.143  0.00  0.00     0.122 A 
HETATM    5  C   UNK N   1      27.464  19.617   6.363  0.00  0.00     0.133 A 
HETATM    6  C   UNK N   1      28.648  18.189   4.887  0.00  0.00     0.143 A 
HETATM    7  N   UNK N   1      28.106  18.789   3.798  0.00  0.00    -0.302 N 
ATOM      8  HN  UNK N   1      28.345  18.480   2.856  1.00  0.00     0.171 HD
HETATM    9  C   UNK N   1      27.229  19.823   4.000  0.00  0.00     0.269 A 
HETATM   10  N   UNK N   1      26.915  20.231   5.274  0.00  0.00    -0.303 N 
ATOM     11  HN  UNK N   1      26.264  21.004   5.408  1.00  0.00     0.171 HD
HETATM   12  N   UNK N   1      29.485  17.134   4.930  0.00  0.00    -0.320 N 
HETATM   13  F   UNK N   1      26.651  20.433   2.938  0.00  0.00    -0.165 F 
ENDROOT
BRANCH   1  14
HETATM   14  C   UNK N   1      30.369  15.691   6.829  0.00  0.00     0.118 C 
BRANCH  14  15
HETATM   15  C   UNK N   1      31.879  15.617   6.751  0.00  0.00    -0.015 A 
HETATM   16  C   UNK N   1      32.570  14.463   6.304  0.00  0.00     0.075 A 
HETATM   17  C   UNK N   1      33.968  14.506   6.166  0.00  0.00     0.040 A 
HETATM   18  C   UNK N   1      34.673  15.678   6.430  0.00  0.00     0.039 A 
HETATM   19  C   UNK N   1      33.994  16.831   6.847  0.00  0.00     0.068 A 
HETATM   20  C   UNK N   1      32.604  16.789   7.014  0.00  0.00     0.047 A 
BRANCH  16  21
HETATM   21  O   UNK N   1      31.888  13.337   5.991  0.00  0.00    -0.355 OA
HETATM   22  C   UNK N   1      31.696  12.895   4.701  0.00  0.00     0.210 C 
ENDBRANCH  16  21
BRANCH  19  23
HETATM   23  O   UNK N   1      34.652  17.995   7.065  0.00  0.00    -0.356 OA
HETATM   24  C   UNK N   1      34.712  18.608   8.297  0.00  0.00     0.210 C 
ENDBRANCH  19  23
ENDBRANCH  14  15
ENDBRANCH   1  14
BRANCH  12  25
HETATM   25  C   UNK N   1      30.016  16.335   3.821  0.00  0.00     0.132 C 
BRANCH  25  26
HETATM   26  C   UNK N   1      30.936  17.141   2.908  0.00  0.00     0.020 C 
BRANCH  26  27
HETATM   27  C   UNK N   1      32.335  17.222   3.488  0.00  0.00    -0.003 C 
HETATM   28  C   UNK N   1      33.184  16.078   2.965  0.00  0.00     0.005 C 
ENDBRANCH  26  27
ENDBRANCH  25  26
ENDBRANCH  12  25
BRANCH   5  29
HETATM   29  N   UNK N   1      27.118  20.021   7.669  0.00  0.00    -0.383 N 
HETATM   30  H   UNK N   1      26.604  20.847   7.815  0.00  0.00     0.157 HD
HETATM   31  H   UNK N   1      27.392  19.472   8.439  0.00  0.00     0.157 HD
ENDBRANCH   5  29
TORSDOF 8
ENDMDL
MODEL 5
REMARK VINA RESULT:      -6.1      3.479      6.037
REMARK  8 active torsions:
REMARK  status: ('A' for Active; 'I' for Inactive)
REMARK    1  A    between atoms: O_3  and  C_4 
REMARK    2  A    between atoms: C_6  and  O_7 
REMARK    3  A    between atoms: C_10  and  C_11 
REMARK    4  A    between atoms: C_11  and  C_12 
REMARK    5  A    between atoms: C_16  and  N_17 
REMARK    6  A    between atoms: N_24  and  C_25 
REMARK    7  A    between atoms: C_25  and  C_26 
REMARK    8  A    between atoms: C_26  and  C_27 
ROOT
HETATM    1  C   UNK N   1      31.881  15.740   8.113  0.00  0.00     0.090 A 
HETATM    2  N   UNK N   1      31.453  16.683   8.992  0.00  0.00    -0.339 N 
ATOM      3  HN  UNK N   1      31.836  16.901   9.912  1.00  0.00     0.167 HD
HETATM    4  C   UNK N   1      30.413  17.264   8.375  0.00  0.00     0.122 A 
HETATM    5  C   UNK N   1      29.568  18.262   8.826  0.00  0.00     0.133 A 
HETATM    6  C   UNK N   1      30.215  16.694   7.169  0.00  0.00     0.143 A 
HETATM    7  N   UNK N   1      29.185  17.053   6.363  0.00  0.00    -0.302 N 
ATOM      8  HN  UNK N   1      29.047  16.604   5.457  1.00  0.00     0.171 HD
HETATM    9  C   UNK N   1      28.334  18.035   6.799  0.00  0.00     0.269 A 
HETATM   10  N   UNK N   1      28.529  18.633   8.020  0.00  0.00    -0.303 N 
ATOM     11  HN  UNK N   1      27.890  19.365   8.330  1.00  0.00     0.171 HD
HETATM   12  N   UNK N   1      31.135  15.731   6.971  0.00  0.00    -0.320 N 
HETATM   13  F   UNK N   1      27.282  18.406   6.030  0.00  0.00    -0.165 F 
ENDROOT
BRANCH   1  14
HETATM   14  C   UNK N   1      32.934  14.712   8.453  0.00  0.00     0.118 C 
BRANCH  14  15
HETATM   15  C   UNK N   1      33.997  15.047   9.477  0.00  0.00    -0.015 A 
HETATM   16  C   UNK N   1      34.845  16.176   9.365  0.00  0.00     0.075 A 
HETATM   17  C   UNK N   1      35.741  16.473  10.406  0.00  0.00     0.040 A 
HETATM   18  C   UNK N   1      35.776  15.692  11.559  0.00  0.00     0.039 A 
HETATM   19  C   UNK N   1      34.922  14.589  11.690  0.00  0.00     0.068 A 
HETATM   20  C   UNK N   1      34.047  14.269  10.644  0.00  0.00     0.047 A 
BRANCH  16  21
HETATM   21  O   UNK N   1      34.779  16.974   8.274  0.00  0.00    -0.355 OA
HETATM   22  C   UNK N   1      34.599  18.338   8.336  0.00  0.00     0.210 C 
ENDBRANCH  16  21
BRANCH  19  23
HETATM   23  O   UNK N   1      34.905  13.842  12.820  0.00  0.00    -0.356 OA
HETATM   24  C   UNK N   1      35.879  13.924  13.792  0.00  0.00     0.210 C 
ENDBRANCH  19  23
ENDBRANCH  14  15
ENDBRANCH   1  14
BRANCH  12  25
HETATM   25  C   UNK N   1      31.261  14.795   5.849  0.00  0.00     0.132 C 
BRANCH  25  26
HETATM   26  C   UNK N   1      31.784  15.467   4.584  0.00  0.00     0.020 C 
BRANCH  26  27
HETATM   27  C   UNK N   1      33.108  16.159   4.848  0.00  0.00    -0.003 C 
HETATM   28  C   UNK N   1      32.991  17.642   4.552  0.00  0.00     0.005 C 
ENDBRANCH  26  27
ENDBRANCH  25  26
ENDBRANCH  12  25
BRANCH   5  29
HETATM   29  N   UNK N   1      29.748  18.859  10.090  0.00  0.00    -0.383 N 
HETATM   30  H   UNK N   1      29.637  18.328  10.912  0.00  0.00     0.157 HD
HETATM   31  H   UNK N   1      29.985  19.812  10.152  0.00  0.00     0.157 HD
ENDBRANCH   5  29
TORSDOF 8
ENDMDL
MODEL 6
REMARK VINA RESULT:      -6.1      2.172      4.465
REMARK  8 active torsions:
REMARK  status: ('A' for Active; 'I' for Inactive)
REMARK    1  A    between atoms: O_3  and  C_4 
REMARK    2  A    between atoms: C_6  and  O_7 
REMARK    3  A    between atoms: C_10  and  C_11 
REMARK    4  A    between atoms: C_11  and  C_12 
REMARK    5  A    between atoms: C_16  and  N_17 
REMARK    6  A    between atoms: N_24  and  C_25 
REMARK    7  A    between atoms: C_25  and  C_26 
REMARK    8  A    between atoms: C_26  and  C_27 
ROOT
HETATM    1  C   UNK N   1      28.752  17.623   5.531  0.00  0.00     0.090 A 
HETATM    2  N   UNK N   1      28.172  18.582   6.300  0.00  0.00    -0.339 N 
ATOM      3  HN  UNK N   1      28.373  18.808   7.275  1.00  0.00     0.167 HD
HETATM    4  C   UNK N   1      27.277  19.164   5.487  0.00  0.00     0.122 A 
HETATM    5  C   UNK N   1      26.373  20.175   5.755  0.00  0.00     0.133 A 
HETATM    6  C   UNK N   1      27.310  18.581   4.272  0.00  0.00     0.143 A 
HETATM    7  N   UNK N   1      26.459  18.938   3.278  0.00  0.00    -0.302 N 
ATOM      8  HN  UNK N   1      26.494  18.479   2.367  1.00  0.00     0.171 HD
HETATM    9  C   UNK N   1      25.551  19.934   3.531  0.00  0.00     0.269 A 
HETATM   10  N   UNK N   1      25.514  20.546   4.760  0.00  0.00    -0.303 N 
ATOM     11  HN  UNK N   1      24.835  21.288   4.932  1.00  0.00     0.171 HD
HETATM   12  N   UNK N   1      28.240  17.607   4.266  0.00  0.00    -0.320 N 
HETATM   13  F   UNK N   1      24.672  20.304   2.569  0.00  0.00    -0.165 F 
ENDROOT
BRANCH   1  14
HETATM   14  C   UNK N   1      29.707  16.591   6.079  0.00  0.00     0.118 C 
BRANCH  14  15
HETATM   15  C   UNK N   1      31.003  17.041   6.717  0.00  0.00    -0.015 A 
HETATM   16  C   UNK N   1      31.069  17.592   8.020  0.00  0.00     0.075 A 
HETATM   17  C   UNK N   1      32.322  17.895   8.580  0.00  0.00     0.040 A 
HETATM   18  C   UNK N   1      33.496  17.626   7.882  0.00  0.00     0.039 A 
HETATM   19  C   UNK N   1      33.442  17.056   6.602  0.00  0.00     0.068 A 
HETATM   20  C   UNK N   1      32.196  16.778   6.026  0.00  0.00     0.047 A 
BRANCH  16  21
HETATM   21  O   UNK N   1      29.936  17.805   8.730  0.00  0.00    -0.355 OA
HETATM   22  C   UNK N   1      29.821  18.759   9.716  0.00  0.00     0.210 C 
ENDBRANCH  16  21
BRANCH  19  23
HETATM   23  O   UNK N   1      34.571  16.743   5.923  0.00  0.00    -0.356 OA
HETATM   24  C   UNK N   1      34.927  15.450   5.608  0.00  0.00     0.210 C 
ENDBRANCH  19  23
ENDBRANCH  14  15
ENDBRANCH   1  14
BRANCH  12  25
HETATM   25  C   UNK N   1      28.569  16.656   3.200  0.00  0.00     0.132 C 
BRANCH  25  26
HETATM   26  C   UNK N   1      27.676  15.419   3.224  0.00  0.00     0.020 C 
BRANCH  26  27
HETATM   27  C   UNK N   1      26.661  15.466   2.097  0.00  0.00    -0.003 C 
HETATM   28  C   UNK N   1      25.256  15.547   2.664  0.00  0.00     0.005 C 
ENDBRANCH  26  27
ENDBRANCH  25  26
ENDBRANCH  12  25
BRANCH   5  29
HETATM   29  N   UNK N   1      26.312  20.786   7.024  0.00  0.00    -0.383 N 
HETATM   30  H   UNK N   1      25.602  21.436   7.231  0.00  0.00     0.157 HD
HETATM   31  H   UNK N   1      26.985  20.562   7.708  0.00  0.00     0.157 HD
ENDBRANCH   5  29
TORSDOF 8
ENDMDL
MODEL 7
REMARK VINA RESULT:      -6.0      3.533      6.085
REMARK  8 active torsions:
REMARK  status: ('A' for Active; 'I' for Inactive)
REMARK    1  A    between atoms: O_3  and  C_4 
REMARK    2  A    between atoms: C_6  and  O_7 
REMARK    3  A    between atoms: C_10  and  C_11 
REMARK    4  A    between atoms: C_11  and  C_12 
REMARK    5  A    between atoms: C_16  and  N_17 
REMARK    6  A    between atoms: N_24  and  C_25 
REMARK    7  A    between atoms: C_25  and  C_26 
REMARK    8  A    between atoms: C_26  and  C_27 
ROOT
HETATM    1  C   UNK N   1      30.476  16.668   5.241  0.00  0.00     0.090 A 
HETATM    2  N   UNK N   1      30.194  16.565   6.567  0.00  0.00    -0.339 N 
ATOM      3  HN  UNK N   1      29.323  16.255   6.999  1.00  0.00     0.167 HD
HETATM    4  C   UNK N   1      31.321  16.963   7.178  0.00  0.00     0.122 A 
HETATM    5  C   UNK N   1      31.587  17.101   8.528  0.00  0.00     0.133 A 
HETATM    6  C   UNK N   1      32.250  17.297   6.260  0.00  0.00     0.143 A 
HETATM    7  N   UNK N   1      33.463  17.793   6.610  0.00  0.00    -0.302 N 
ATOM      8  HN  UNK N   1      34.150  18.047   5.901  1.00  0.00     0.171 HD
HETATM    9  C   UNK N   1      33.739  17.943   7.945  0.00  0.00     0.269 A 
HETATM   10  N   UNK N   1      32.807  17.597   8.892  0.00  0.00    -0.303 N 
ATOM     11  HN  UNK N   1      33.028  17.710   9.881  1.00  0.00     0.171 HD
HETATM   12  N   UNK N   1      31.748  17.112   5.024  0.00  0.00    -0.320 N 
HETATM   13  F   UNK N   1      34.932  18.455   8.332  0.00  0.00    -0.165 F 
ENDROOT
BRANCH   1  14
HETATM   14  C   UNK N   1      29.438  16.488   4.160  0.00  0.00     0.118 C 
BRANCH  14  15
HETATM   15  C   UNK N   1      28.268  17.445   4.086  0.00  0.00    -0.015 A 
HETATM   16  C   UNK N   1      26.976  17.048   3.661  0.00  0.00     0.075 A 
HETATM   17  C   UNK N   1      25.918  17.972   3.712  0.00  0.00     0.040 A 
HETATM   18  C   UNK N   1      26.120  19.258   4.209  0.00  0.00     0.039 A 
HETATM   19  C   UNK N   1      27.389  19.650   4.656  0.00  0.00     0.068 A 
HETATM   20  C   UNK N   1      28.455  18.744   4.581  0.00  0.00     0.047 A 
BRANCH  16  21
HETATM   21  O   UNK N   1      26.756  15.784   3.229  0.00  0.00    -0.355 OA
HETATM   22  C   UNK N   1      26.418  15.469   1.932  0.00  0.00     0.210 C 
ENDBRANCH  16  21
BRANCH  19  23
HETATM   23  O   UNK N   1      27.599  20.879   5.186  0.00  0.00    -0.356 OA
HETATM   24  C   UNK N   1      27.012  21.306   6.357  0.00  0.00     0.210 C 
ENDBRANCH  19  23
ENDBRANCH  14  15
ENDBRANCH   1  14
BRANCH  12  25
HETATM   25  C   UNK N   1      32.359  17.418   3.727  0.00  0.00     0.132 C 
BRANCH  25  26
HETATM   26  C   UNK N   1      32.775  16.163   2.966  0.00  0.00     0.020 C 
BRANCH  26  27
HETATM   27  C   UNK N   1      33.757  15.340   3.780  0.00  0.00    -0.003 C 
HETATM   28  C   UNK N   1      33.192  13.955   4.035  0.00  0.00     0.005 C 
ENDBRANCH  26  27
ENDBRANCH  25  26
ENDBRANCH  12  25
BRANCH   5  29
HETATM   29  N   UNK N   1      30.623  16.773   9.502  0.00  0.00    -0.383 N 
HETATM   30  H   UNK N   1      29.774  17.269   9.550  0.00  0.00     0.157 HD
HETATM   31  H   UNK N   1      30.800  16.043  10.140  0.00  0.00     0.157 HD
ENDBRANCH   5  29
TORSDOF 8
ENDMDL
MODEL 8
REMARK VINA RESULT:      -5.9      4.495      6.863
REMARK  8 active torsions:
REMARK  status: ('A' for Active; 'I' for Inactive)
REMARK    1  A    between atoms: O_3  and  C_4 
REMARK    2  A    between atoms: C_6  and  O_7 
REMARK    3  A    between atoms: C_10  and  C_11 
REMARK    4  A    between atoms: C_11  and  C_12 
REMARK    5  A    between atoms: C_16  and  N_17 
REMARK    6  A    between atoms: N_24  and  C_25 
REMARK    7  A    between atoms: C_25  and  C_26 
REMARK    8  A    between atoms: C_26  and  C_27 
ROOT
HETATM    1  C   UNK N   1      34.006  16.892   6.706  0.00  0.00     0.090 A 
HETATM    2  N   UNK N   1      34.836  15.817   6.670  0.00  0.00    -0.339 N 
ATOM      3  HN  UNK N   1      35.311  15.419   5.859  1.00  0.00     0.167 HD
HETATM    4  C   UNK N   1      34.892  15.398   7.944  0.00  0.00     0.122 A 
HETATM    5  C   UNK N   1      35.555  14.311   8.484  0.00  0.00     0.133 A 
HETATM    6  C   UNK N   1      34.124  16.186   8.722  0.00  0.00     0.143 A 
HETATM    7  N   UNK N   1      33.952  15.944  10.046  0.00  0.00    -0.302 N 
ATOM      8  HN  UNK N   1      33.360  16.547  10.617  1.00  0.00     0.171 HD
HETATM    9  C   UNK N   1      34.596  14.866  10.595  0.00  0.00     0.269 A 
HETATM   10  N   UNK N   1      35.392  14.060   9.817  0.00  0.00    -0.303 N 
ATOM     11  HN  UNK N   1      35.868  13.264  10.240  1.00  0.00     0.171 HD
HETATM   12  N   UNK N   1      33.556  17.147   7.968  0.00  0.00    -0.320 N 
HETATM   13  F   UNK N   1      34.433  14.580  11.909  0.00  0.00    -0.165 F 
ENDROOT
BRANCH   1  14
HETATM   14  C   UNK N   1      33.507  17.591   5.464  0.00  0.00     0.118 C 
BRANCH  14  15
HETATM   15  C   UNK N   1      32.388  16.967   4.658  0.00  0.00    -0.015 A 
HETATM   16  C   UNK N   1      32.579  15.838   3.824  0.00  0.00     0.075 A 
HETATM   17  C   UNK N   1      31.470  15.257   3.184  0.00  0.00     0.040 A 
HETATM   18  C   UNK N   1      30.187  15.757   3.391  0.00  0.00     0.039 A 
HETATM   19  C   UNK N   1      29.986  16.857   4.236  0.00  0.00     0.068 A 
HETATM   20  C   UNK N   1      31.089  17.460   4.854  0.00  0.00     0.047 A 
BRANCH  16  21
HETATM   21  O   UNK N   1      33.814  15.309   3.660  0.00  0.00    -0.355 OA
HETATM   22  C   UNK N   1      34.121  14.369   2.702  0.00  0.00     0.210 C 
ENDBRANCH  16  21
BRANCH  19  23
HETATM   23  O   UNK N   1      28.743  17.333   4.489  0.00  0.00    -0.356 OA
HETATM   24  C   UNK N   1      28.471  18.233   5.496  0.00  0.00     0.210 C 
ENDBRANCH  19  23
ENDBRANCH  14  15
ENDBRANCH   1  14
BRANCH  12  25
HETATM   25  C   UNK N   1      32.585  18.173   8.362  0.00  0.00     0.132 C 
BRANCH  25  26
HETATM   26  C   UNK N   1      31.170  17.619   8.489  0.00  0.00     0.020 C 
BRANCH  26  27
HETATM   27  C   UNK N   1      30.241  18.650   9.103  0.00  0.00    -0.003 C 
HETATM   28  C   UNK N   1      28.896  18.020   9.416  0.00  0.00     0.005 C 
ENDBRANCH  26  27
ENDBRANCH  25  26
ENDBRANCH  12  25
BRANCH   5  29
HETATM   29  N   UNK N   1      36.349  13.466   7.684  0.00  0.00    -0.383 N 
HETATM   30  H   UNK N   1      37.050  13.842   7.104  0.00  0.00     0.157 HD
HETATM   31  H   UNK N   1      36.202  12.492   7.705  0.00  0.00     0.157 HD
ENDBRANCH   5  29
TORSDOF 8
ENDMDL
MODEL 9
REMARK VINA RESULT:      -5.8      3.361      5.870
REMARK  8 active torsions:
REMARK  status: ('A' for Active; 'I' for Inactive)
REMARK    1  A    between atoms: O_3  and  C_4 
REMARK    2  A    between atoms: C_6  and  O_7 
REMARK    3  A    between atoms: C_10  and  C_11 
REMARK    4  A    between atoms: C_11  and  C_12 
REMARK    5  A    between atoms: C_16  and  N_17 
REMARK    6  A    between atoms: N_24  and  C_25 
REMARK    7  A    between atoms: C_25  and  C_26 
REMARK    8  A    between atoms: C_26  and  C_27 
ROOT
HETATM    1  C   UNK N   1      32.690  17.442   7.604  0.00  0.00     0.090 A 
HETATM    2  N   UNK N   1      32.014  17.940   8.673  0.00  0.00    -0.339 N 
ATOM      3  HN  UNK N   1      32.403  18.335   9.529  1.00  0.00     0.167 HD
HETATM    4  C   UNK N   1      30.721  17.796   8.344  0.00  0.00     0.122 A 
HETATM    5  C   UNK N   1      29.589  18.095   9.080  0.00  0.00     0.133 A 
HETATM    6  C   UNK N   1      30.615  17.231   7.126  0.00  0.00     0.143 A 
HETATM    7  N   UNK N   1      29.414  16.915   6.579  0.00  0.00    -0.302 N 
ATOM      8  HN  UNK N   1      29.354  16.480   5.659  1.00  0.00     0.171 HD
HETATM    9  C   UNK N   1      28.282  17.198   7.300  0.00  0.00     0.269 A 
HETATM   10  N   UNK N   1      28.374  17.785   8.539  0.00  0.00    -0.303 N 
ATOM     11  HN  UNK N   1      27.523  17.993   9.061  1.00  0.00     0.171 HD
HETATM   12  N   UNK N   1      31.845  17.003   6.626  0.00  0.00    -0.320 N 
HETATM   13  F   UNK N   1      27.065  16.879   6.796  0.00  0.00    -0.165 F 
ENDROOT
BRANCH   1  14
HETATM   14  C   UNK N   1      34.186  17.236   7.595  0.00  0.00     0.118 C 
BRANCH  14  15
HETATM   15  C   UNK N   1      34.787  16.117   8.416  0.00  0.00    -0.015 A 
HETATM   16  C   UNK N   1      35.316  14.937   7.837  0.00  0.00     0.075 A 
HETATM   17  C   UNK N   1      35.946  13.986   8.659  0.00  0.00     0.040 A 
HETATM   18  C   UNK N   1      36.087  14.211  10.026  0.00  0.00     0.039 A 
HETATM   19  C   UNK N   1      35.590  15.387  10.604  0.00  0.00     0.068 A 
HETATM   20  C   UNK N   1      34.935  16.326   9.796  0.00  0.00     0.047 A 
BRANCH  16  21
HETATM   21  O   UNK N   1      35.235  14.736   6.501  0.00  0.00    -0.355 OA
HETATM   22  C   UNK N   1      36.332  14.562   5.688  0.00  0.00     0.210 C 
ENDBRANCH  16  21
BRANCH  19  23
HETATM   23  O   UNK N   1      35.756  15.648  11.923  0.00  0.00    -0.356 OA
HETATM   24  C   UNK N   1      36.063  14.677  12.850  0.00  0.00     0.210 C 
ENDBRANCH  19  23
ENDBRANCH  14  15
ENDBRANCH   1  14
BRANCH  12  25
HETATM   25  C   UNK N   1      32.222  16.333   5.378  0.00  0.00     0.132 C 
BRANCH  25  26
HETATM   26  C   UNK N   1      32.128  17.257   4.168  0.00  0.00     0.020 C 
BRANCH  26  27
HETATM   27  C   UNK N   1      33.062  16.797   3.064  0.00  0.00    -0.003 C 
HETATM   28  C   UNK N   1      33.343  15.312   3.204  0.00  0.00     0.005 C 
ENDBRANCH  26  27
ENDBRANCH  25  26
ENDBRANCH  12  25
BRANCH   5  29
HETATM   29  N   UNK N   1      29.680  18.671  10.364  0.00  0.00    -0.383 N 
HETATM   30  H   UNK N   1      30.090  19.558  10.484  0.00  0.00     0.157 HD
HETATM   31  H   UNK N   1      29.331  18.183  11.145  0.00  0.00     0.157 HD
ENDBRANCH   5  29
TORSDOF 8
ENDMDL
