REMARK  7 active torsions:
REMARK  status: ('A' for Active; 'I' for Inactive)
REMARK    1  A    between atoms: C_2  and  C_3 
REMARK    2  A    between atoms: C_3  and  C_4 
REMARK    3  A    between atoms: C_4  and  N_5 
REMARK    4  A    between atoms: C_13  and  N_14 
REMARK    5  A    between atoms: C_17  and  C_18 
REMARK    6  A    between atoms: C_18  and  C_19 
REMARK    7  A    between atoms: C_24  and  O_25 
ROOT
HETATM    1  N   UNK N   1       1.298   1.462   0.217  0.00  0.00    -0.320 N 
HETATM    2  C   UNK N   1       2.534   0.940   0.159  0.00  0.00     0.141 A 
HETATM    3  N   UNK N   1       3.718   1.561   0.376  0.00  0.00    -0.336 N 
ATOM      4  HN  UNK N   1       3.758   2.555   0.599  1.00  0.00     0.168 HD
HETATM    5  C   UNK N   1       4.861   0.809   0.286  0.00  0.00     0.183 A 
HETATM    6  N   UNK N   1       4.795  -0.534  -0.008  0.00  0.00    -0.337 N 
ATOM      7  HN  UNK N   1       5.655  -1.080  -0.065  1.00  0.00     0.168 HD
HETATM    8  C   UNK N   1       2.452  -0.374  -0.137  0.00  0.00     0.122 A 
HETATM    9  C   UNK N   1       3.594  -1.146  -0.225  0.00  0.00     0.131 A 
HETATM   10  N   UNK N   1       1.169  -0.731  -0.282  0.00  0.00    -0.339 N 
ATOM     11  HN  UNK N   1       0.799  -1.652  -0.516  1.00  0.00     0.167 HD
HETATM   12  C   UNK N   1       0.473   0.416  -0.048  0.00  0.00     0.089 A 
ENDROOT
BRANCH  12  13
HETATM   13  C   UNK N   1      -1.037   0.504  -0.049  0.00  0.00     0.115 C 
BRANCH  13  14
HETATM   14  C   UNK N   1      -1.786  -0.811  -0.004  0.00  0.00    -0.051 A 
HETATM   15  C   UNK N   1      -1.131  -2.030   0.228  0.00  0.00     0.010 A 
HETATM   16  C   UNK N   1      -1.832  -3.230   0.241  0.00  0.00     0.037 A 
HETATM   17  C   UNK N   1      -3.216  -3.237   0.031  0.00  0.00     0.068 A 
HETATM   18  C   UNK N   1      -3.885  -2.023  -0.174  0.00  0.00     0.037 A 
HETATM   19  C   UNK N   1      -3.173  -0.815  -0.191  0.00  0.00     0.010 A 
BRANCH  17  20
HETATM   20  O   UNK N   1      -3.917  -4.395   0.013  0.00  0.00    -0.356 OA
HETATM   21  C   UNK N   1      -3.324  -5.632   0.143  0.00  0.00     0.210 C 
ENDBRANCH  17  20
ENDBRANCH  13  14
ENDBRANCH  12  13
BRANCH   1  22
HETATM   22  C   UNK N   1       0.910   2.829   0.546  0.00  0.00     0.132 C 
BRANCH  22  23
HETATM   23  C   UNK N   1       1.472   3.821  -0.456  0.00  0.00     0.020 C 
BRANCH  23  24
HETATM   24  C   UNK N   1       0.944   5.202  -0.122  0.00  0.00    -0.003 C 
HETATM   25  C   UNK N   1       2.093   6.185  -0.038  0.00  0.00     0.005 C 
ENDBRANCH  23  24
ENDBRANCH  22  23
ENDBRANCH   1  22
BRANCH   9  26
HETATM   26  N   UNK N   1       3.525  -2.525  -0.508  0.00  0.00    -0.383 N 
HETATM   27  H   UNK N   1       2.667  -2.965  -0.707  0.00  0.00     0.157 HD
HETATM   28  H   UNK N   1       4.352  -3.060  -0.508  0.00  0.00     0.157 HD
ENDBRANCH   9  26
TORSDOF 7
