MODEL 1
REMARK VINA RESULT:      -6.4      0.000      0.000
REMARK  7 active torsions:
REMARK  status: ('A' for Active; 'I' for Inactive)
REMARK    1  A    between atoms: C_2  and  C_3 
REMARK    2  A    between atoms: C_3  and  C_4 
REMARK    3  A    between atoms: C_4  and  N_5 
REMARK    4  A    between atoms: C_13  and  N_14 
REMARK    5  A    between atoms: C_17  and  C_18 
REMARK    6  A    between atoms: C_18  and  C_19 
REMARK    7  A    between atoms: C_24  and  O_25 
ROOT
HETATM    1  N   UNK N   1      30.076  17.241   5.238  0.00  0.00    -0.320 N 
HETATM    2  C   UNK N   1      29.085  18.128   5.427  0.00  0.00     0.141 A 
HETATM    3  N   UNK N   1      28.421  18.854   4.496  0.00  0.00    -0.336 N 
ATOM      4  HN  UNK N   1      28.658  18.786   3.507  1.00  0.00     0.168 HD
HETATM    5  C   UNK N   1      27.418  19.684   4.928  0.00  0.00     0.183 A 
HETATM    6  N   UNK N   1      27.100  19.762   6.265  0.00  0.00    -0.337 N 
ATOM      7  HN  UNK N   1      26.347  20.380   6.568  1.00  0.00     0.168 HD
HETATM    8  C   UNK N   1      28.791  18.199   6.742  0.00  0.00     0.122 A 
HETATM    9  C   UNK N   1      27.780  19.025   7.191  0.00  0.00     0.131 A 
HETATM   10  N   UNK N   1      29.583  17.368   7.432  0.00  0.00    -0.339 N 
ATOM     11  HN  UNK N   1      29.599  17.214   8.440  1.00  0.00     0.167 HD
HETATM   12  C   UNK N   1      30.361  16.778   6.483  0.00  0.00     0.089 A 
ENDROOT
BRANCH  12  13
HETATM   13  C   UNK N   1      31.392  15.712   6.777  0.00  0.00     0.115 C 
BRANCH  13  14
HETATM   14  C   UNK N   1      32.506  16.099   7.726  0.00  0.00    -0.051 A 
HETATM   15  C   UNK N   1      33.204  17.310   7.597  0.00  0.00     0.010 A 
HETATM   16  C   UNK N   1      34.240  17.637   8.463  0.00  0.00     0.037 A 
HETATM   17  C   UNK N   1      34.598  16.759   9.493  0.00  0.00     0.068 A 
HETATM   18  C   UNK N   1      33.891  15.560   9.649  0.00  0.00     0.037 A 
HETATM   19  C   UNK N   1      32.849  15.232   8.770  0.00  0.00     0.010 A 
BRANCH  17  20
HETATM   20  O   UNK N   1      35.621  17.043  10.333  0.00  0.00    -0.356 OA
HETATM   21  C   UNK N   1      36.134  16.127  11.225  0.00  0.00     0.210 C 
ENDBRANCH  17  20
ENDBRANCH  13  14
ENDBRANCH  12  13
BRANCH   1  22
HETATM   22  C   UNK N   1      30.680  16.817   3.980  0.00  0.00     0.132 C 
BRANCH  22  23
HETATM   23  C   UNK N   1      32.018  17.496   3.752  0.00  0.00     0.020 C 
BRANCH  23  24
HETATM   24  C   UNK N   1      32.923  16.546   2.992  0.00  0.00    -0.003 C 
HETATM   25  C   UNK N   1      33.634  15.627   3.964  0.00  0.00     0.005 C 
ENDBRANCH  23  24
ENDBRANCH  22  23
ENDBRANCH   1  22
BRANCH   9  26
HETATM   26  N   UNK N   1      27.442  19.091   8.558  0.00  0.00    -0.383 N 
HETATM   27  H   UNK N   1      27.865  19.747   9.159  0.00  0.00     0.157 HD
HETATM   28  H   UNK N   1      26.769  18.470   8.920  0.00  0.00     0.157 HD
ENDBRANCH   9  26
TORSDOF 7
ENDMDL
MODEL 2
REMARK VINA RESULT:      -6.1      1.705      2.282
REMARK  7 active torsions:
REMARK  status: ('A' for Active; 'I' for Inactive)
REMARK    1  A    between atoms: C_2  and  C_3 
REMARK    2  A    between atoms: C_3  and  C_4 
REMARK    3  A    between atoms: C_4  and  N_5 
REMARK    4  A    between atoms: C_13  and  N_14 
REMARK    5  A    between atoms: C_17  and  C_18 
REMARK    6  A    between atoms: C_18  and  C_19 
REMARK    7  A    between atoms: C_24  and  O_25 
ROOT
HETATM    1  N   UNK N   1      31.430  17.063   6.510  0.00  0.00    -0.320 N 
HETATM    2  C   UNK N   1      30.088  17.048   6.562  0.00  0.00     0.141 A 
HETATM    3  N   UNK N   1      29.218  16.560   5.646  0.00  0.00    -0.336 N 
ATOM      4  HN  UNK N   1      29.548  16.153   4.771  1.00  0.00     0.168 HD
HETATM    5  C   UNK N   1      27.879  16.631   5.933  0.00  0.00     0.183 A 
HETATM    6  N   UNK N   1      27.445  17.175   7.120  0.00  0.00    -0.337 N 
ATOM      7  HN  UNK N   1      26.445  17.215   7.320  1.00  0.00     0.168 HD
HETATM    8  C   UNK N   1      29.679  17.591   7.728  0.00  0.00     0.122 A 
HETATM    9  C   UNK N   1      28.334  17.664   8.034  0.00  0.00     0.131 A 
HETATM   10  N   UNK N   1      30.739  17.974   8.451  0.00  0.00    -0.339 N 
ATOM     11  HN  UNK N   1      30.742  18.423   9.367  1.00  0.00     0.167 HD
HETATM   12  C   UNK N   1      31.811  17.628   7.685  0.00  0.00     0.089 A 
ENDROOT
BRANCH  12  13
HETATM   13  C   UNK N   1      33.250  17.819   8.109  0.00  0.00     0.115 C 
BRANCH  13  14
HETATM   14  C   UNK N   1      33.801  16.806   9.090  0.00  0.00    -0.051 A 
HETATM   15  C   UNK N   1      33.242  15.526   9.227  0.00  0.00     0.010 A 
HETATM   16  C   UNK N   1      33.745  14.618  10.151  0.00  0.00     0.037 A 
HETATM   17  C   UNK N   1      34.835  14.969  10.957  0.00  0.00     0.068 A 
HETATM   18  C   UNK N   1      35.419  16.234  10.810  0.00  0.00     0.037 A 
HETATM   19  C   UNK N   1      34.905  17.148   9.879  0.00  0.00     0.010 A 
BRANCH  17  20
HETATM   20  O   UNK N   1      35.327  14.112  11.883  0.00  0.00    -0.356 OA
HETATM   21  C   UNK N   1      36.079  14.524  12.961  0.00  0.00     0.210 C 
ENDBRANCH  17  20
ENDBRANCH  13  14
ENDBRANCH  12  13
BRANCH   1  22
HETATM   22  C   UNK N   1      32.298  16.542   5.460  0.00  0.00     0.132 C 
BRANCH  22  23
HETATM   23  C   UNK N   1      32.591  17.597   4.409  0.00  0.00     0.020 C 
BRANCH  23  24
HETATM   24  C   UNK N   1      32.558  16.943   3.041  0.00  0.00    -0.003 C 
HETATM   25  C   UNK N   1      33.158  15.555   3.121  0.00  0.00     0.005 C 
ENDBRANCH  23  24
ENDBRANCH  22  23
ENDBRANCH   1  22
BRANCH   9  26
HETATM   26  N   UNK N   1      27.890  18.205   9.258  0.00  0.00    -0.383 N 
HETATM   27  H   UNK N   1      28.525  18.458   9.966  0.00  0.00     0.157 HD
HETATM   28  H   UNK N   1      26.925  18.334   9.407  0.00  0.00     0.157 HD
ENDBRANCH   9  26
TORSDOF 7
ENDMDL
MODEL 3
REMARK VINA RESULT:      -6.0      3.751      7.349
REMARK  7 active torsions:
REMARK  status: ('A' for Active; 'I' for Inactive)
REMARK    1  A    between atoms: C_2  and  C_3 
REMARK    2  A    between atoms: C_3  and  C_4 
REMARK    3  A    between atoms: C_4  and  N_5 
REMARK    4  A    between atoms: C_13  and  N_14 
REMARK    5  A    between atoms: C_17  and  C_18 
REMARK    6  A    between atoms: C_18  and  C_19 
REMARK    7  A    between atoms: C_24  and  O_25 
ROOT
HETATM    1  N   UNK N   1      29.756  16.716   5.479  0.00  0.00    -0.320 N 
HETATM    2  C   UNK N   1      29.935  16.866   6.802  0.00  0.00     0.141 A 
HETATM    3  N   UNK N   1      31.011  16.518   7.547  0.00  0.00    -0.336 N 
ATOM      4  HN  UNK N   1      31.820  16.064   7.124  1.00  0.00     0.168 HD
HETATM    5  C   UNK N   1      30.977  16.797   8.889  0.00  0.00     0.183 A 
HETATM    6  N   UNK N   1      29.883  17.417   9.449  0.00  0.00    -0.337 N 
ATOM      7  HN  UNK N   1      29.877  17.623  10.448  1.00  0.00     0.168 HD
HETATM    8  C   UNK N   1      28.852  17.469   7.335  0.00  0.00     0.122 A 
HETATM    9  C   UNK N   1      28.806  17.761   8.684  0.00  0.00     0.131 A 
HETATM   10  N   UNK N   1      27.949  17.717   6.378  0.00  0.00    -0.339 N 
ATOM     11  HN  UNK N   1      27.033  18.153   6.481  1.00  0.00     0.167 HD
HETATM   12  C   UNK N   1      28.533  17.255   5.237  0.00  0.00     0.089 A 
ENDROOT
BRANCH  12  13
HETATM   13  C   UNK N   1      27.907  17.361   3.864  0.00  0.00     0.115 C 
BRANCH  13  14
HETATM   14  C   UNK N   1      26.697  18.263   3.746  0.00  0.00    -0.051 A 
HETATM   15  C   UNK N   1      25.390  17.775   3.895  0.00  0.00     0.010 A 
HETATM   16  C   UNK N   1      24.291  18.614   3.758  0.00  0.00     0.037 A 
HETATM   17  C   UNK N   1      24.475  19.972   3.476  0.00  0.00     0.068 A 
HETATM   18  C   UNK N   1      25.777  20.477   3.352  0.00  0.00     0.037 A 
HETATM   19  C   UNK N   1      26.883  19.626   3.487  0.00  0.00     0.010 A 
BRANCH  17  20
HETATM   20  O   UNK N   1      23.420  20.805   3.312  0.00  0.00    -0.356 OA
HETATM   21  C   UNK N   1      22.239  20.409   2.723  0.00  0.00     0.210 C 
ENDBRANCH  17  20
ENDBRANCH  13  14
ENDBRANCH  12  13
BRANCH   1  22
HETATM   22  C   UNK N   1      30.681  16.156   4.500  0.00  0.00     0.132 C 
BRANCH  22  23
HETATM   23  C   UNK N   1      31.627  17.215   3.963  0.00  0.00     0.020 C 
BRANCH  23  24
HETATM   24  C   UNK N   1      33.053  16.770   4.223  0.00  0.00    -0.003 C 
HETATM   25  C   UNK N   1      33.598  17.479   5.446  0.00  0.00     0.005 C 
ENDBRANCH  23  24
ENDBRANCH  22  23
ENDBRANCH   1  22
BRANCH   9  26
HETATM   26  N   UNK N   1      27.693  18.413   9.253  0.00  0.00    -0.383 N 
HETATM   27  H   UNK N   1      27.480  18.322  10.210  0.00  0.00     0.157 HD
HETATM   28  H   UNK N   1      27.118  18.974   8.683  0.00  0.00     0.157 HD
ENDBRANCH   9  26
TORSDOF 7
ENDMDL
MODEL 4
REMARK VINA RESULT:      -6.0     12.078     15.159
REMARK  7 active torsions:
REMARK  status: ('A' for Active; 'I' for Inactive)
REMARK    1  A    between atoms: C_2  and  C_3 
REMARK    2  A    between atoms: C_3  and  C_4 
REMARK    3  A    between atoms: C_4  and  N_5 
REMARK    4  A    between atoms: C_13  and  N_14 
REMARK    5  A    between atoms: C_17  and  C_18 
REMARK    6  A    between atoms: C_18  and  C_19 
REMARK    7  A    between atoms: C_24  and  O_25 
ROOT
HETATM    1  N   UNK N   1      26.344  25.576  -6.101  0.00  0.00    -0.320 N 
HETATM    2  C   UNK N   1      26.051  25.103  -7.324  0.00  0.00     0.141 A 
HETATM    3  N   UNK N   1      25.982  25.785  -8.492  0.00  0.00    -0.336 N 
ATOM      4  HN  UNK N   1      26.143  26.791  -8.525  1.00  0.00     0.168 HD
HETATM    5  C   UNK N   1      25.689  25.077  -9.629  0.00  0.00     0.183 A 
HETATM    6  N   UNK N   1      25.482  23.717  -9.575  0.00  0.00    -0.337 N 
ATOM      7  HN  UNK N   1      25.271  23.205 -10.431  1.00  0.00     0.168 HD
HETATM    8  C   UNK N   1      25.844  23.772  -7.251  0.00  0.00     0.122 A 
HETATM    9  C   UNK N   1      25.554  23.044  -8.389  0.00  0.00     0.131 A 
HETATM   10  N   UNK N   1      25.991  23.354  -5.987  0.00  0.00    -0.339 N 
ATOM     11  HN  UNK N   1      25.886  22.406  -5.626  1.00  0.00     0.167 HD
HETATM   12  C   UNK N   1      26.311  24.483  -5.296  0.00  0.00     0.089 A 
ENDROOT
BRANCH  12  13
HETATM   13  C   UNK N   1      26.625  24.508  -3.816  0.00  0.00     0.115 C 
BRANCH  13  14
HETATM   14  C   UNK N   1      27.955  23.914  -3.402  0.00  0.00    -0.051 A 
HETATM   15  C   UNK N   1      28.169  23.402  -2.114  0.00  0.00     0.010 A 
HETATM   16  C   UNK N   1      29.405  22.883  -1.745  0.00  0.00     0.037 A 
HETATM   17  C   UNK N   1      30.458  22.855  -2.666  0.00  0.00     0.068 A 
HETATM   18  C   UNK N   1      30.248  23.338  -3.964  0.00  0.00     0.037 A 
HETATM   19  C   UNK N   1      29.001  23.865  -4.331  0.00  0.00     0.010 A 
BRANCH  17  20
HETATM   20  O   UNK N   1      31.678  22.378  -2.322  0.00  0.00    -0.356 OA
HETATM   21  C   UNK N   1      32.370  21.467  -3.090  0.00  0.00     0.210 C 
ENDBRANCH  17  20
ENDBRANCH  13  14
ENDBRANCH  12  13
BRANCH   1  22
HETATM   22  C   UNK N   1      26.680  26.943  -5.719  0.00  0.00     0.132 C 
BRANCH  22  23
HETATM   23  C   UNK N   1      25.457  27.699  -5.232  0.00  0.00     0.020 C 
BRANCH  23  24
HETATM   24  C   UNK N   1      25.665  28.075  -3.778  0.00  0.00    -0.003 C 
HETATM   25  C   UNK N   1      26.318  29.439  -3.689  0.00  0.00     0.005 C 
ENDBRANCH  23  24
ENDBRANCH  22  23
ENDBRANCH   1  22
BRANCH   9  26
HETATM   26  N   UNK N   1      25.360  21.649  -8.335  0.00  0.00    -0.383 N 
HETATM   27  H   UNK N   1      24.763  21.190  -8.970  0.00  0.00     0.157 HD
HETATM   28  H   UNK N   1      25.832  21.122  -7.650  0.00  0.00     0.157 HD
ENDBRANCH   9  26
TORSDOF 7
ENDMDL
MODEL 5
REMARK VINA RESULT:      -6.0      1.521      2.267
REMARK  7 active torsions:
REMARK  status: ('A' for Active; 'I' for Inactive)
REMARK    1  A    between atoms: C_2  and  C_3 
REMARK    2  A    between atoms: C_3  and  C_4 
REMARK    3  A    between atoms: C_4  and  N_5 
REMARK    4  A    between atoms: C_13  and  N_14 
REMARK    5  A    between atoms: C_17  and  C_18 
REMARK    6  A    between atoms: C_18  and  C_19 
REMARK    7  A    between atoms: C_24  and  O_25 
ROOT
HETATM    1  N   UNK N   1      28.876  17.875   6.253  0.00  0.00    -0.320 N 
HETATM    2  C   UNK N   1      28.187  18.822   5.596  0.00  0.00     0.141 A 
HETATM    3  N   UNK N   1      28.025  18.964   4.258  0.00  0.00    -0.336 N 
ATOM      4  HN  UNK N   1      28.466  18.320   3.603  1.00  0.00     0.168 HD
HETATM    5  C   UNK N   1      27.248  20.003   3.815  0.00  0.00     0.183 A 
HETATM    6  N   UNK N   1      26.650  20.862   4.710  0.00  0.00    -0.337 N 
ATOM      7  HN  UNK N   1      26.070  21.627   4.363  1.00  0.00     0.168 HD
HETATM    8  C   UNK N   1      27.615  19.659   6.485  0.00  0.00     0.122 A 
HETATM    9  C   UNK N   1      26.824  20.706   6.055  0.00  0.00     0.131 A 
HETATM   10  N   UNK N   1      27.921  19.280   7.733  0.00  0.00    -0.339 N 
ATOM     11  HN  UNK N   1      27.642  19.724   8.608  1.00  0.00     0.167 HD
HETATM   12  C   UNK N   1      28.692  18.170   7.567  0.00  0.00     0.089 A 
ENDROOT
BRANCH  12  13
HETATM   13  C   UNK N   1      29.246  17.346   8.708  0.00  0.00     0.115 C 
BRANCH  13  14
HETATM   14  C   UNK N   1      30.743  17.117   8.706  0.00  0.00    -0.051 A 
HETATM   15  C   UNK N   1      31.299  15.849   8.933  0.00  0.00     0.010 A 
HETATM   16  C   UNK N   1      32.677  15.664   8.953  0.00  0.00     0.037 A 
HETATM   17  C   UNK N   1      33.534  16.748   8.734  0.00  0.00     0.068 A 
HETATM   18  C   UNK N   1      32.989  18.013   8.479  0.00  0.00     0.037 A 
HETATM   19  C   UNK N   1      31.599  18.197   8.465  0.00  0.00     0.010 A 
BRANCH  17  20
HETATM   20  O   UNK N   1      34.879  16.598   8.774  0.00  0.00    -0.356 OA
HETATM   21  C   UNK N   1      35.501  15.376   8.640  0.00  0.00     0.210 C 
ENDBRANCH  17  20
ENDBRANCH  13  14
ENDBRANCH  12  13
BRANCH   1  22
HETATM   22  C   UNK N   1      29.613  16.745   5.699  0.00  0.00     0.132 C 
BRANCH  22  23
HETATM   23  C   UNK N   1      30.844  17.206   4.939  0.00  0.00     0.020 C 
BRANCH  23  24
HETATM   24  C   UNK N   1      31.990  16.265   5.253  0.00  0.00    -0.003 C 
HETATM   25  C   UNK N   1      33.310  16.948   4.961  0.00  0.00     0.005 C 
ENDBRANCH  23  24
ENDBRANCH  22  23
ENDBRANCH   1  22
BRANCH   9  26
HETATM   26  N   UNK N   1      26.198  21.575   6.971  0.00  0.00    -0.383 N 
HETATM   27  H   UNK N   1      25.771  22.412   6.675  0.00  0.00     0.157 HD
HETATM   28  H   UNK N   1      26.185  21.341   7.928  0.00  0.00     0.157 HD
ENDBRANCH   9  26
TORSDOF 7
ENDMDL
MODEL 6
REMARK VINA RESULT:      -6.0      5.727      8.309
REMARK  7 active torsions:
REMARK  status: ('A' for Active; 'I' for Inactive)
REMARK    1  A    between atoms: C_2  and  C_3 
REMARK    2  A    between atoms: C_3  and  C_4 
REMARK    3  A    between atoms: C_4  and  N_5 
REMARK    4  A    between atoms: C_13  and  N_14 
REMARK    5  A    between atoms: C_17  and  C_18 
REMARK    6  A    between atoms: C_18  and  C_19 
REMARK    7  A    between atoms: C_24  and  O_25 
ROOT
HETATM    1  N   UNK N   1      23.359  19.145   3.937  0.00  0.00    -0.320 N 
HETATM    2  C   UNK N   1      22.263  19.470   3.232  0.00  0.00     0.141 A 
HETATM    3  N   UNK N   1      21.986  20.637   2.604  0.00  0.00    -0.336 N 
ATOM      4  HN  UNK N   1      22.636  21.422   2.640  1.00  0.00     0.168 HD
HETATM    5  C   UNK N   1      20.803  20.729   1.917  0.00  0.00     0.183 A 
HETATM    6  N   UNK N   1      19.936  19.660   1.868  0.00  0.00    -0.337 N 
ATOM      7  HN  UNK N   1      19.063  19.744   1.347  1.00  0.00     0.168 HD
HETATM    8  C   UNK N   1      21.422  18.415   3.200  0.00  0.00     0.122 A 
HETATM    9  C   UNK N   1      20.230  18.490   2.507  0.00  0.00     0.131 A 
HETATM   10  N   UNK N   1      21.948  17.390   3.883  0.00  0.00    -0.339 N 
ATOM     11  HN  UNK N   1      21.540  16.469   4.040  1.00  0.00     0.167 HD
HETATM   12  C   UNK N   1      23.150  17.859   4.320  0.00  0.00     0.089 A 
ENDROOT
BRANCH  12  13
HETATM   13  C   UNK N   1      24.144  17.034   5.107  0.00  0.00     0.115 C 
BRANCH  13  14
HETATM   14  C   UNK N   1      25.433  16.678   4.396  0.00  0.00    -0.051 A 
HETATM   15  C   UNK N   1      25.447  16.230   3.067  0.00  0.00     0.010 A 
HETATM   16  C   UNK N   1      26.638  15.885   2.439  0.00  0.00     0.037 A 
HETATM   17  C   UNK N   1      27.852  15.991   3.129  0.00  0.00     0.068 A 
HETATM   18  C   UNK N   1      27.852  16.464   4.448  0.00  0.00     0.037 A 
HETATM   19  C   UNK N   1      26.648  16.807   5.079  0.00  0.00     0.010 A 
BRANCH  17  20
HETATM   20  O   UNK N   1      29.022  15.636   2.548  0.00  0.00    -0.356 OA
HETATM   21  C   UNK N   1      30.227  16.223   2.871  0.00  0.00     0.210 C 
ENDBRANCH  17  20
ENDBRANCH  13  14
ENDBRANCH  12  13
BRANCH   1  22
HETATM   22  C   UNK N   1      24.542  19.959   4.193  0.00  0.00     0.132 C 
BRANCH  22  23
HETATM   23  C   UNK N   1      25.469  19.983   2.991  0.00  0.00     0.020 C 
BRANCH  23  24
HETATM   24  C   UNK N   1      26.895  20.140   3.479  0.00  0.00    -0.003 C 
HETATM   25  C   UNK N   1      26.898  20.522   4.944  0.00  0.00     0.005 C 
ENDBRANCH  23  24
ENDBRANCH  22  23
ENDBRANCH   1  22
BRANCH   9  26
HETATM   26  N   UNK N   1      19.351  17.390   2.441  0.00  0.00    -0.383 N 
HETATM   27  H   UNK N   1      19.128  16.864   3.243  0.00  0.00     0.157 HD
HETATM   28  H   UNK N   1      18.951  17.142   1.576  0.00  0.00     0.157 HD
ENDBRANCH   9  26
TORSDOF 7
ENDMDL
MODEL 7
REMARK VINA RESULT:      -5.9     12.614     15.952
REMARK  7 active torsions:
REMARK  status: ('A' for Active; 'I' for Inactive)
REMARK    1  A    between atoms: C_2  and  C_3 
REMARK    2  A    between atoms: C_3  and  C_4 
REMARK    3  A    between atoms: C_4  and  N_5 
REMARK    4  A    between atoms: C_13  and  N_14 
REMARK    5  A    between atoms: C_17  and  C_18 
REMARK    6  A    between atoms: C_18  and  C_19 
REMARK    7  A    between atoms: C_24  and  O_25 
ROOT
HETATM    1  N   UNK N   1      27.661  23.563  -5.708  0.00  0.00    -0.320 N 
HETATM    2  C   UNK N   1      27.290  22.778  -6.732  0.00  0.00     0.141 A 
HETATM    3  N   UNK N   1      28.079  22.104  -7.603  0.00  0.00    -0.336 N 
ATOM      4  HN  UNK N   1      29.096  22.166  -7.548  1.00  0.00     0.168 HD
HETATM    5  C   UNK N   1      27.468  21.336  -8.559  0.00  0.00     0.183 A 
HETATM    6  N   UNK N   1      26.095  21.253  -8.620  0.00  0.00    -0.337 N 
ATOM      7  HN  UNK N   1      25.656  20.672  -9.334  1.00  0.00     0.168 HD
HETATM    8  C   UNK N   1      25.943  22.713  -6.782  0.00  0.00     0.122 A 
HETATM    9  C   UNK N   1      25.312  21.939  -7.736  0.00  0.00     0.131 A 
HETATM   10  N   UNK N   1      25.413  23.455  -5.800  0.00  0.00    -0.339 N 
ATOM     11  HN  UNK N   1      24.426  23.606  -5.594  1.00  0.00     0.167 HD
HETATM   12  C   UNK N   1      26.493  23.962  -5.143  0.00  0.00     0.089 A 
ENDROOT
BRANCH  12  13
HETATM   13  C   UNK N   1      26.399  24.834  -3.910  0.00  0.00     0.115 C 
BRANCH  13  14
HETATM   14  C   UNK N   1      26.555  26.324  -4.130  0.00  0.00    -0.051 A 
HETATM   15  C   UNK N   1      26.506  27.239  -3.067  0.00  0.00     0.010 A 
HETATM   16  C   UNK N   1      26.626  28.606  -3.291  0.00  0.00     0.037 A 
HETATM   17  C   UNK N   1      26.810  29.091  -4.591  0.00  0.00     0.068 A 
HETATM   18  C   UNK N   1      26.888  28.184  -5.657  0.00  0.00     0.037 A 
HETATM   19  C   UNK N   1      26.762  26.807  -5.427  0.00  0.00     0.010 A 
BRANCH  17  20
HETATM   20  O   UNK N   1      26.904  30.418  -4.838  0.00  0.00    -0.356 OA
HETATM   21  C   UNK N   1      28.107  31.062  -5.030  0.00  0.00     0.210 C 
ENDBRANCH  17  20
ENDBRANCH  13  14
ENDBRANCH  12  13
BRANCH   1  22
HETATM   22  C   UNK N   1      29.012  23.880  -5.258  0.00  0.00     0.132 C 
BRANCH  22  23
HETATM   23  C   UNK N   1      29.566  22.790  -4.358  0.00  0.00     0.020 C 
BRANCH  23  24
HETATM   24  C   UNK N   1      29.974  23.410  -3.037  0.00  0.00    -0.003 C 
HETATM   25  C   UNK N   1      28.984  23.019  -1.959  0.00  0.00     0.005 C 
ENDBRANCH  23  24
ENDBRANCH  22  23
ENDBRANCH   1  22
BRANCH   9  26
HETATM   26  N   UNK N   1      23.907  21.840  -7.786  0.00  0.00    -0.383 N 
HETATM   27  H   UNK N   1      23.413  21.973  -8.627  0.00  0.00     0.157 HD
HETATM   28  H   UNK N   1      23.408  21.632  -6.962  0.00  0.00     0.157 HD
ENDBRANCH   9  26
TORSDOF 7
ENDMDL
MODEL 8
REMARK VINA RESULT:      -5.8      2.198      4.304
REMARK  7 active torsions:
REMARK  status: ('A' for Active; 'I' for Inactive)
REMARK    1  A    between atoms: C_2  and  C_3 
REMARK    2  A    between atoms: C_3  and  C_4 
REMARK    3  A    between atoms: C_4  and  N_5 
REMARK    4  A    between atoms: C_13  and  N_14 
REMARK    5  A    between atoms: C_17  and  C_18 
REMARK    6  A    between atoms: C_18  and  C_19 
REMARK    7  A    between atoms: C_24  and  O_25 
ROOT
HETATM    1  N   UNK N   1      31.593  17.238   7.089  0.00  0.00    -0.320 N 
HETATM    2  C   UNK N   1      30.890  17.043   5.961  0.00  0.00     0.141 A 
HETATM    3  N   UNK N   1      29.569  16.775   5.831  0.00  0.00    -0.336 N 
ATOM      4  HN  UNK N   1      28.969  16.676   6.650  1.00  0.00     0.168 HD
HETATM    5  C   UNK N   1      29.065  16.642   4.563  0.00  0.00     0.183 A 
HETATM    6  N   UNK N   1      29.882  16.786   3.465  0.00  0.00    -0.337 N 
ATOM      7  HN  UNK N   1      29.489  16.690   2.529  1.00  0.00     0.168 HD
HETATM    8  C   UNK N   1      31.707  17.180   4.896  0.00  0.00     0.122 A 
HETATM    9  C   UNK N   1      31.212  17.055   3.612  0.00  0.00     0.131 A 
HETATM   10  N   UNK N   1      32.951  17.460   5.306  0.00  0.00    -0.339 N 
ATOM     11  HN  UNK N   1      33.781  17.607   4.731  1.00  0.00     0.167 HD
HETATM   12  C   UNK N   1      32.855  17.502   6.664  0.00  0.00     0.089 A 
ENDROOT
BRANCH  12  13
HETATM   13  C   UNK N   1      34.009  17.836   7.583  0.00  0.00     0.115 C 
BRANCH  13  14
HETATM   14  C   UNK N   1      34.592  16.685   8.375  0.00  0.00    -0.051 A 
HETATM   15  C   UNK N   1      34.936  16.815   9.729  0.00  0.00     0.010 A 
HETATM   16  C   UNK N   1      35.494  15.754  10.432  0.00  0.00     0.037 A 
HETATM   17  C   UNK N   1      35.712  14.527   9.795  0.00  0.00     0.068 A 
HETATM   18  C   UNK N   1      35.347  14.377   8.451  0.00  0.00     0.037 A 
HETATM   19  C   UNK N   1      34.789  15.451   7.744  0.00  0.00     0.010 A 
BRANCH  17  20
HETATM   20  O   UNK N   1      36.278  13.486  10.452  0.00  0.00    -0.356 OA
HETATM   21  C   UNK N   1      37.624  13.425  10.739  0.00  0.00     0.210 C 
ENDBRANCH  17  20
ENDBRANCH  13  14
ENDBRANCH  12  13
BRANCH   1  22
HETATM   22  C   UNK N   1      31.110  17.228   8.466  0.00  0.00     0.132 C 
BRANCH  22  23
HETATM   23  C   UNK N   1      30.628  18.601   8.894  0.00  0.00     0.020 C 
BRANCH  23  24
HETATM   24  C   UNK N   1      29.443  18.433   9.825  0.00  0.00    -0.003 C 
HETATM   25  C   UNK N   1      28.217  18.036   9.030  0.00  0.00     0.005 C 
ENDBRANCH  23  24
ENDBRANCH  22  23
ENDBRANCH   1  22
BRANCH   9  26
HETATM   26  N   UNK N   1      32.046  17.221   2.488  0.00  0.00    -0.383 N 
HETATM   27  H   UNK N   1      33.027  17.214   2.571  0.00  0.00     0.157 HD
HETATM   28  H   UNK N   1      31.639  17.344   1.599  0.00  0.00     0.157 HD
ENDBRANCH   9  26
TORSDOF 7
ENDMDL
MODEL 9
REMARK VINA RESULT:      -5.7      2.235      3.127
REMARK  7 active torsions:
REMARK  status: ('A' for Active; 'I' for Inactive)
REMARK    1  A    between atoms: C_2  and  C_3 
REMARK    2  A    between atoms: C_3  and  C_4 
REMARK    3  A    between atoms: C_4  and  N_5 
REMARK    4  A    between atoms: C_13  and  N_14 
REMARK    5  A    between atoms: C_17  and  C_18 
REMARK    6  A    between atoms: C_18  and  C_19 
REMARK    7  A    between atoms: C_24  and  O_25 
ROOT
HETATM    1  N   UNK N   1      27.492  17.210   4.790  0.00  0.00    -0.320 N 
HETATM    2  C   UNK N   1      26.743  18.285   4.492  0.00  0.00     0.141 A 
HETATM    3  N   UNK N   1      25.969  18.491   3.400  0.00  0.00    -0.336 N 
ATOM      4  HN  UNK N   1      25.909  17.794   2.658  1.00  0.00     0.168 HD
HETATM    5  C   UNK N   1      25.267  19.666   3.326  0.00  0.00     0.183 A 
HETATM    6  N   UNK N   1      25.349  20.596   4.337  0.00  0.00    -0.337 N 
ATOM      7  HN  UNK N   1      24.815  21.463   4.269  1.00  0.00     0.168 HD
HETATM    8  C   UNK N   1      26.840  19.189   5.489  0.00  0.00     0.122 A 
HETATM    9  C   UNK N   1      26.134  20.375   5.432  0.00  0.00     0.131 A 
HETATM   10  N   UNK N   1      27.652  18.726   6.449  0.00  0.00    -0.339 N 
ATOM     11  HN  UNK N   1      27.923  19.190   7.315  1.00  0.00     0.167 HD
HETATM   12  C   UNK N   1      28.035  17.498   6.001  0.00  0.00     0.089 A 
ENDROOT
BRANCH  12  13
HETATM   13  C   UNK N   1      28.928  16.556   6.777  0.00  0.00     0.115 C 
BRANCH  13  14
HETATM   14  C   UNK N   1      30.378  16.968   6.917  0.00  0.00    -0.051 A 
HETATM   15  C   UNK N   1      30.907  17.418   8.136  0.00  0.00     0.010 A 
HETATM   16  C   UNK N   1      32.235  17.816   8.238  0.00  0.00     0.037 A 
HETATM   17  C   UNK N   1      33.073  17.762   7.118  0.00  0.00     0.068 A 
HETATM   18  C   UNK N   1      32.563  17.287   5.902  0.00  0.00     0.037 A 
HETATM   19  C   UNK N   1      31.221  16.892   5.802  0.00  0.00     0.010 A 
BRANCH  17  20
HETATM   20  O   UNK N   1      34.362  18.168   7.186  0.00  0.00    -0.356 OA
HETATM   21  C   UNK N   1      34.950  18.602   8.354  0.00  0.00     0.210 C 
ENDBRANCH  17  20
ENDBRANCH  13  14
ENDBRANCH  12  13
BRANCH   1  22
HETATM   22  C   UNK N   1      27.650  15.980   4.023  0.00  0.00     0.132 C 
BRANCH  22  23
HETATM   23  C   UNK N   1      28.771  16.100   3.006  0.00  0.00     0.020 C 
BRANCH  23  24
HETATM   24  C   UNK N   1      29.499  14.774   2.925  0.00  0.00    -0.003 C 
HETATM   25  C   UNK N   1      29.310  14.004   4.216  0.00  0.00     0.005 C 
ENDBRANCH  23  24
ENDBRANCH  22  23
ENDBRANCH   1  22
BRANCH   9  26
HETATM   26  N   UNK N   1      26.204  21.319   6.476  0.00  0.00    -0.383 N 
HETATM   27  H   UNK N   1      26.486  22.247   6.310  0.00  0.00     0.157 HD
HETATM   28  H   UNK N   1      25.963  21.045   7.391  0.00  0.00     0.157 HD
ENDBRANCH   9  26
TORSDOF 7
ENDMDL
