MODEL 1
REMARK VINA RESULT:      -7.0      0.000      0.000
REMARK  7 active torsions:
REMARK  status: ('A' for Active; 'I' for Inactive)
REMARK    1  A    between atoms: C_2  and  C_3 
REMARK    2  A    between atoms: C_3  and  C_4 
REMARK    3  A    between atoms: C_4  and  N_5 
REMARK    4  A    between atoms: C_10  and  C_18 
REMARK    5  A    between atoms: C_10  and  C_20 
REMARK    6  A    between atoms: C_14  and  N_15 
REMARK    7  A    between atoms: C_24  and  O_25 
ROOT
HETATM    1  N   UNK N   1      35.332  12.480  12.448  0.00  0.00    -0.320 N 
HETATM    2  C   UNK N   1      34.826  13.190  11.431  0.00  0.00     0.141 A 
HETATM    3  N   UNK N   1      34.180  12.724  10.336  0.00  0.00    -0.336 N 
ATOM      4  HN  UNK N   1      33.998  11.727  10.218  1.00  0.00     0.168 HD
HETATM    5  C   UNK N   1      33.779  13.630   9.392  0.00  0.00     0.183 A 
HETATM    6  N   UNK N   1      34.039  14.969   9.558  0.00  0.00    -0.337 N 
ATOM      7  HN  UNK N   1      33.739  15.632   8.842  1.00  0.00     0.168 HD
HETATM    8  C   UNK N   1      35.085  14.500  11.621  0.00  0.00     0.122 A 
HETATM    9  C   UNK N   1      34.692  15.428  10.667  0.00  0.00     0.131 A 
HETATM   10  N   UNK N   1      35.761  14.673  12.774  0.00  0.00    -0.339 N 
ATOM     11  HN  UNK N   1      36.091  15.546  13.183  1.00  0.00     0.167 HD
HETATM   12  C   UNK N   1      35.902  13.409  13.267  0.00  0.00     0.089 A 
ENDROOT
BRANCH  12  13
HETATM   13  C   UNK N   1      36.754  13.124  14.480  0.00  0.00     0.115 C 
BRANCH  13  14
HETATM   14  C   UNK N   1      36.688  13.989  15.709  0.00  0.00    -0.049 A 
HETATM   15  C   UNK N   1      37.320  15.234  15.809  0.00  0.00     0.007 A 
HETATM   16  C   UNK N   1      37.143  16.025  16.948  0.00  0.00     0.003 A 
HETATM   17  C   UNK N   1      36.340  15.573  17.999  0.00  0.00     0.037 A 
HETATM   18  C   UNK N   1      35.722  14.322  17.924  0.00  0.00     0.068 A 
HETATM   19  C   UNK N   1      35.898  13.537  16.771  0.00  0.00     0.044 A 
BRANCH  18  20
HETATM   20  O   UNK N   1      34.965  13.895  18.962  0.00  0.00    -0.356 OA
HETATM   21  C   UNK N   1      35.145  12.676  19.577  0.00  0.00     0.210 C 
ENDBRANCH  18  20
ENDBRANCH  13  14
ENDBRANCH  12  13
BRANCH   1  22
HETATM   22  C   UNK N   1      35.294  11.029  12.575  0.00  0.00     0.132 C 
BRANCH  22  23
HETATM   23  C   UNK N   1      33.911  10.591  13.032  0.00  0.00     0.020 C 
BRANCH  23  24
HETATM   24  C   UNK N   1      33.751  10.840  14.514  0.00  0.00    -0.003 C 
HETATM   25  C   UNK N   1      34.773  10.015  15.268  0.00  0.00     0.005 C 
ENDBRANCH  23  24
ENDBRANCH  22  23
ENDBRANCH   1  22
BRANCH   9  26
HETATM   26  N   UNK N   1      34.976  16.800  10.817  0.00  0.00    -0.383 N 
HETATM   27  H   UNK N   1      34.406  17.500  10.422  0.00  0.00     0.157 HD
HETATM   28  H   UNK N   1      35.770  17.068  11.333  0.00  0.00     0.157 HD
ENDBRANCH   9  26
TORSDOF 7
ENDMDL
MODEL 2
REMARK VINA RESULT:      -6.5      6.541      9.931
REMARK  7 active torsions:
REMARK  status: ('A' for Active; 'I' for Inactive)
REMARK    1  A    between atoms: C_2  and  C_3 
REMARK    2  A    between atoms: C_3  and  C_4 
REMARK    3  A    between atoms: C_4  and  N_5 
REMARK    4  A    between atoms: C_10  and  C_18 
REMARK    5  A    between atoms: C_10  and  C_20 
REMARK    6  A    between atoms: C_14  and  N_15 
REMARK    7  A    between atoms: C_24  and  O_25 
ROOT
HETATM    1  N   UNK N   1      29.908  17.264   5.303  0.00  0.00    -0.320 N 
HETATM    2  C   UNK N   1      28.980  18.227   5.245  0.00  0.00     0.141 A 
HETATM    3  N   UNK N   1      28.547  18.895   4.149  0.00  0.00    -0.336 N 
ATOM      4  HN  UNK N   1      28.907  18.671   3.221  1.00  0.00     0.168 HD
HETATM    5  C   UNK N   1      27.613  19.879   4.323  0.00  0.00     0.183 A 
HETATM    6  N   UNK N   1      27.143  20.178   5.580  0.00  0.00    -0.337 N 
ATOM      7  HN  UNK N   1      26.451  20.919   5.695  1.00  0.00     0.168 HD
HETATM    8  C   UNK N   1      28.529  18.497   6.487  0.00  0.00     0.122 A 
HETATM    9  C   UNK N   1      27.589  19.499   6.678  0.00  0.00     0.131 A 
HETATM   10  N   UNK N   1      29.150  17.706   7.383  0.00  0.00    -0.339 N 
ATOM     11  HN  UNK N   1      29.017  17.677   8.394  1.00  0.00     0.167 HD
HETATM   12  C   UNK N   1      29.999  16.952   6.627  0.00  0.00     0.089 A 
ENDROOT
BRANCH  12  13
HETATM   13  C   UNK N   1      31.017  16.034   7.259  0.00  0.00     0.115 C 
BRANCH  13  14
HETATM   14  C   UNK N   1      32.326  16.554   7.787  0.00  0.00    -0.049 A 
HETATM   15  C   UNK N   1      32.857  17.800   7.433  0.00  0.00     0.007 A 
HETATM   16  C   UNK N   1      34.034  18.261   8.031  0.00  0.00     0.003 A 
HETATM   17  C   UNK N   1      34.694  17.473   8.978  0.00  0.00     0.037 A 
HETATM   18  C   UNK N   1      34.189  16.217   9.324  0.00  0.00     0.068 A 
HETATM   19  C   UNK N   1      33.000  15.767   8.726  0.00  0.00     0.044 A 
BRANCH  18  20
HETATM   20  O   UNK N   1      34.856  15.463  10.230  0.00  0.00    -0.356 OA
HETATM   21  C   UNK N   1      35.502  15.993  11.324  0.00  0.00     0.210 C 
ENDBRANCH  18  20
ENDBRANCH  13  14
ENDBRANCH  12  13
BRANCH   1  22
HETATM   22  C   UNK N   1      30.661  16.736   4.172  0.00  0.00     0.132 C 
BRANCH  22  23
HETATM   23  C   UNK N   1      31.917  17.569   3.961  0.00  0.00     0.020 C 
BRANCH  23  24
HETATM   24  C   UNK N   1      33.062  16.682   3.532  0.00  0.00    -0.003 C 
HETATM   25  C   UNK N   1      32.922  15.332   4.203  0.00  0.00     0.005 C 
ENDBRANCH  23  24
ENDBRANCH  22  23
ENDBRANCH   1  22
BRANCH   9  26
HETATM   26  N   UNK N   1      27.120  19.829   7.966  0.00  0.00    -0.383 N 
HETATM   27  H   UNK N   1      26.311  20.373   8.106  0.00  0.00     0.157 HD
HETATM   28  H   UNK N   1      27.618  19.505   8.751  0.00  0.00     0.157 HD
ENDBRANCH   9  26
TORSDOF 7
ENDMDL
MODEL 3
REMARK VINA RESULT:      -6.4      1.668      2.155
REMARK  7 active torsions:
REMARK  status: ('A' for Active; 'I' for Inactive)
REMARK    1  A    between atoms: C_2  and  C_3 
REMARK    2  A    between atoms: C_3  and  C_4 
REMARK    3  A    between atoms: C_4  and  N_5 
REMARK    4  A    between atoms: C_10  and  C_18 
REMARK    5  A    between atoms: C_10  and  C_20 
REMARK    6  A    between atoms: C_14  and  N_15 
REMARK    7  A    between atoms: C_24  and  O_25 
ROOT
HETATM    1  N   UNK N   1      35.497  12.431  12.016  0.00  0.00    -0.320 N 
HETATM    2  C   UNK N   1      34.930  13.269  11.138  0.00  0.00     0.141 A 
HETATM    3  N   UNK N   1      34.228  12.951  10.024  0.00  0.00    -0.336 N 
ATOM      4  HN  UNK N   1      34.047  11.978   9.778  1.00  0.00     0.168 HD
HETATM    5  C   UNK N   1      33.770  13.974   9.240  0.00  0.00     0.183 A 
HETATM    6  N   UNK N   1      34.029  15.280   9.577  0.00  0.00    -0.337 N 
ATOM      7  HN  UNK N   1      33.686  16.032   8.978  1.00  0.00     0.168 HD
HETATM    8  C   UNK N   1      35.192  14.543  11.495  0.00  0.00     0.122 A 
HETATM    9  C   UNK N   1      34.740  15.589  10.703  0.00  0.00     0.131 A 
HETATM   10  N   UNK N   1      35.929  14.563  12.622  0.00  0.00    -0.339 N 
ATOM     11  HN  UNK N   1      36.276  15.375  13.131  1.00  0.00     0.167 HD
HETATM   12  C   UNK N   1      36.106  13.245  12.925  0.00  0.00     0.089 A 
ENDROOT
BRANCH  12  13
HETATM   13  C   UNK N   1      37.025  12.806  14.039  0.00  0.00     0.115 C 
BRANCH  13  14
HETATM   14  C   UNK N   1      36.496  12.439  15.398  0.00  0.00    -0.049 A 
HETATM   15  C   UNK N   1      35.680  13.285  16.159  0.00  0.00     0.007 A 
HETATM   16  C   UNK N   1      35.150  12.845  17.376  0.00  0.00     0.003 A 
HETATM   17  C   UNK N   1      35.440  11.560  17.845  0.00  0.00     0.037 A 
HETATM   18  C   UNK N   1      36.273  10.714  17.107  0.00  0.00     0.068 A 
HETATM   19  C   UNK N   1      36.793  11.161  15.881  0.00  0.00     0.044 A 
BRANCH  18  20
HETATM   20  O   UNK N   1      36.556   9.481  17.590  0.00  0.00    -0.356 OA
HETATM   21  C   UNK N   1      36.536   9.173  18.932  0.00  0.00     0.210 C 
ENDBRANCH  18  20
ENDBRANCH  13  14
ENDBRANCH  12  13
BRANCH   1  22
HETATM   22  C   UNK N   1      35.476  10.976  11.940  0.00  0.00     0.132 C 
BRANCH  22  23
HETATM   23  C   UNK N   1      34.129  10.458  12.422  0.00  0.00     0.020 C 
BRANCH  23  24
HETATM   24  C   UNK N   1      34.238   9.975  13.849  0.00  0.00    -0.003 C 
HETATM   25  C   UNK N   1      33.352  10.829  14.732  0.00  0.00     0.005 C 
ENDBRANCH  23  24
ENDBRANCH  22  23
ENDBRANCH   1  22
BRANCH   9  26
HETATM   26  N   UNK N   1      35.023  16.931  11.028  0.00  0.00    -0.383 N 
HETATM   27  H   UNK N   1      35.863  17.198  11.467  0.00  0.00     0.157 HD
HETATM   28  H   UNK N   1      34.358  17.624  10.811  0.00  0.00     0.157 HD
ENDBRANCH   9  26
TORSDOF 7
ENDMDL
MODEL 4
REMARK VINA RESULT:      -6.3     14.863     17.040
REMARK  7 active torsions:
REMARK  status: ('A' for Active; 'I' for Inactive)
REMARK    1  A    between atoms: C_2  and  C_3 
REMARK    2  A    between atoms: C_3  and  C_4 
REMARK    3  A    between atoms: C_4  and  N_5 
REMARK    4  A    between atoms: C_10  and  C_18 
REMARK    5  A    between atoms: C_10  and  C_20 
REMARK    6  A    between atoms: C_14  and  N_15 
REMARK    7  A    between atoms: C_24  and  O_25 
ROOT
HETATM    1  N   UNK N   1      22.863  18.254   4.290  0.00  0.00    -0.320 N 
HETATM    2  C   UNK N   1      22.090  18.986   3.477  0.00  0.00     0.141 A 
HETATM    3  N   UNK N   1      22.368  20.197   2.938  0.00  0.00    -0.336 N 
ATOM      4  HN  UNK N   1      23.264  20.654   3.107  1.00  0.00     0.168 HD
HETATM    5  C   UNK N   1      21.411  20.790   2.162  0.00  0.00     0.183 A 
HETATM    6  N   UNK N   1      20.203  20.169   1.950  0.00  0.00    -0.337 N 
ATOM      7  HN  UNK N   1      19.496  20.627   1.373  1.00  0.00     0.168 HD
HETATM    8  C   UNK N   1      20.916  18.353   3.278  0.00  0.00     0.122 A 
HETATM    9  C   UNK N   1      19.933  18.947   2.500  0.00  0.00     0.131 A 
HETATM   10  N   UNK N   1      20.902  17.186   3.953  0.00  0.00    -0.339 N 
ATOM     11  HN  UNK N   1      20.156  16.493   3.992  1.00  0.00     0.167 HD
HETATM   12  C   UNK N   1      22.117  17.148   4.571  0.00  0.00     0.089 A 
ENDROOT
BRANCH  12  13
HETATM   13  C   UNK N   1      22.459  16.074   5.576  0.00  0.00     0.115 C 
BRANCH  13  14
HETATM   14  C   UNK N   1      21.638  15.869   6.818  0.00  0.00    -0.049 A 
HETATM   15  C   UNK N   1      20.889  16.886   7.422  0.00  0.00     0.007 A 
HETATM   16  C   UNK N   1      20.076  16.603   8.525  0.00  0.00     0.003 A 
HETATM   17  C   UNK N   1      20.016  15.304   9.038  0.00  0.00     0.037 A 
HETATM   18  C   UNK N   1      20.777  14.284   8.461  0.00  0.00     0.068 A 
HETATM   19  C   UNK N   1      21.583  14.575   7.347  0.00  0.00     0.044 A 
BRANCH  18  20
HETATM   20  O   UNK N   1      20.719  13.038   8.987  0.00  0.00    -0.356 OA
HETATM   21  C   UNK N   1      21.472  12.639  10.069  0.00  0.00     0.210 C 
ENDBRANCH  18  20
ENDBRANCH  13  14
ENDBRANCH  12  13
BRANCH   1  22
HETATM   22  C   UNK N   1      24.185  18.630   4.775  0.00  0.00     0.132 C 
BRANCH  22  23
HETATM   23  C   UNK N   1      25.243  18.170   3.782  0.00  0.00     0.020 C 
BRANCH  23  24
HETATM   24  C   UNK N   1      26.407  19.133   3.781  0.00  0.00    -0.003 C 
HETATM   25  C   UNK N   1      25.982  20.424   3.113  0.00  0.00     0.005 C 
ENDBRANCH  23  24
ENDBRANCH  22  23
ENDBRANCH   1  22
BRANCH   9  26
HETATM   26  N   UNK N   1      18.683  18.329   2.297  0.00  0.00    -0.383 N 
HETATM   27  H   UNK N   1      17.996  18.716   1.708  0.00  0.00     0.157 HD
HETATM   28  H   UNK N   1      18.490  17.482   2.762  0.00  0.00     0.157 HD
ENDBRANCH   9  26
TORSDOF 7
ENDMDL
MODEL 5
REMARK VINA RESULT:      -6.1     11.101     15.114
REMARK  7 active torsions:
REMARK  status: ('A' for Active; 'I' for Inactive)
REMARK    1  A    between atoms: C_2  and  C_3 
REMARK    2  A    between atoms: C_3  and  C_4 
REMARK    3  A    between atoms: C_4  and  N_5 
REMARK    4  A    between atoms: C_10  and  C_18 
REMARK    5  A    between atoms: C_10  and  C_20 
REMARK    6  A    between atoms: C_14  and  N_15 
REMARK    7  A    between atoms: C_24  and  O_25 
ROOT
HETATM    1  N   UNK N   1      28.024  18.801   5.625  0.00  0.00    -0.320 N 
HETATM    2  C   UNK N   1      29.036  17.931   5.729  0.00  0.00     0.141 A 
HETATM    3  N   UNK N   1      29.752  17.622   6.836  0.00  0.00    -0.336 N 
ATOM      4  HN  UNK N   1      29.533  18.043   7.738  1.00  0.00     0.168 HD
HETATM    5  C   UNK N   1      30.780  16.728   6.707  0.00  0.00     0.183 A 
HETATM    6  N   UNK N   1      31.073  16.175   5.483  0.00  0.00    -0.337 N 
ATOM      7  HN  UNK N   1      31.847  15.514   5.402  1.00  0.00     0.168 HD
HETATM    8  C   UNK N   1      29.299  17.396   4.519  0.00  0.00     0.122 A 
HETATM    9  C   UNK N   1      30.344  16.495   4.373  0.00  0.00     0.131 A 
HETATM   10  N   UNK N   1      28.453  17.902   3.599  0.00  0.00    -0.339 N 
ATOM     11  HN  UNK N   1      28.407  17.687   2.604  1.00  0.00     0.167 HD
HETATM   12  C   UNK N   1      27.675  18.769   4.308  0.00  0.00     0.089 A 
ENDROOT
BRANCH  12  13
HETATM   13  C   UNK N   1      26.689  19.686   3.624  0.00  0.00     0.115 C 
BRANCH  13  14
HETATM   14  C   UNK N   1      25.209  19.421   3.668  0.00  0.00    -0.049 A 
HETATM   15  C   UNK N   1      24.635  18.376   4.401  0.00  0.00     0.007 A 
HETATM   16  C   UNK N   1      23.244  18.242   4.469  0.00  0.00     0.003 A 
HETATM   17  C   UNK N   1      22.419  19.147   3.795  0.00  0.00     0.037 A 
HETATM   18  C   UNK N   1      22.977  20.182   3.039  0.00  0.00     0.068 A 
HETATM   19  C   UNK N   1      24.376  20.314   2.985  0.00  0.00     0.044 A 
BRANCH  18  20
HETATM   20  O   UNK N   1      22.159  21.034   2.379  0.00  0.00    -0.356 OA
HETATM   21  C   UNK N   1      21.061  20.620   1.660  0.00  0.00     0.210 C 
ENDBRANCH  18  20
ENDBRANCH  13  14
ENDBRANCH  12  13
BRANCH   1  22
HETATM   22  C   UNK N   1      27.485  19.614   6.709  0.00  0.00     0.132 C 
BRANCH  22  23
HETATM   23  C   UNK N   1      27.725  21.087   6.409  0.00  0.00     0.020 C 
BRANCH  23  24
HETATM   24  C   UNK N   1      26.425  21.852   6.496  0.00  0.00    -0.003 C 
HETATM   25  C   UNK N   1      25.805  21.624   7.859  0.00  0.00     0.005 C 
ENDBRANCH  23  24
ENDBRANCH  22  23
ENDBRANCH   1  22
BRANCH   9  26
HETATM   26  N   UNK N   1      30.666  15.942   3.117  0.00  0.00    -0.383 N 
HETATM   27  H   UNK N   1      30.667  16.480   2.292  0.00  0.00     0.157 HD
HETATM   28  H   UNK N   1      30.897  14.987   3.064  0.00  0.00     0.157 HD
ENDBRANCH   9  26
TORSDOF 7
ENDMDL
MODEL 6
REMARK VINA RESULT:      -6.1      5.828      9.262
REMARK  7 active torsions:
REMARK  status: ('A' for Active; 'I' for Inactive)
REMARK    1  A    between atoms: C_2  and  C_3 
REMARK    2  A    between atoms: C_3  and  C_4 
REMARK    3  A    between atoms: C_4  and  N_5 
REMARK    4  A    between atoms: C_10  and  C_18 
REMARK    5  A    between atoms: C_10  and  C_20 
REMARK    6  A    between atoms: C_14  and  N_15 
REMARK    7  A    between atoms: C_24  and  O_25 
ROOT
HETATM    1  N   UNK N   1      33.730  16.108   7.680  0.00  0.00    -0.320 N 
HETATM    2  C   UNK N   1      34.606  15.365   8.368  0.00  0.00     0.141 A 
HETATM    3  N   UNK N   1      35.134  14.168   8.015  0.00  0.00    -0.336 N 
ATOM      4  HN  UNK N   1      34.901  13.734   7.122  1.00  0.00     0.168 HD
HETATM    5  C   UNK N   1      35.987  13.559   8.894  0.00  0.00     0.183 A 
HETATM    6  N   UNK N   1      36.284  14.149  10.099  0.00  0.00    -0.337 N 
ATOM      7  HN  UNK N   1      36.917  13.678  10.747  1.00  0.00     0.168 HD
HETATM    8  C   UNK N   1      34.888  15.968   9.540  0.00  0.00     0.122 A 
HETATM    9  C   UNK N   1      35.745  15.356  10.444  0.00  0.00     0.131 A 
HETATM   10  N   UNK N   1      34.205  17.126   9.638  0.00  0.00    -0.339 N 
ATOM     11  HN  UNK N   1      34.217  17.798  10.404  1.00  0.00     0.167 HD
HETATM   12  C   UNK N   1      33.496  17.190   8.476  0.00  0.00     0.089 A 
ENDROOT
BRANCH  12  13
HETATM   13  C   UNK N   1      32.458  18.261   8.241  0.00  0.00     0.115 C 
BRANCH  13  14
HETATM   14  C   UNK N   1      30.989  17.983   8.408  0.00  0.00    -0.049 A 
HETATM   15  C   UNK N   1      30.243  18.424   9.507  0.00  0.00     0.007 A 
HETATM   16  C   UNK N   1      28.862  18.208   9.555  0.00  0.00     0.003 A 
HETATM   17  C   UNK N   1      28.220  17.540   8.508  0.00  0.00     0.037 A 
HETATM   18  C   UNK N   1      28.955  17.072   7.416  0.00  0.00     0.068 A 
HETATM   19  C   UNK N   1      30.341  17.303   7.372  0.00  0.00     0.044 A 
BRANCH  18  20
HETATM   20  O   UNK N   1      28.315  16.411   6.423  0.00  0.00    -0.356 OA
HETATM   21  C   UNK N   1      26.955  16.201   6.411  0.00  0.00     0.210 C 
ENDBRANCH  18  20
ENDBRANCH  13  14
ENDBRANCH  12  13
BRANCH   1  22
HETATM   22  C   UNK N   1      33.149  15.762   6.388  0.00  0.00     0.132 C 
BRANCH  22  23
HETATM   23  C   UNK N   1      33.891  16.498   5.282  0.00  0.00     0.020 C 
BRANCH  23  24
HETATM   24  C   UNK N   1      33.018  17.589   4.708  0.00  0.00    -0.003 C 
HETATM   25  C   UNK N   1      32.349  17.079   3.449  0.00  0.00     0.005 C 
ENDBRANCH  23  24
ENDBRANCH  22  23
ENDBRANCH   1  22
BRANCH   9  26
HETATM   26  N   UNK N   1      36.036  15.943  11.693  0.00  0.00    -0.383 N 
HETATM   27  H   UNK N   1      36.400  15.421  12.444  0.00  0.00     0.157 HD
HETATM   28  H   UNK N   1      35.869  16.905  11.817  0.00  0.00     0.157 HD
ENDBRANCH   9  26
TORSDOF 7
ENDMDL
MODEL 7
REMARK VINA RESULT:      -6.0     21.867     24.574
REMARK  7 active torsions:
REMARK  status: ('A' for Active; 'I' for Inactive)
REMARK    1  A    between atoms: C_2  and  C_3 
REMARK    2  A    between atoms: C_3  and  C_4 
REMARK    3  A    between atoms: C_4  and  N_5 
REMARK    4  A    between atoms: C_10  and  C_18 
REMARK    5  A    between atoms: C_10  and  C_20 
REMARK    6  A    between atoms: C_14  and  N_15 
REMARK    7  A    between atoms: C_24  and  O_25 
ROOT
HETATM    1  N   UNK N   1      27.695  23.507  -5.691  0.00  0.00    -0.320 N 
HETATM    2  C   UNK N   1      27.289  22.732  -6.705  0.00  0.00     0.141 A 
HETATM    3  N   UNK N   1      28.059  22.086  -7.613  0.00  0.00    -0.336 N 
ATOM      4  HN  UNK N   1      29.077  22.129  -7.564  1.00  0.00     0.168 HD
HETATM    5  C   UNK N   1      27.430  21.376  -8.599  0.00  0.00     0.183 A 
HETATM    6  N   UNK N   1      26.058  21.335  -8.660  0.00  0.00    -0.337 N 
ATOM      7  HN  UNK N   1      25.603  20.806  -9.405  1.00  0.00     0.168 HD
HETATM    8  C   UNK N   1      25.941  22.701  -6.739  0.00  0.00     0.122 A 
HETATM    9  C   UNK N   1      25.292  21.991  -7.739  0.00  0.00     0.131 A 
HETATM   10  N   UNK N   1      25.438  23.451  -5.739  0.00  0.00    -0.339 N 
ATOM     11  HN  UNK N   1      24.458  23.615  -5.509  1.00  0.00     0.167 HD
HETATM   12  C   UNK N   1      26.542  23.940  -5.105  0.00  0.00     0.089 A 
ENDROOT
BRANCH  12  13
HETATM   13  C   UNK N   1      26.432  24.973  -4.010  0.00  0.00     0.115 C 
BRANCH  13  14
HETATM   14  C   UNK N   1      26.461  26.446  -4.312  0.00  0.00    -0.049 A 
HETATM   15  C   UNK N   1      25.943  27.419  -3.449  0.00  0.00     0.007 A 
HETATM   16  C   UNK N   1      26.083  28.777  -3.751  0.00  0.00     0.003 A 
HETATM   17  C   UNK N   1      26.732  29.171  -4.925  0.00  0.00     0.037 A 
HETATM   18  C   UNK N   1      27.232  28.211  -5.809  0.00  0.00     0.068 A 
HETATM   19  C   UNK N   1      27.096  26.849  -5.491  0.00  0.00     0.044 A 
BRANCH  18  20
HETATM   20  O   UNK N   1      27.840  28.615  -6.949  0.00  0.00    -0.356 OA
HETATM   21  C   UNK N   1      28.071  27.779  -8.018  0.00  0.00     0.210 C 
ENDBRANCH  18  20
ENDBRANCH  13  14
ENDBRANCH  12  13
BRANCH   1  22
HETATM   22  C   UNK N   1      29.079  23.824  -5.362  0.00  0.00     0.132 C 
BRANCH  22  23
HETATM   23  C   UNK N   1      29.481  23.096  -4.088  0.00  0.00     0.020 C 
BRANCH  23  24
HETATM   24  C   UNK N   1      30.480  23.921  -3.311  0.00  0.00    -0.003 C 
HETATM   25  C   UNK N   1      30.288  25.383  -3.652  0.00  0.00     0.005 C 
ENDBRANCH  23  24
ENDBRANCH  22  23
ENDBRANCH   1  22
BRANCH   9  26
HETATM   26  N   UNK N   1      23.885  21.964  -7.824  0.00  0.00    -0.383 N 
HETATM   27  H   UNK N   1      23.342  21.315  -7.320  0.00  0.00     0.157 HD
HETATM   28  H   UNK N   1      23.430  22.615  -8.406  0.00  0.00     0.157 HD
ENDBRANCH   9  26
TORSDOF 7
ENDMDL
MODEL 8
REMARK VINA RESULT:      -6.0      5.488      8.955
REMARK  7 active torsions:
REMARK  status: ('A' for Active; 'I' for Inactive)
REMARK    1  A    between atoms: C_2  and  C_3 
REMARK    2  A    between atoms: C_3  and  C_4 
REMARK    3  A    between atoms: C_4  and  N_5 
REMARK    4  A    between atoms: C_10  and  C_18 
REMARK    5  A    between atoms: C_10  and  C_20 
REMARK    6  A    between atoms: C_14  and  N_15 
REMARK    7  A    between atoms: C_24  and  O_25 
ROOT
HETATM    1  N   UNK N   1      31.084  16.851   6.232  0.00  0.00    -0.320 N 
HETATM    2  C   UNK N   1      29.757  16.919   6.399  0.00  0.00     0.141 A 
HETATM    3  N   UNK N   1      28.792  16.518   5.537  0.00  0.00    -0.336 N 
ATOM      4  HN  UNK N   1      29.031  16.079   4.648  1.00  0.00     0.168 HD
HETATM    5  C   UNK N   1      27.487  16.720   5.895  0.00  0.00     0.183 A 
HETATM    6  N   UNK N   1      27.178  17.323   7.091  0.00  0.00    -0.337 N 
ATOM      7  HN  UNK N   1      26.199  17.472   7.340  1.00  0.00     0.168 HD
HETATM    8  C   UNK N   1      29.479  17.505   7.582  0.00  0.00     0.122 A 
HETATM    9  C   UNK N   1      28.160  17.724   7.951  0.00  0.00     0.131 A 
HETATM   10  N   UNK N   1      30.624  17.825   8.217  0.00  0.00    -0.339 N 
ATOM     11  HN  UNK N   1      30.733  18.272   9.126  1.00  0.00     0.167 HD
HETATM   12  C   UNK N   1      31.602  17.411   7.362  0.00  0.00     0.089 A 
ENDROOT
BRANCH  12  13
HETATM   13  C   UNK N   1      33.057  17.729   7.612  0.00  0.00     0.115 C 
BRANCH  13  14
HETATM   14  C   UNK N   1      33.997  16.708   8.192  0.00  0.00    -0.049 A 
HETATM   15  C   UNK N   1      34.561  15.669   7.443  0.00  0.00     0.007 A 
HETATM   16  C   UNK N   1      35.498  14.808   8.025  0.00  0.00     0.003 A 
HETATM   17  C   UNK N   1      35.868  14.975   9.362  0.00  0.00     0.037 A 
HETATM   18  C   UNK N   1      35.296  15.993  10.130  0.00  0.00     0.068 A 
HETATM   19  C   UNK N   1      34.363  16.859   9.534  0.00  0.00     0.044 A 
BRANCH  18  20
HETATM   20  O   UNK N   1      35.655  16.123  11.428  0.00  0.00    -0.356 OA
HETATM   21  C   UNK N   1      35.918  15.050  12.249  0.00  0.00     0.210 C 
ENDBRANCH  18  20
ENDBRANCH  13  14
ENDBRANCH  12  13
BRANCH   1  22
HETATM   22  C   UNK N   1      31.769  16.328   5.057  0.00  0.00     0.132 C 
BRANCH  22  23
HETATM   23  C   UNK N   1      32.006  17.453   4.060  0.00  0.00     0.020 C 
BRANCH  23  24
HETATM   24  C   UNK N   1      32.782  16.939   2.870  0.00  0.00    -0.003 C 
HETATM   25  C   UNK N   1      33.282  15.541   3.171  0.00  0.00     0.005 C 
ENDBRANCH  23  24
ENDBRANCH  22  23
ENDBRANCH   1  22
BRANCH   9  26
HETATM   26  N   UNK N   1      27.834  18.363   9.165  0.00  0.00    -0.383 N 
HETATM   27  H   UNK N   1      27.977  19.327   9.305  0.00  0.00     0.157 HD
HETATM   28  H   UNK N   1      27.453  17.827   9.898  0.00  0.00     0.157 HD
ENDBRANCH   9  26
TORSDOF 7
ENDMDL
MODEL 9
REMARK VINA RESULT:      -6.0      5.391      8.390
REMARK  7 active torsions:
REMARK  status: ('A' for Active; 'I' for Inactive)
REMARK    1  A    between atoms: C_2  and  C_3 
REMARK    2  A    between atoms: C_3  and  C_4 
REMARK    3  A    between atoms: C_4  and  N_5 
REMARK    4  A    between atoms: C_10  and  C_18 
REMARK    5  A    between atoms: C_10  and  C_20 
REMARK    6  A    between atoms: C_14  and  N_15 
REMARK    7  A    between atoms: C_24  and  O_25 
ROOT
HETATM    1  N   UNK N   1      31.746  16.736   7.026  0.00  0.00    -0.320 N 
HETATM    2  C   UNK N   1      30.413  16.860   7.001  0.00  0.00     0.141 A 
HETATM    3  N   UNK N   1      29.568  16.510   6.002  0.00  0.00    -0.336 N 
ATOM      4  HN  UNK N   1      29.915  16.070   5.151  1.00  0.00     0.168 HD
HETATM    5  C   UNK N   1      28.234  16.765   6.171  0.00  0.00     0.183 A 
HETATM    6  N   UNK N   1      27.780  17.368   7.319  0.00  0.00    -0.337 N 
ATOM      7  HN  UNK N   1      26.783  17.558   7.427  1.00  0.00     0.168 HD
HETATM    8  C   UNK N   1      29.992  17.446   8.140  0.00  0.00     0.122 A 
HETATM    9  C   UNK N   1      28.643  17.718   8.319  0.00  0.00     0.131 A 
HETATM   10  N   UNK N   1      31.045  17.709   8.939  0.00  0.00    -0.339 N 
ATOM     11  HN  UNK N   1      31.039  18.142   9.862  1.00  0.00     0.167 HD
HETATM   12  C   UNK N   1      32.119  17.261   8.228  0.00  0.00     0.089 A 
ENDROOT
BRANCH  12  13
HETATM   13  C   UNK N   1      33.534  17.513   8.691  0.00  0.00     0.115 C 
BRANCH  13  14
HETATM   14  C   UNK N   1      34.290  16.496   9.499  0.00  0.00    -0.049 A 
HETATM   15  C   UNK N   1      35.260  16.835  10.450  0.00  0.00     0.007 A 
HETATM   16  C   UNK N   1      35.861  15.842  11.230  0.00  0.00     0.003 A 
HETATM   17  C   UNK N   1      35.503  14.502  11.058  0.00  0.00     0.037 A 
HETATM   18  C   UNK N   1      34.553  14.145  10.097  0.00  0.00     0.068 A 
HETATM   19  C   UNK N   1      33.947  15.151   9.324  0.00  0.00     0.044 A 
BRANCH  18  20
HETATM   20  O   UNK N   1      34.236  12.839   9.934  0.00  0.00    -0.356 OA
HETATM   21  C   UNK N   1      34.482  12.142   8.772  0.00  0.00     0.210 C 
ENDBRANCH  18  20
ENDBRANCH  13  14
ENDBRANCH  12  13
BRANCH   1  22
HETATM   22  C   UNK N   1      32.572  16.195   5.954  0.00  0.00     0.132 C 
BRANCH  22  23
HETATM   23  C   UNK N   1      33.227  17.336   5.188  0.00  0.00     0.020 C 
BRANCH  23  24
HETATM   24  C   UNK N   1      32.386  17.706   3.989  0.00  0.00    -0.003 C 
HETATM   25  C   UNK N   1      32.568  16.656   2.912  0.00  0.00     0.005 C 
ENDBRANCH  23  24
ENDBRANCH  22  23
ENDBRANCH   1  22
BRANCH   9  26
HETATM   26  N   UNK N   1      28.172  18.358   9.484  0.00  0.00    -0.383 N 
HETATM   27  H   UNK N   1      28.671  19.088   9.919  0.00  0.00     0.157 HD
HETATM   28  H   UNK N   1      27.317  18.066   9.874  0.00  0.00     0.157 HD
ENDBRANCH   9  26
TORSDOF 7
ENDMDL
