MODEL 1
REMARK VINA RESULT:      -6.3      0.000      0.000
REMARK  9 active torsions:
REMARK  status: ('A' for Active; 'I' for Inactive)
REMARK    1  A    between atoms: O_2  and  C_3 
REMARK    2  A    between atoms: C_5  and  O_6 
REMARK    3  A    between atoms: C_8  and  O_9 
REMARK    4  A    between atoms: C_12  and  C_13 
REMARK    5  A    between atoms: C_13  and  C_14 
REMARK    6  A    between atoms: C_18  and  N_19 
REMARK    7  A    between atoms: N_26  and  C_27 
REMARK    8  A    between atoms: C_27  and  C_28 
REMARK    9  A    between atoms: C_28  and  C_29 
ROOT
HETATM    1  C   UNK N   1      22.360  16.527   3.858  0.00  0.00     0.089 A 
HETATM    2  N   UNK N   1      21.354  16.437   2.946  0.00  0.00    -0.339 N 
ATOM      3  HN  UNK N   1      20.958  15.595   2.529  1.00  0.00     0.167 HD
HETATM    4  C   UNK N   1      21.003  17.717   2.725  0.00  0.00     0.122 A 
HETATM    5  C   UNK N   1      19.989  18.231   1.937  0.00  0.00     0.131 A 
HETATM    6  C   UNK N   1      21.801  18.543   3.431  0.00  0.00     0.141 A 
HETATM    7  N   UNK N   1      21.675  19.892   3.387  0.00  0.00    -0.336 N 
ATOM      8  HN  UNK N   1      22.301  20.496   3.919  1.00  0.00     0.168 HD
HETATM    9  C   UNK N   1      20.680  20.415   2.605  0.00  0.00     0.183 A 
HETATM   10  N   UNK N   1      19.842  19.589   1.893  0.00  0.00    -0.337 N 
ATOM     11  HN  UNK N   1      19.098  19.996   1.325  1.00  0.00     0.168 HD
HETATM   12  N   UNK N   1      22.677  17.822   4.137  0.00  0.00    -0.320 N 
ENDROOT
BRANCH   1  13
HETATM   13  C   UNK N   1      23.058  15.341   4.462  0.00  0.00     0.117 C 
BRANCH  13  14
HETATM   14  C   UNK N   1      22.477  14.519   5.613  0.00  0.00    -0.024 A 
HETATM   15  C   UNK N   1      22.891  13.230   6.079  0.00  0.00     0.077 A 
HETATM   16  C   UNK N   1      22.290  12.683   7.257  0.00  0.00     0.126 A 
HETATM   17 Cl   UNK N   1      24.071  12.258   5.198  0.00  0.00    -0.081 Cl
HETATM   18  C   UNK N   1      21.239  13.362   7.894  0.00  0.00     0.136 A 
HETATM   19  C   UNK N   1      20.783  14.596   7.380  0.00  0.00     0.104 A 
HETATM   20  C   UNK N   1      21.426  15.154   6.271  0.00  0.00     0.049 A 
BRANCH  16  21
HETATM   21  O   UNK N   1      22.677  11.503   7.821  0.00  0.00    -0.351 OA
HETATM   22  C   UNK N   1      23.793  11.302   8.602  0.00  0.00     0.210 C 
ENDBRANCH  16  21
BRANCH  18  23
HETATM   23  O   UNK N   1      20.696  12.776   8.999  0.00  0.00    -0.351 OA
HETATM   24  C   UNK N   1      20.955  13.113  10.308  0.00  0.00     0.210 C 
ENDBRANCH  18  23
BRANCH  19  25
HETATM   25  O   UNK N   1      19.735  15.236   7.957  0.00  0.00    -0.353 OA
HETATM   26  C   UNK N   1      19.834  16.472   8.557  0.00  0.00     0.210 C 
ENDBRANCH  19  25
ENDBRANCH  13  14
ENDBRANCH   1  13
BRANCH  12  27
HETATM   27  C   UNK N   1      23.740  18.341   4.988  0.00  0.00     0.132 C 
BRANCH  27  28
HETATM   28  C   UNK N   1      25.003  18.532   4.156  0.00  0.00     0.020 C 
BRANCH  28  29
HETATM   29  C   UNK N   1      25.368  20.001   4.039  0.00  0.00    -0.003 C 
HETATM   30  C   UNK N   1      25.202  20.476   2.607  0.00  0.00     0.005 C 
ENDBRANCH  28  29
ENDBRANCH  27  28
ENDBRANCH  12  27
BRANCH   5  31
HETATM   31  N   UNK N   1      19.119  17.388   1.218  0.00  0.00    -0.383 N 
HETATM   32  H   UNK N   1      19.366  16.629   0.641  0.00  0.00     0.157 HD
HETATM   33  H   UNK N   1      18.157  17.579   1.302  0.00  0.00     0.157 HD
ENDBRANCH   5  31
TORSDOF 9
ENDMDL
MODEL 2
REMARK VINA RESULT:      -6.2     13.158     15.493
REMARK  9 active torsions:
REMARK  status: ('A' for Active; 'I' for Inactive)
REMARK    1  A    between atoms: O_2  and  C_3 
REMARK    2  A    between atoms: C_5  and  O_6 
REMARK    3  A    between atoms: C_8  and  O_9 
REMARK    4  A    between atoms: C_12  and  C_13 
REMARK    5  A    between atoms: C_13  and  C_14 
REMARK    6  A    between atoms: C_18  and  N_19 
REMARK    7  A    between atoms: N_26  and  C_27 
REMARK    8  A    between atoms: C_27  and  C_28 
REMARK    9  A    between atoms: C_28  and  C_29 
ROOT
HETATM    1  C   UNK N   1      35.363  15.021  11.198  0.00  0.00     0.089 A 
HETATM    2  N   UNK N   1      34.046  15.308  11.016  0.00  0.00    -0.339 N 
ATOM      3  HN  UNK N   1      33.327  15.444  11.728  1.00  0.00     0.167 HD
HETATM    4  C   UNK N   1      33.911  15.372   9.679  0.00  0.00     0.122 A 
HETATM    5  C   UNK N   1      32.802  15.694   8.917  0.00  0.00     0.131 A 
HETATM    6  C   UNK N   1      35.084  15.081   9.082  0.00  0.00     0.141 A 
HETATM    7  N   UNK N   1      35.233  15.062   7.735  0.00  0.00    -0.336 N 
ATOM      8  HN  UNK N   1      36.128  14.825   7.307  1.00  0.00     0.168 HD
HETATM    9  C   UNK N   1      34.142  15.373   6.968  0.00  0.00     0.183 A 
HETATM   10  N   UNK N   1      32.941  15.693   7.557  0.00  0.00    -0.337 N 
ATOM     11  HN  UNK N   1      32.141  15.933   6.970  1.00  0.00     0.168 HD
HETATM   12  N   UNK N   1      36.010  14.836  10.014  0.00  0.00    -0.320 N 
ENDROOT
BRANCH   1  13
HETATM   13  C   UNK N   1      36.019  14.893  12.545  0.00  0.00     0.117 C 
BRANCH  13  14
HETATM   14  C   UNK N   1      35.708  13.762  13.526  0.00  0.00    -0.024 A 
HETATM   15  C   UNK N   1      36.063  13.668  14.910  0.00  0.00     0.077 A 
HETATM   16  C   UNK N   1      35.568  12.574  15.689  0.00  0.00     0.126 A 
HETATM   17 Cl   UNK N   1      37.159  14.823  15.670  0.00  0.00    -0.081 Cl
HETATM   18  C   UNK N   1      34.820  11.554  15.079  0.00  0.00     0.136 A 
HETATM   19  C   UNK N   1      34.543  11.615  13.695  0.00  0.00     0.104 A 
HETATM   20  C   UNK N   1      34.972  12.724  12.960  0.00  0.00     0.049 A 
BRANCH  16  21
HETATM   21  O   UNK N   1      35.783  12.445  17.029  0.00  0.00    -0.351 OA
HETATM   22  C   UNK N   1      35.129  13.130  18.028  0.00  0.00     0.210 C 
ENDBRANCH  16  21
BRANCH  18  23
HETATM   23  O   UNK N   1      34.396  10.530  15.873  0.00  0.00    -0.351 OA
HETATM   24  C   UNK N   1      35.079   9.362  16.127  0.00  0.00     0.210 C 
ENDBRANCH  18  23
BRANCH  19  25
HETATM   25  O   UNK N   1      33.865  10.611  13.085  0.00  0.00    -0.353 OA
HETATM   26  C   UNK N   1      34.477   9.580  12.407  0.00  0.00     0.210 C 
ENDBRANCH  19  25
ENDBRANCH  13  14
ENDBRANCH   1  13
BRANCH  12  27
HETATM   27  C   UNK N   1      37.392  14.438   9.780  0.00  0.00     0.132 C 
BRANCH  27  28
HETATM   28  C   UNK N   1      37.469  12.918   9.684  0.00  0.00     0.020 C 
BRANCH  28  29
HETATM   29  C   UNK N   1      38.130  12.322  10.914  0.00  0.00    -0.003 C 
HETATM   30  C   UNK N   1      37.653  10.898  11.134  0.00  0.00     0.005 C 
ENDBRANCH  28  29
ENDBRANCH  27  28
ENDBRANCH  12  27
BRANCH   5  31
HETATM   31  N   UNK N   1      31.574  16.037   9.516  0.00  0.00    -0.383 N 
HETATM   32  H   UNK N   1      31.395  16.800  10.113  0.00  0.00     0.157 HD
HETATM   33  H   UNK N   1      30.811  15.449   9.316  0.00  0.00     0.157 HD
ENDBRANCH   5  31
TORSDOF 9
ENDMDL
MODEL 3
REMARK VINA RESULT:      -6.2      4.674      7.597
REMARK  9 active torsions:
REMARK  status: ('A' for Active; 'I' for Inactive)
REMARK    1  A    between atoms: O_2  and  C_3 
REMARK    2  A    between atoms: C_5  and  O_6 
REMARK    3  A    between atoms: C_8  and  O_9 
REMARK    4  A    between atoms: C_12  and  C_13 
REMARK    5  A    between atoms: C_13  and  C_14 
REMARK    6  A    between atoms: C_18  and  N_19 
REMARK    7  A    between atoms: N_26  and  C_27 
REMARK    8  A    between atoms: C_27  and  C_28 
REMARK    9  A    between atoms: C_28  and  C_29 
ROOT
HETATM    1  C   UNK N   1      27.259  17.973   4.830  0.00  0.00     0.089 A 
HETATM    2  N   UNK N   1      27.081  18.412   6.105  0.00  0.00    -0.339 N 
ATOM      3  HN  UNK N   1      26.299  18.949   6.481  1.00  0.00     0.167 HD
HETATM    4  C   UNK N   1      28.174  17.972   6.754  0.00  0.00     0.122 A 
HETATM    5  C   UNK N   1      28.504  18.068   8.094  0.00  0.00     0.131 A 
HETATM    6  C   UNK N   1      29.000  17.344   5.894  0.00  0.00     0.141 A 
HETATM    7  N   UNK N   1      30.184  16.808   6.279  0.00  0.00    -0.336 N 
ATOM      8  HN  UNK N   1      30.799  16.351   5.605  1.00  0.00     0.168 HD
HETATM    9  C   UNK N   1      30.527  16.902   7.601  0.00  0.00     0.183 A 
HETATM   10  N   UNK N   1      29.689  17.520   8.499  0.00  0.00    -0.337 N 
ATOM     11  HN  UNK N   1      29.956  17.571   9.483  1.00  0.00     0.168 HD
HETATM   12  N   UNK N   1      28.458  17.347   4.672  0.00  0.00    -0.320 N 
ENDROOT
BRANCH   1  13
HETATM   13  C   UNK N   1      26.265  18.180   3.720  0.00  0.00     0.117 C 
BRANCH  13  14
HETATM   14  C   UNK N   1      24.756  18.268   3.950  0.00  0.00    -0.024 A 
HETATM   15  C   UNK N   1      23.872  19.345   3.621  0.00  0.00     0.077 A 
HETATM   16  C   UNK N   1      22.463  19.178   3.810  0.00  0.00     0.126 A 
HETATM   17 Cl   UNK N   1      24.475  20.906   3.061  0.00  0.00    -0.081 Cl
HETATM   18  C   UNK N   1      21.963  18.005   4.398  0.00  0.00     0.136 A 
HETATM   19  C   UNK N   1      22.851  16.981   4.792  0.00  0.00     0.104 A 
HETATM   20  C   UNK N   1      24.218  17.126   4.538  0.00  0.00     0.049 A 
BRANCH  16  21
HETATM   21  O   UNK N   1      21.539  20.114   3.449  0.00  0.00    -0.351 OA
HETATM   22  C   UNK N   1      21.074  20.351   2.176  0.00  0.00     0.210 C 
ENDBRANCH  16  21
BRANCH  18  23
HETATM   23  O   UNK N   1      20.612  17.919   4.568  0.00  0.00    -0.351 OA
HETATM   24  C   UNK N   1      19.742  17.183   3.797  0.00  0.00     0.210 C 
ENDBRANCH  18  23
BRANCH  19  25
HETATM   25  O   UNK N   1      22.385  15.865   5.408  0.00  0.00    -0.353 OA
HETATM   26  C   UNK N   1      22.258  15.744   6.774  0.00  0.00     0.210 C 
ENDBRANCH  19  25
ENDBRANCH  13  14
ENDBRANCH   1  13
BRANCH  12  27
HETATM   27  C   UNK N   1      29.058  16.813   3.456  0.00  0.00     0.132 C 
BRANCH  27  28
HETATM   28  C   UNK N   1      28.689  15.340   3.318  0.00  0.00     0.020 C 
BRANCH  28  29
HETATM   29  C   UNK N   1      27.802  15.105   2.110  0.00  0.00    -0.003 C 
HETATM   30  C   UNK N   1      26.421  14.651   2.546  0.00  0.00     0.005 C 
ENDBRANCH  28  29
ENDBRANCH  27  28
ENDBRANCH  12  27
BRANCH   5  31
HETATM   31  N   UNK N   1      27.642  18.687   9.020  0.00  0.00    -0.383 N 
HETATM   32  H   UNK N   1      26.661  18.755   8.967  0.00  0.00     0.157 HD
HETATM   33  H   UNK N   1      28.067  19.097   9.807  0.00  0.00     0.157 HD
ENDBRANCH   5  31
TORSDOF 9
ENDMDL
MODEL 4
REMARK VINA RESULT:      -6.0      1.438      2.779
REMARK  9 active torsions:
REMARK  status: ('A' for Active; 'I' for Inactive)
REMARK    1  A    between atoms: O_2  and  C_3 
REMARK    2  A    between atoms: C_5  and  O_6 
REMARK    3  A    between atoms: C_8  and  O_9 
REMARK    4  A    between atoms: C_12  and  C_13 
REMARK    5  A    between atoms: C_13  and  C_14 
REMARK    6  A    between atoms: C_18  and  N_19 
REMARK    7  A    between atoms: N_26  and  C_27 
REMARK    8  A    between atoms: C_27  and  C_28 
REMARK    9  A    between atoms: C_28  and  C_29 
ROOT
HETATM    1  C   UNK N   1      22.214  16.855   4.135  0.00  0.00     0.089 A 
HETATM    2  N   UNK N   1      21.200  16.686   3.243  0.00  0.00    -0.339 N 
ATOM      3  HN  UNK N   1      20.711  15.823   3.003  1.00  0.00     0.167 HD
HETATM    4  C   UNK N   1      20.991  17.922   2.754  0.00  0.00     0.122 A 
HETATM    5  C   UNK N   1      20.036  18.367   1.858  0.00  0.00     0.131 A 
HETATM    6  C   UNK N   1      21.878  18.786   3.287  0.00  0.00     0.141 A 
HETATM    7  N   UNK N   1      21.901  20.101   2.961  0.00  0.00    -0.336 N 
ATOM      8  HN  UNK N   1      22.592  20.732   3.367  1.00  0.00     0.168 HD
HETATM    9  C   UNK N   1      20.966  20.555   2.070  0.00  0.00     0.183 A 
HETATM   10  N   UNK N   1      20.039  19.695   1.530  0.00  0.00    -0.337 N 
ATOM     11  HN  UNK N   1      19.341  20.052   0.877  1.00  0.00     0.168 HD
HETATM   12  N   UNK N   1      22.673  18.137   4.144  0.00  0.00    -0.320 N 
ENDROOT
BRANCH   1  13
HETATM   13  C   UNK N   1      22.781  15.752   4.985  0.00  0.00     0.117 C 
BRANCH  13  14
HETATM   14  C   UNK N   1      22.099  15.233   6.251  0.00  0.00    -0.024 A 
HETATM   15  C   UNK N   1      21.275  15.955   7.172  0.00  0.00     0.077 A 
HETATM   16  C   UNK N   1      20.628  15.250   8.237  0.00  0.00     0.126 A 
HETATM   17 Cl   UNK N   1      21.092  17.708   7.081  0.00  0.00    -0.081 Cl
HETATM   18  C   UNK N   1      20.876  13.882   8.431  0.00  0.00     0.136 A 
HETATM   19  C   UNK N   1      21.754  13.195   7.564  0.00  0.00     0.104 A 
HETATM   20  C   UNK N   1      22.324  13.879   6.486  0.00  0.00     0.049 A 
BRANCH  16  21
HETATM   21  O   UNK N   1      19.761  15.837   9.111  0.00  0.00    -0.351 OA
HETATM   22  C   UNK N   1      18.608  16.514   8.784  0.00  0.00     0.210 C 
ENDBRANCH  16  21
BRANCH  18  23
HETATM   23  O   UNK N   1      20.245  13.275   9.476  0.00  0.00    -0.351 OA
HETATM   24  C   UNK N   1      20.833  12.852  10.646  0.00  0.00     0.210 C 
ENDBRANCH  18  23
BRANCH  19  25
HETATM   25  O   UNK N   1      22.040  11.885   7.772  0.00  0.00    -0.353 OA
HETATM   26  C   UNK N   1      23.288  11.425   8.131  0.00  0.00     0.210 C 
ENDBRANCH  19  25
ENDBRANCH  13  14
ENDBRANCH   1  13
BRANCH  12  27
HETATM   27  C   UNK N   1      23.791  18.704   4.888  0.00  0.00     0.132 C 
BRANCH  27  28
HETATM   28  C   UNK N   1      25.045  18.661   4.022  0.00  0.00     0.020 C 
BRANCH  28  29
HETATM   29  C   UNK N   1      25.591  20.055   3.774  0.00  0.00    -0.003 C 
HETATM   30  C   UNK N   1      27.107  20.026   3.698  0.00  0.00     0.005 C 
ENDBRANCH  28  29
ENDBRANCH  27  28
ENDBRANCH  12  27
BRANCH   5  31
HETATM   31  N   UNK N   1      19.075  17.492   1.314  0.00  0.00    -0.383 N 
HETATM   32  H   UNK N   1      18.474  16.887   1.807  0.00  0.00     0.157 HD
HETATM   33  H   UNK N   1      18.995  17.485   0.333  0.00  0.00     0.157 HD
ENDBRANCH   5  31
TORSDOF 9
ENDMDL
MODEL 5
REMARK VINA RESULT:      -6.0      9.703     12.179
REMARK  9 active torsions:
REMARK  status: ('A' for Active; 'I' for Inactive)
REMARK    1  A    between atoms: O_2  and  C_3 
REMARK    2  A    between atoms: C_5  and  O_6 
REMARK    3  A    between atoms: C_8  and  O_9 
REMARK    4  A    between atoms: C_12  and  C_13 
REMARK    5  A    between atoms: C_13  and  C_14 
REMARK    6  A    between atoms: C_18  and  N_19 
REMARK    7  A    between atoms: N_26  and  C_27 
REMARK    8  A    between atoms: C_27  and  C_28 
REMARK    9  A    between atoms: C_28  and  C_29 
ROOT
HETATM    1  C   UNK N   1      34.046  16.736   6.861  0.00  0.00     0.089 A 
HETATM    2  N   UNK N   1      34.893  15.678   6.980  0.00  0.00    -0.339 N 
ATOM      3  HN  UNK N   1      35.304  15.115   6.234  1.00  0.00     0.167 HD
HETATM    4  C   UNK N   1      35.065  15.549   8.308  0.00  0.00     0.122 A 
HETATM    5  C   UNK N   1      35.876  14.678   9.013  0.00  0.00     0.131 A 
HETATM    6  C   UNK N   1      34.310  16.454   8.961  0.00  0.00     0.141 A 
HETATM    7  N   UNK N   1      34.283  16.542  10.313  0.00  0.00    -0.336 N 
ATOM      8  HN  UNK N   1      33.691  17.226  10.785  1.00  0.00     0.168 HD
HETATM    9  C   UNK N   1      35.076  15.681  11.025  0.00  0.00     0.183 A 
HETATM   10  N   UNK N   1      35.870  14.764  10.377  0.00  0.00    -0.337 N 
ATOM     11  HN  UNK N   1      36.463  14.139  10.923  1.00  0.00     0.168 HD
HETATM   12  N   UNK N   1      33.642  17.201   8.076  0.00  0.00    -0.320 N 
ENDROOT
BRANCH   1  13
HETATM   13  C   UNK N   1      33.585  17.304   5.548  0.00  0.00     0.117 C 
BRANCH  13  14
HETATM   14  C   UNK N   1      32.424  16.720   4.742  0.00  0.00    -0.024 A 
HETATM   15  C   UNK N   1      32.421  15.553   3.912  0.00  0.00     0.077 A 
HETATM   16  C   UNK N   1      31.189  15.105   3.336  0.00  0.00     0.126 A 
HETATM   17 Cl   UNK N   1      33.908  14.691   3.512  0.00  0.00    -0.081 Cl
HETATM   18  C   UNK N   1      30.015  15.856   3.507  0.00  0.00     0.136 A 
HETATM   19  C   UNK N   1      30.045  17.049   4.262  0.00  0.00     0.104 A 
HETATM   20  C   UNK N   1      31.239  17.438   4.878  0.00  0.00     0.049 A 
BRANCH  16  21
HETATM   21  O   UNK N   1      31.073  13.962   2.602  0.00  0.00    -0.351 OA
HETATM   22  C   UNK N   1      31.013  12.679   3.097  0.00  0.00     0.210 C 
ENDBRANCH  16  21
BRANCH  18  23
HETATM   23  O   UNK N   1      28.880  15.384   2.915  0.00  0.00    -0.351 OA
HETATM   24  C   UNK N   1      27.855  14.714   3.542  0.00  0.00     0.210 C 
ENDBRANCH  18  23
BRANCH  19  25
HETATM   25  O   UNK N   1      28.929  17.808   4.393  0.00  0.00    -0.353 OA
HETATM   26  C   UNK N   1      28.339  18.095   5.604  0.00  0.00     0.210 C 
ENDBRANCH  19  25
ENDBRANCH  13  14
ENDBRANCH   1  13
BRANCH  12  27
HETATM   27  C   UNK N   1      32.683  18.255   8.380  0.00  0.00     0.132 C 
BRANCH  27  28
HETATM   28  C   UNK N   1      31.297  17.643   8.545  0.00  0.00     0.020 C 
BRANCH  28  29
HETATM   29  C   UNK N   1      30.309  18.656   9.094  0.00  0.00    -0.003 C 
HETATM   30  C   UNK N   1      28.991  17.983   9.430  0.00  0.00     0.005 C 
ENDBRANCH  28  29
ENDBRANCH  27  28
ENDBRANCH  12  27
BRANCH   5  31
HETATM   31  N   UNK N   1      36.702  13.747   8.353  0.00  0.00    -0.383 N 
HETATM   32  H   UNK N   1      37.463  13.252   8.733  0.00  0.00     0.157 HD
HETATM   33  H   UNK N   1      36.495  13.573   7.406  0.00  0.00     0.157 HD
ENDBRANCH   5  31
TORSDOF 9
ENDMDL
MODEL 6
REMARK VINA RESULT:      -6.0      4.378      5.676
REMARK  9 active torsions:
REMARK  status: ('A' for Active; 'I' for Inactive)
REMARK    1  A    between atoms: O_2  and  C_3 
REMARK    2  A    between atoms: C_5  and  O_6 
REMARK    3  A    between atoms: C_8  and  O_9 
REMARK    4  A    between atoms: C_12  and  C_13 
REMARK    5  A    between atoms: C_13  and  C_14 
REMARK    6  A    between atoms: C_18  and  N_19 
REMARK    7  A    between atoms: N_26  and  C_27 
REMARK    8  A    between atoms: C_27  and  C_28 
REMARK    9  A    between atoms: C_28  and  C_29 
ROOT
HETATM    1  C   UNK N   1      23.315  17.697   4.326  0.00  0.00     0.089 A 
HETATM    2  N   UNK N   1      22.169  17.201   3.786  0.00  0.00    -0.339 N 
ATOM      3  HN  UNK N   1      21.812  16.247   3.837  1.00  0.00     0.167 HD
HETATM    4  C   UNK N   1      21.614  18.263   3.174  0.00  0.00     0.122 A 
HETATM    5  C   UNK N   1      20.405  18.369   2.511  0.00  0.00     0.131 A 
HETATM    6  C   UNK N   1      22.421  19.337   3.292  0.00  0.00     0.141 A 
HETATM    7  N   UNK N   1      22.111  20.544   2.758  0.00  0.00    -0.336 N 
ATOM      8  HN  UNK N   1      22.745  21.338   2.848  1.00  0.00     0.168 HD
HETATM    9  C   UNK N   1      20.919  20.661   2.093  0.00  0.00     0.183 A 
HETATM   10  N   UNK N   1      20.073  19.583   1.979  0.00  0.00    -0.337 N 
ATOM     11  HN  UNK N   1      19.184  19.692   1.491  1.00  0.00     0.168 HD
HETATM   12  N   UNK N   1      23.508  19.004   3.995  0.00  0.00    -0.320 N 
ENDROOT
BRANCH   1  13
HETATM   13  C   UNK N   1      24.272  16.891   5.160  0.00  0.00     0.117 C 
BRANCH  13  14
HETATM   14  C   UNK N   1      25.730  16.651   4.770  0.00  0.00    -0.024 A 
HETATM   15  C   UNK N   1      26.240  16.083   3.558  0.00  0.00     0.077 A 
HETATM   16  C   UNK N   1      27.654  16.056   3.336  0.00  0.00     0.126 A 
HETATM   17 Cl   UNK N   1      25.179  15.342   2.359  0.00  0.00    -0.081 Cl
HETATM   18  C   UNK N   1      28.534  16.497   4.337  0.00  0.00     0.136 A 
HETATM   19  C   UNK N   1      28.023  16.982   5.561  0.00  0.00     0.104 A 
HETATM   20  C   UNK N   1      26.639  17.068   5.738  0.00  0.00     0.049 A 
BRANCH  16  21
HETATM   21  O   UNK N   1      28.227  15.613   2.181  0.00  0.00    -0.351 OA
HETATM   22  C   UNK N   1      28.439  14.299   1.829  0.00  0.00     0.210 C 
ENDBRANCH  16  21
BRANCH  18  23
HETATM   23  O   UNK N   1      29.870  16.426   4.070  0.00  0.00    -0.351 OA
HETATM   24  C   UNK N   1      30.744  15.477   4.547  0.00  0.00     0.210 C 
ENDBRANCH  18  23
BRANCH  19  25
HETATM   25  O   UNK N   1      28.865  17.363   6.555  0.00  0.00    -0.353 OA
HETATM   26  C   UNK N   1      28.542  18.301   7.510  0.00  0.00     0.210 C 
ENDBRANCH  19  25
ENDBRANCH  13  14
ENDBRANCH   1  13
BRANCH  12  27
HETATM   27  C   UNK N   1      24.641  19.868   4.300  0.00  0.00     0.132 C 
BRANCH  27  28
HETATM   28  C   UNK N   1      25.606  19.868   3.119  0.00  0.00     0.020 C 
BRANCH  28  29
HETATM   29  C   UNK N   1      27.035  20.095   3.576  0.00  0.00    -0.003 C 
HETATM   30  C   UNK N   1      27.059  20.651   4.989  0.00  0.00     0.005 C 
ENDBRANCH  28  29
ENDBRANCH  27  28
ENDBRANCH  12  27
BRANCH   5  31
HETATM   31  N   UNK N   1      19.528  17.271   2.405  0.00  0.00    -0.383 N 
HETATM   32  H   UNK N   1      18.622  17.193   2.784  0.00  0.00     0.157 HD
HETATM   33  H   UNK N   1      19.857  16.496   1.895  0.00  0.00     0.157 HD
ENDBRANCH   5  31
TORSDOF 9
ENDMDL
MODEL 7
REMARK VINA RESULT:      -5.9      7.872     10.088
REMARK  9 active torsions:
REMARK  status: ('A' for Active; 'I' for Inactive)
REMARK    1  A    between atoms: O_2  and  C_3 
REMARK    2  A    between atoms: C_5  and  O_6 
REMARK    3  A    between atoms: C_8  and  O_9 
REMARK    4  A    between atoms: C_12  and  C_13 
REMARK    5  A    between atoms: C_13  and  C_14 
REMARK    6  A    between atoms: C_18  and  N_19 
REMARK    7  A    between atoms: N_26  and  C_27 
REMARK    8  A    between atoms: C_27  and  C_28 
REMARK    9  A    between atoms: C_28  and  C_29 
ROOT
HETATM    1  C   UNK N   1      28.906  17.322   5.954  0.00  0.00     0.089 A 
HETATM    2  N   UNK N   1      28.244  18.150   6.806  0.00  0.00    -0.339 N 
ATOM      3  HN  UNK N   1      28.206  18.104   7.825  1.00  0.00     0.167 HD
HETATM    4  C   UNK N   1      27.652  19.044   5.993  0.00  0.00     0.122 A 
HETATM    5  C   UNK N   1      26.897  20.160   6.307  0.00  0.00     0.131 A 
HETATM    6  C   UNK N   1      27.902  18.733   4.706  0.00  0.00     0.141 A 
HETATM    7  N   UNK N   1      27.417  19.463   3.672  0.00  0.00    -0.336 N 
ATOM      8  HN  UNK N   1      27.608  19.199   2.705  1.00  0.00     0.168 HD
HETATM    9  C   UNK N   1      26.663  20.567   3.968  0.00  0.00     0.183 A 
HETATM   10  N   UNK N   1      26.413  20.913   5.275  0.00  0.00    -0.337 N 
ATOM     11  HN  UNK N   1      25.859  21.746   5.477  1.00  0.00     0.168 HD
HETATM   12  N   UNK N   1      28.672  17.642   4.651  0.00  0.00    -0.320 N 
ENDROOT
BRANCH   1  13
HETATM   13  C   UNK N   1      29.768  16.172   6.396  0.00  0.00     0.117 C 
BRANCH  13  14
HETATM   14  C   UNK N   1      31.296  16.201   6.350  0.00  0.00    -0.024 A 
HETATM   15  C   UNK N   1      32.197  16.847   7.256  0.00  0.00     0.077 A 
HETATM   16  C   UNK N   1      33.607  16.650   7.103  0.00  0.00     0.126 A 
HETATM   17 Cl   UNK N   1      31.625  17.944   8.514  0.00  0.00    -0.081 Cl
HETATM   18  C   UNK N   1      34.103  15.908   6.019  0.00  0.00     0.136 A 
HETATM   19  C   UNK N   1      33.209  15.341   5.085  0.00  0.00     0.104 A 
HETATM   20  C   UNK N   1      31.832  15.481   5.285  0.00  0.00     0.049 A 
BRANCH  16  21
HETATM   21  O   UNK N   1      34.536  17.155   7.965  0.00  0.00    -0.351 OA
HETATM   22  C   UNK N   1      34.800  16.699   9.236  0.00  0.00     0.210 C 
ENDBRANCH  16  21
BRANCH  18  23
HETATM   23  O   UNK N   1      35.457  15.776   5.920  0.00  0.00    -0.351 OA
HETATM   24  C   UNK N   1      36.187  14.646   6.210  0.00  0.00     0.210 C 
ENDBRANCH  18  23
BRANCH  19  25
HETATM   25  O   UNK N   1      33.678  14.665   4.006  0.00  0.00    -0.353 OA
HETATM   26  C   UNK N   1      32.880  14.234   2.970  0.00  0.00     0.210 C 
ENDBRANCH  19  25
ENDBRANCH  13  14
ENDBRANCH   1  13
BRANCH  12  27
HETATM   27  C   UNK N   1      29.123  16.958   3.446  0.00  0.00     0.132 C 
BRANCH  27  28
HETATM   28  C   UNK N   1      28.070  15.941   3.020  0.00  0.00     0.020 C 
BRANCH  28  29
HETATM   29  C   UNK N   1      28.545  14.521   3.268  0.00  0.00    -0.003 C 
HETATM   30  C   UNK N   1      29.175  13.945   2.013  0.00  0.00     0.005 C 
ENDBRANCH  28  29
ENDBRANCH  27  28
ENDBRANCH  12  27
BRANCH   5  31
HETATM   31  N   UNK N   1      26.652  20.527   7.645  0.00  0.00    -0.383 N 
HETATM   32  H   UNK N   1      27.051  21.279   8.139  0.00  0.00     0.157 HD
HETATM   33  H   UNK N   1      26.009  19.969   8.141  0.00  0.00     0.157 HD
ENDBRANCH   5  31
TORSDOF 9
ENDMDL
MODEL 8
REMARK VINA RESULT:      -5.9     10.402     12.283
REMARK  9 active torsions:
REMARK  status: ('A' for Active; 'I' for Inactive)
REMARK    1  A    between atoms: O_2  and  C_3 
REMARK    2  A    between atoms: C_5  and  O_6 
REMARK    3  A    between atoms: C_8  and  O_9 
REMARK    4  A    between atoms: C_12  and  C_13 
REMARK    5  A    between atoms: C_13  and  C_14 
REMARK    6  A    between atoms: C_18  and  N_19 
REMARK    7  A    between atoms: N_26  and  C_27 
REMARK    8  A    between atoms: C_27  and  C_28 
REMARK    9  A    between atoms: C_28  and  C_29 
ROOT
HETATM    1  C   UNK N   1      32.806  17.182   6.613  0.00  0.00     0.089 A 
HETATM    2  N   UNK N   1      32.883  17.268   5.257  0.00  0.00    -0.339 N 
ATOM      3  HN  UNK N   1      33.717  17.392   4.681  1.00  0.00     0.167 HD
HETATM    4  C   UNK N   1      31.606  17.149   4.852  0.00  0.00     0.122 A 
HETATM    5  C   UNK N   1      31.085  17.100   3.572  0.00  0.00     0.131 A 
HETATM    6  C   UNK N   1      30.790  17.053   5.922  0.00  0.00     0.141 A 
HETATM    7  N   UNK N   1      29.445  16.933   5.804  0.00  0.00    -0.336 N 
ATOM      8  HN  UNK N   1      28.848  16.877   6.629  1.00  0.00     0.168 HD
HETATM    9  C   UNK N   1      28.915  16.890   4.542  0.00  0.00     0.183 A 
HETATM   10  N   UNK N   1      29.732  16.966   3.438  0.00  0.00    -0.337 N 
ATOM     11  HN  UNK N   1      29.321  16.920   2.505  1.00  0.00     0.168 HD
HETATM   12  N   UNK N   1      31.517  17.091   7.043  0.00  0.00    -0.320 N 
ENDROOT
BRANCH   1  13
HETATM   13  C   UNK N   1      33.998  17.215   7.528  0.00  0.00     0.117 C 
BRANCH  13  14
HETATM   14  C   UNK N   1      34.700  15.957   8.040  0.00  0.00    -0.024 A 
HETATM   15  C   UNK N   1      35.433  14.984   7.287  0.00  0.00     0.077 A 
HETATM   16  C   UNK N   1      36.121  13.935   7.977  0.00  0.00     0.126 A 
HETATM   17 Cl   UNK N   1      35.451  14.993   5.522  0.00  0.00    -0.081 Cl
HETATM   18  C   UNK N   1      36.000  13.809   9.371  0.00  0.00     0.136 A 
HETATM   19  C   UNK N   1      35.209  14.727  10.095  0.00  0.00     0.104 A 
HETATM   20  C   UNK N   1      34.600  15.788   9.418  0.00  0.00     0.049 A 
BRANCH  16  21
HETATM   21  O   UNK N   1      36.910  13.014   7.353  0.00  0.00    -0.351 OA
HETATM   22  C   UNK N   1      38.190  13.220   6.889  0.00  0.00     0.210 C 
ENDBRANCH  16  21
BRANCH  18  23
HETATM   23  O   UNK N   1      36.664  12.776   9.964  0.00  0.00    -0.351 OA
HETATM   24  C   UNK N   1      37.879  12.852  10.606  0.00  0.00     0.210 C 
ENDBRANCH  18  23
BRANCH  19  25
HETATM   25  O   UNK N   1      35.044  14.585  11.434  0.00  0.00    -0.353 OA
HETATM   26  C   UNK N   1      35.796  15.259  12.371  0.00  0.00     0.210 C 
ENDBRANCH  19  25
ENDBRANCH  13  14
ENDBRANCH   1  13
BRANCH  12  27
HETATM   27  C   UNK N   1      31.008  17.064   8.408  0.00  0.00     0.132 C 
BRANCH  27  28
HETATM   28  C   UNK N   1      30.714  18.489   8.864  0.00  0.00     0.020 C 
BRANCH  28  29
HETATM   29  C   UNK N   1      29.537  18.530   9.821  0.00  0.00    -0.003 C 
HETATM   30  C   UNK N   1      28.358  17.770   9.244  0.00  0.00     0.005 C 
ENDBRANCH  28  29
ENDBRANCH  27  28
ENDBRANCH  12  27
BRANCH   5  31
HETATM   31  N   UNK N   1      31.920  17.162   2.438  0.00  0.00    -0.383 N 
HETATM   32  H   UNK N   1      32.895  17.035   2.409  0.00  0.00     0.157 HD
HETATM   33  H   UNK N   1      31.477  17.353   1.580  0.00  0.00     0.157 HD
ENDBRANCH   5  31
TORSDOF 9
ENDMDL
MODEL 9
REMARK VINA RESULT:      -5.9      6.944      9.717
REMARK  9 active torsions:
REMARK  status: ('A' for Active; 'I' for Inactive)
REMARK    1  A    between atoms: O_2  and  C_3 
REMARK    2  A    between atoms: C_5  and  O_6 
REMARK    3  A    between atoms: C_8  and  O_9 
REMARK    4  A    between atoms: C_12  and  C_13 
REMARK    5  A    between atoms: C_13  and  C_14 
REMARK    6  A    between atoms: C_18  and  N_19 
REMARK    7  A    between atoms: N_26  and  C_27 
REMARK    8  A    between atoms: C_27  and  C_28 
REMARK    9  A    between atoms: C_28  and  C_29 
ROOT
HETATM    1  C   UNK N   1      30.453  16.998   5.210  0.00  0.00     0.089 A 
HETATM    2  N   UNK N   1      30.097  17.047   6.522  0.00  0.00    -0.339 N 
ATOM      3  HN  UNK N   1      29.164  16.955   6.924  1.00  0.00     0.167 HD
HETATM    4  C   UNK N   1      31.262  17.243   7.165  0.00  0.00     0.122 A 
HETATM    5  C   UNK N   1      31.522  17.310   8.522  0.00  0.00     0.131 A 
HETATM    6  C   UNK N   1      32.267  17.363   6.275  0.00  0.00     0.141 A 
HETATM    7  N   UNK N   1      33.551  17.578   6.649  0.00  0.00    -0.336 N 
ATOM      8  HN  UNK N   1      34.292  17.680   5.955  1.00  0.00     0.168 HD
HETATM    9  C   UNK N   1      33.822  17.653   7.989  0.00  0.00     0.183 A 
HETATM   10  N   UNK N   1      32.815  17.513   8.915  0.00  0.00    -0.337 N 
ATOM     11  HN  UNK N   1      33.036  17.560   9.910  1.00  0.00     0.168 HD
HETATM   12  N   UNK N   1      31.783  17.233   5.036  0.00  0.00    -0.320 N 
ENDROOT
BRANCH   1  13
HETATM   13  C   UNK N   1      29.488  16.746   4.084  0.00  0.00     0.117 C 
BRANCH  13  14
HETATM   14  C   UNK N   1      28.113  17.408   3.992  0.00  0.00    -0.024 A 
HETATM   15  C   UNK N   1      26.870  16.816   3.598  0.00  0.00     0.077 A 
HETATM   16  C   UNK N   1      25.666  17.583   3.696  0.00  0.00     0.126 A 
HETATM   17 Cl   UNK N   1      26.788  15.189   2.919  0.00  0.00    -0.081 Cl
HETATM   18  C   UNK N   1      25.716  18.931   4.086  0.00  0.00     0.136 A 
HETATM   19  C   UNK N   1      26.958  19.529   4.396  0.00  0.00     0.104 A 
HETATM   20  C   UNK N   1      28.118  18.750   4.365  0.00  0.00     0.049 A 
BRANCH  16  21
HETATM   21  O   UNK N   1      24.428  17.079   3.424  0.00  0.00    -0.351 OA
HETATM   22  C   UNK N   1      23.663  16.300   4.262  0.00  0.00     0.210 C 
ENDBRANCH  16  21
BRANCH  18  23
HETATM   23  O   UNK N   1      24.535  19.610   4.139  0.00  0.00    -0.351 OA
HETATM   24  C   UNK N   1      24.016  20.417   3.152  0.00  0.00     0.210 C 
ENDBRANCH  18  23
BRANCH  19  25
HETATM   25  O   UNK N   1      27.025  20.843   4.725  0.00  0.00    -0.353 OA
HETATM   26  C   UNK N   1      27.262  21.298   6.003  0.00  0.00     0.210 C 
ENDBRANCH  19  25
ENDBRANCH  13  14
ENDBRANCH   1  13
BRANCH  12  27
HETATM   27  C   UNK N   1      32.537  17.348   3.794  0.00  0.00     0.132 C 
BRANCH  27  28
HETATM   28  C   UNK N   1      33.360  16.082   3.585  0.00  0.00     0.020 C 
BRANCH  28  29
HETATM   29  C   UNK N   1      32.524  14.978   2.962  0.00  0.00    -0.003 C 
HETATM   30  C   UNK N   1      32.324  13.843   3.949  0.00  0.00     0.005 C 
ENDBRANCH  28  29
ENDBRANCH  27  28
ENDBRANCH  12  27
BRANCH   5  31
HETATM   31  N   UNK N   1      30.495  17.152   9.474  0.00  0.00    -0.383 N 
HETATM   32  H   UNK N   1      30.583  16.810  10.393  0.00  0.00     0.157 HD
HETATM   33  H   UNK N   1      29.590  17.413   9.189  0.00  0.00     0.157 HD
ENDBRANCH   5  31
TORSDOF 9
ENDMDL
