REMARK  9 active torsions:
REMARK  status: ('A' for Active; 'I' for Inactive)
REMARK    1  A    between atoms: O_2  and  C_3 
REMARK    2  A    between atoms: C_5  and  O_6 
REMARK    3  A    between atoms: C_8  and  O_9 
REMARK    4  A    between atoms: C_12  and  C_13 
REMARK    5  A    between atoms: C_13  and  C_14 
REMARK    6  A    between atoms: C_18  and  N_19 
REMARK    7  A    between atoms: N_26  and  C_27 
REMARK    8  A    between atoms: C_27  and  C_28 
REMARK    9  A    between atoms: C_28  and  C_29 
ROOT
HETATM    1  C   UNK N   1       0.808  -0.874  -0.263  0.00  0.00     0.089 A 
HETATM    2  N   UNK N   1       1.583   0.104  -0.805  0.00  0.00    -0.339 N 
ATOM      3  HN  UNK N   1       1.282   0.930  -1.323  1.00  0.00     0.167 HD
HETATM    4  C   UNK N   1       2.838  -0.270  -0.497  0.00  0.00     0.122 A 
HETATM    5  C   UNK N   1       4.037   0.377  -0.736  0.00  0.00     0.131 A 
HETATM    6  C   UNK N   1       2.821  -1.451   0.153  0.00  0.00     0.141 A 
HETATM    7  N   UNK N   1       3.952  -2.068   0.574  0.00  0.00    -0.336 N 
ATOM      8  HN  UNK N   1       3.914  -2.969   1.051  1.00  0.00     0.168 HD
HETATM    9  C   UNK N   1       5.147  -1.442   0.338  0.00  0.00     0.183 A 
HETATM   10  N   UNK N   1       5.185  -0.227  -0.305  0.00  0.00    -0.337 N 
ATOM     11  HN  UNK N   1       6.083   0.231  -0.462  1.00  0.00     0.168 HD
HETATM   12  N   UNK N   1       1.558  -1.864   0.296  0.00  0.00    -0.320 N 
ENDROOT
BRANCH   1  13
HETATM   13  C   UNK N   1      -0.695  -0.878  -0.304  0.00  0.00     0.117 C 
BRANCH  13  14
HETATM   14  C   UNK N   1      -1.545   0.369  -0.060  0.00  0.00    -0.024 A 
HETATM   15  C   UNK N   1      -1.113   1.664   0.373  0.00  0.00     0.077 A 
HETATM   16  C   UNK N   1      -2.058   2.738   0.424  0.00  0.00     0.126 A 
HETATM   17 Cl   UNK N   1       0.538   1.959   0.922  0.00  0.00    -0.081 Cl
HETATM   18  C   UNK N   1      -3.413   2.501   0.142  0.00  0.00     0.136 A 
HETATM   19  C   UNK N   1      -3.843   1.202  -0.207  0.00  0.00     0.104 A 
HETATM   20  C   UNK N   1      -2.899   0.177  -0.322  0.00  0.00     0.049 A 
BRANCH  16  21
HETATM   21  O   UNK N   1      -1.723   4.021   0.743  0.00  0.00    -0.351 OA
HETATM   22  C   UNK N   1      -0.494   4.612   0.557  0.00  0.00     0.210 C 
ENDBRANCH  16  21
BRANCH  18  23
HETATM   23  O   UNK N   1      -4.264   3.563   0.229  0.00  0.00    -0.351 OA
HETATM   24  C   UNK N   1      -5.612   3.549  -0.047  0.00  0.00     0.210 C 
ENDBRANCH  18  23
BRANCH  19  25
HETATM   25  O   UNK N   1      -5.157   0.950  -0.432  0.00  0.00    -0.353 OA
HETATM   26  C   UNK N   1      -5.661  -0.308  -0.677  0.00  0.00     0.210 C 
ENDBRANCH  19  25
ENDBRANCH  13  14
ENDBRANCH   1  13
BRANCH  12  27
HETATM   27  C   UNK N   1       1.118  -3.115   0.900  0.00  0.00     0.132 C 
BRANCH  27  28
HETATM   28  C   UNK N   1       0.564  -4.031  -0.186  0.00  0.00     0.020 C 
BRANCH  28  29
HETATM   29  C   UNK N   1       0.444  -5.461   0.308  0.00  0.00    -0.003 C 
HETATM   30  C   UNK N   1       1.792  -6.156   0.253  0.00  0.00     0.005 C 
ENDBRANCH  28  29
ENDBRANCH  27  28
ENDBRANCH  12  27
BRANCH   5  31
HETATM   31  N   UNK N   1       4.079   1.629  -1.381  0.00  0.00    -0.383 N 
HETATM   32  H   UNK N   1       4.851   2.041  -1.832  0.00  0.00     0.157 HD
HETATM   33  H   UNK N   1       3.243   2.149  -1.381  0.00  0.00     0.157 HD
ENDBRANCH   5  31
TORSDOF 9
