MODEL 1
REMARK VINA RESULT:      -7.6      0.000      0.000
REMARK  6 active torsions:
REMARK  status: ('A' for Active; 'I' for Inactive)
REMARK    1  A    between atoms: C_2  and  C_3 
REMARK    2  A    between atoms: C_3  and  C_4 
REMARK    3  A    between atoms: C_4  and  N_5 
REMARK    4  A    between atoms: C_13  and  N_14 
REMARK    5  A    between atoms: C_17  and  C_18 
REMARK    6  A    between atoms: C_18  and  C_19 
ROOT
HETATM    1  N   UNK N   1      30.016  17.415   5.161  0.00  0.00    -0.320 N 
HETATM    2  C   UNK N   1      29.035  18.330   5.138  0.00  0.00     0.143 A 
HETATM    3  N   UNK N   1      28.478  18.922   4.057  0.00  0.00    -0.302 N 
ATOM      4  HN  UNK N   1      28.806  18.710   3.115  1.00  0.00     0.171 HD
HETATM    5  C   UNK N   1      27.462  19.816   4.264  0.00  0.00     0.269 A 
HETATM    6  N   UNK N   1      27.030  20.094   5.541  0.00  0.00    -0.303 N 
ATOM      7  HN  UNK N   1      26.272  20.762   5.680  1.00  0.00     0.171 HD
HETATM    8  C   UNK N   1      28.627  18.586   6.398  0.00  0.00     0.122 A 
HETATM    9  C   UNK N   1      27.602  19.490   6.624  0.00  0.00     0.133 A 
HETATM   10  N   UNK N   1      29.326  17.843   7.270  0.00  0.00    -0.339 N 
ATOM     11  HN  UNK N   1      29.243  17.825   8.287  1.00  0.00     0.167 HD
HETATM   12  C   UNK N   1      30.172  17.116   6.488  0.00  0.00     0.089 A 
HETATM   13  F   UNK N   1      26.869  20.419   3.207  0.00  0.00    -0.165 F 
ENDROOT
BRANCH  12  14
HETATM   14  C   UNK N   1      31.081  16.079   7.109  0.00  0.00     0.115 C 
BRANCH  14  15
HETATM   15  C   UNK N   1      32.283  16.525   7.877  0.00  0.00    -0.048 A 
HETATM   16  C   UNK N   1      32.779  15.707   8.910  0.00  0.00     0.047 A 
HETATM   17  C   UNK N   1      33.930  16.126   9.571  0.00  0.00     0.105 A 
HETATM   18  O   UNK N   1      34.583  15.520  10.561  0.00  0.00    -0.323 OA
HETATM   19  C   UNK N   1      34.558  17.266   9.262  0.00  0.00     0.105 A 
HETATM   20  C   UNK N   1      35.680  16.312  10.916  0.00  0.00     0.352 A 
HETATM   21  O   UNK N   1      35.614  17.416  10.059  0.00  0.00    -0.323 OA
HETATM   22  C   UNK N   1      34.122  18.104   8.240  0.00  0.00     0.040 A 
HETATM   23  C   UNK N   1      32.978  17.709   7.522  0.00  0.00     0.010 A 
ENDBRANCH  14  15
ENDBRANCH  12  14
BRANCH   1  24
HETATM   24  C   UNK N   1      30.686  16.859   3.990  0.00  0.00     0.132 C 
BRANCH  24  25
HETATM   25  C   UNK N   1      32.075  17.445   3.790  0.00  0.00     0.020 C 
BRANCH  25  26
HETATM   26  C   UNK N   1      33.034  16.364   3.313  0.00  0.00    -0.003 C 
HETATM   27  C   UNK N   1      33.757  15.716   4.483  0.00  0.00     0.005 C 
ENDBRANCH  25  26
ENDBRANCH  24  25
ENDBRANCH   1  24
BRANCH   9  28
HETATM   28  N   UNK N   1      27.144  19.767   7.928  0.00  0.00    -0.383 N 
HETATM   29  H   UNK N   1      26.899  19.029   8.532  0.00  0.00     0.157 HD
HETATM   30  H   UNK N   1      27.070  20.699   8.235  0.00  0.00     0.157 HD
ENDBRANCH   9  28
TORSDOF 6
ENDMDL
MODEL 2
REMARK VINA RESULT:      -7.0      2.277      3.709
REMARK  6 active torsions:
REMARK  status: ('A' for Active; 'I' for Inactive)
REMARK    1  A    between atoms: C_2  and  C_3 
REMARK    2  A    between atoms: C_3  and  C_4 
REMARK    3  A    between atoms: C_4  and  N_5 
REMARK    4  A    between atoms: C_13  and  N_14 
REMARK    5  A    between atoms: C_17  and  C_18 
REMARK    6  A    between atoms: C_18  and  C_19 
ROOT
HETATM    1  N   UNK N   1      28.497  17.868   6.428  0.00  0.00    -0.320 N 
HETATM    2  C   UNK N   1      27.757  18.976   6.279  0.00  0.00     0.143 A 
HETATM    3  N   UNK N   1      27.253  19.775   7.247  0.00  0.00    -0.302 N 
ATOM      4  HN  UNK N   1      27.397  19.559   8.233  1.00  0.00     0.171 HD
HETATM    5  C   UNK N   1      26.543  20.882   6.865  0.00  0.00     0.269 A 
HETATM    6  N   UNK N   1      26.354  21.160   5.531  0.00  0.00    -0.303 N 
ATOM      7  HN  UNK N   1      25.823  21.988   5.261  1.00  0.00     0.171 HD
HETATM    8  C   UNK N   1      27.587  19.232   4.965  0.00  0.00     0.122 A 
HETATM    9  C   UNK N   1      26.868  20.345   4.563  0.00  0.00     0.133 A 
HETATM   10  N   UNK N   1      28.213  18.300   4.228  0.00  0.00    -0.339 N 
ATOM     11  HN  UNK N   1      28.256  18.229   3.211  1.00  0.00     0.167 HD
HETATM   12  C   UNK N   1      28.780  17.472   5.148  0.00  0.00     0.089 A 
HETATM   13  F   UNK N   1      26.034  21.713   7.805  0.00  0.00    -0.165 F 
ENDROOT
BRANCH  12  14
HETATM   14  C   UNK N   1      29.659  16.325   4.701  0.00  0.00     0.115 C 
BRANCH  14  15
HETATM   15  C   UNK N   1      31.123  16.364   4.999  0.00  0.00    -0.048 A 
HETATM   16  C   UNK N   1      31.736  15.237   5.577  0.00  0.00     0.047 A 
HETATM   17  C   UNK N   1      33.110  15.287   5.794  0.00  0.00     0.105 A 
HETATM   18  O   UNK N   1      33.900  14.348   6.312  0.00  0.00    -0.323 OA
HETATM   19  C   UNK N   1      33.845  16.360   5.482  0.00  0.00     0.105 A 
HETATM   20  C   UNK N   1      35.209  14.843   6.344  0.00  0.00     0.352 A 
HETATM   21  O   UNK N   1      35.115  16.131   5.807  0.00  0.00    -0.323 OA
HETATM   22  C   UNK N   1      33.295  17.494   4.893  0.00  0.00     0.040 A 
HETATM   23  C   UNK N   1      31.913  17.482   4.627  0.00  0.00     0.010 A 
ENDBRANCH  14  15
ENDBRANCH  12  14
BRANCH   1  24
HETATM   24  C   UNK N   1      28.921  17.295   7.702  0.00  0.00     0.132 C 
BRANCH  24  25
HETATM   25  C   UNK N   1      30.030  18.106   8.355  0.00  0.00     0.020 C 
BRANCH  25  26
HETATM   26  C   UNK N   1      31.231  17.215   8.637  0.00  0.00    -0.003 C 
HETATM   27  C   UNK N   1      32.535  17.968   8.428  0.00  0.00     0.005 C 
ENDBRANCH  25  26
ENDBRANCH  24  25
ENDBRANCH   1  24
BRANCH   9  28
HETATM   28  N   UNK N   1      26.685  20.645   3.197  0.00  0.00    -0.383 N 
HETATM   29  H   UNK N   1      26.743  19.929   2.524  0.00  0.00     0.157 HD
HETATM   30  H   UNK N   1      26.500  21.570   2.918  0.00  0.00     0.157 HD
ENDBRANCH   9  28
TORSDOF 6
ENDMDL
MODEL 3
REMARK VINA RESULT:      -6.7      5.880      9.174
REMARK  6 active torsions:
REMARK  status: ('A' for Active; 'I' for Inactive)
REMARK    1  A    between atoms: C_2  and  C_3 
REMARK    2  A    between atoms: C_3  and  C_4 
REMARK    3  A    between atoms: C_4  and  N_5 
REMARK    4  A    between atoms: C_13  and  N_14 
REMARK    5  A    between atoms: C_17  and  C_18 
REMARK    6  A    between atoms: C_18  and  C_19 
ROOT
HETATM    1  N   UNK N   1      27.822  18.087   4.938  0.00  0.00    -0.320 N 
HETATM    2  C   UNK N   1      28.897  17.534   4.357  0.00  0.00     0.143 A 
HETATM    3  N   UNK N   1      30.197  17.864   4.530  0.00  0.00    -0.302 N 
ATOM      4  HN  UNK N   1      30.466  18.630   5.148  1.00  0.00     0.171 HD
HETATM    5  C   UNK N   1      31.141  17.143   3.851  0.00  0.00     0.269 A 
HETATM    6  N   UNK N   1      30.764  16.113   3.019  0.00  0.00    -0.303 N 
ATOM      7  HN  UNK N   1      31.479  15.584   2.519  1.00  0.00     0.171 HD
HETATM    8  C   UNK N   1      28.504  16.527   3.549  0.00  0.00     0.122 A 
HETATM    9  C   UNK N   1      29.448  15.790   2.852  0.00  0.00     0.133 A 
HETATM   10  N   UNK N   1      27.168  16.398   3.587  0.00  0.00    -0.339 N 
ATOM     11  HN  UNK N   1      26.588  15.730   3.079  1.00  0.00     0.167 HD
HETATM   12  C   UNK N   1      26.764  17.362   4.459  0.00  0.00     0.089 A 
HETATM   13  F   UNK N   1      32.454  17.434   4.008  0.00  0.00    -0.165 F 
ENDROOT
BRANCH  12  14
HETATM   14  C   UNK N   1      25.305  17.482   4.839  0.00  0.00     0.115 C 
BRANCH  14  15
HETATM   15  C   UNK N   1      24.450  18.496   4.150  0.00  0.00    -0.048 A 
HETATM   16  C   UNK N   1      23.050  18.402   4.262  0.00  0.00     0.047 A 
HETATM   17  C   UNK N   1      22.284  19.392   3.653  0.00  0.00     0.105 A 
HETATM   18  O   UNK N   1      20.958  19.517   3.632  0.00  0.00    -0.323 OA
HETATM   19  C   UNK N   1      22.833  20.403   2.971  0.00  0.00     0.105 A 
HETATM   20  C   UNK N   1      20.635  20.660   2.894  0.00  0.00     0.352 A 
HETATM   21  O   UNK N   1      21.868  21.185   2.492  0.00  0.00    -0.323 OA
HETATM   22  C   UNK N   1      24.210  20.555   2.844  0.00  0.00     0.040 A 
HETATM   23  C   UNK N   1      25.029  19.595   3.467  0.00  0.00     0.010 A 
ENDBRANCH  14  15
ENDBRANCH  12  14
BRANCH   1  24
HETATM   24  C   UNK N   1      27.849  19.180   5.905  0.00  0.00     0.132 C 
BRANCH  24  25
HETATM   25  C   UNK N   1      27.934  20.541   5.230  0.00  0.00     0.020 C 
BRANCH  25  26
HETATM   26  C   UNK N   1      27.082  21.552   5.985  0.00  0.00    -0.003 C 
HETATM   27  C   UNK N   1      26.365  20.900   7.157  0.00  0.00     0.005 C 
ENDBRANCH  25  26
ENDBRANCH  24  25
ENDBRANCH   1  24
BRANCH   9  28
HETATM   28  N   UNK N   1      29.069  14.724   2.011  0.00  0.00    -0.383 N 
HETATM   29  H   UNK N   1      28.610  13.938   2.387  0.00  0.00     0.157 HD
HETATM   30  H   UNK N   1      29.264  14.765   1.047  0.00  0.00     0.157 HD
ENDBRANCH   9  28
TORSDOF 6
ENDMDL
MODEL 4
REMARK VINA RESULT:      -6.6      6.990     10.033
REMARK  6 active torsions:
REMARK  status: ('A' for Active; 'I' for Inactive)
REMARK    1  A    between atoms: C_2  and  C_3 
REMARK    2  A    between atoms: C_3  and  C_4 
REMARK    3  A    between atoms: C_4  and  N_5 
REMARK    4  A    between atoms: C_13  and  N_14 
REMARK    5  A    between atoms: C_17  and  C_18 
REMARK    6  A    between atoms: C_18  and  C_19 
ROOT
HETATM    1  N   UNK N   1      35.640  12.478  11.912  0.00  0.00    -0.320 N 
HETATM    2  C   UNK N   1      35.006  13.370  11.137  0.00  0.00     0.143 A 
HETATM    3  N   UNK N   1      34.108  13.128  10.155  0.00  0.00    -0.302 N 
ATOM      4  HN  UNK N   1      33.848  12.174   9.905  1.00  0.00     0.171 HD
HETATM    5  C   UNK N   1      33.559  14.201   9.504  0.00  0.00     0.269 A 
HETATM    6  N   UNK N   1      33.921  15.483   9.850  0.00  0.00    -0.303 N 
ATOM      7  HN  UNK N   1      33.503  16.272   9.357  1.00  0.00     0.171 HD
HETATM    8  C   UNK N   1      35.372  14.619  11.495  0.00  0.00     0.122 A 
HETATM    9  C   UNK N   1      34.828  15.714  10.844  0.00  0.00     0.133 A 
HETATM   10  N   UNK N   1      36.248  14.570  12.511  0.00  0.00    -0.339 N 
ATOM     11  HN  UNK N   1      36.702  15.351  12.986  1.00  0.00     0.167 HD
HETATM   12  C   UNK N   1      36.393  13.240  12.764  0.00  0.00     0.089 A 
HETATM   13  F   UNK N   1      32.647  14.000   8.525  0.00  0.00    -0.165 F 
ENDROOT
BRANCH  12  14
HETATM   14  C   UNK N   1      37.252  12.773  13.919  0.00  0.00     0.115 C 
BRANCH  14  15
HETATM   15  C   UNK N   1      36.600  12.388  15.207  0.00  0.00    -0.048 A 
HETATM   16  C   UNK N   1      36.850  11.113  15.748  0.00  0.00     0.047 A 
HETATM   17  C   UNK N   1      36.269  10.805  16.975  0.00  0.00     0.105 A 
HETATM   18  O   UNK N   1      36.370   9.679  17.678  0.00  0.00    -0.323 OA
HETATM   19  C   UNK N   1      35.489  11.668  17.634  0.00  0.00     0.105 A 
HETATM   20  C   UNK N   1      35.611   9.818  18.845  0.00  0.00     0.352 A 
HETATM   21  O   UNK N   1      35.067  11.105  18.764  0.00  0.00    -0.323 OA
HETATM   22  C   UNK N   1      35.223  12.948  17.156  0.00  0.00     0.040 A 
HETATM   23  C   UNK N   1      35.811  13.318  15.932  0.00  0.00     0.010 A 
ENDBRANCH  14  15
ENDBRANCH  12  14
BRANCH   1  24
HETATM   24  C   UNK N   1      35.473  11.029  11.848  0.00  0.00     0.132 C 
BRANCH  24  25
HETATM   25  C   UNK N   1      34.100  10.588  12.332  0.00  0.00     0.020 C 
BRANCH  25  26
HETATM   26  C   UNK N   1      34.201  10.020  13.741  0.00  0.00    -0.003 C 
HETATM   27  C   UNK N   1      33.349  10.817  14.716  0.00  0.00     0.005 C 
ENDBRANCH  25  26
ENDBRANCH  24  25
ENDBRANCH   1  24
BRANCH   9  28
HETATM   28  N   UNK N   1      35.182  17.030  11.204  0.00  0.00    -0.383 N 
HETATM   29  H   UNK N   1      34.706  17.485  11.936  0.00  0.00     0.157 HD
HETATM   30  H   UNK N   1      35.905  17.494  10.724  0.00  0.00     0.157 HD
ENDBRANCH   9  28
TORSDOF 6
ENDMDL
MODEL 5
REMARK VINA RESULT:      -6.5     14.228     15.965
REMARK  6 active torsions:
REMARK  status: ('A' for Active; 'I' for Inactive)
REMARK    1  A    between atoms: C_2  and  C_3 
REMARK    2  A    between atoms: C_3  and  C_4 
REMARK    3  A    between atoms: C_4  and  N_5 
REMARK    4  A    between atoms: C_13  and  N_14 
REMARK    5  A    between atoms: C_17  and  C_18 
REMARK    6  A    between atoms: C_18  and  C_19 
ROOT
HETATM    1  N   UNK N   1      27.675  23.544  -5.756  0.00  0.00    -0.320 N 
HETATM    2  C   UNK N   1      27.290  22.682  -6.708  0.00  0.00     0.143 A 
HETATM    3  N   UNK N   1      28.073  21.904  -7.490  0.00  0.00    -0.302 N 
ATOM      4  HN  UNK N   1      29.089  21.939  -7.415  1.00  0.00     0.171 HD
HETATM    5  C   UNK N   1      27.462  21.069  -8.387  0.00  0.00     0.269 A 
HETATM    6  N   UNK N   1      26.089  21.034  -8.480  0.00  0.00    -0.303 N 
ATOM      7  HN  UNK N   1      25.648  20.407  -9.153  1.00  0.00     0.171 HD
HETATM    8  C   UNK N   1      25.943  22.661  -6.780  0.00  0.00     0.122 A 
HETATM    9  C   UNK N   1      25.310  21.825  -7.685  0.00  0.00     0.133 A 
HETATM   10  N   UNK N   1      25.419  23.504  -5.876  0.00  0.00    -0.339 N 
ATOM     11  HN  UNK N   1      24.434  23.703  -5.701  1.00  0.00     0.167 HD
HETATM   12  C   UNK N   1      26.503  24.032  -5.243  0.00  0.00     0.089 A 
HETATM   13  F   UNK N   1      28.211  20.266  -9.178  0.00  0.00    -0.165 F 
ENDROOT
BRANCH  12  14
HETATM   14  C   UNK N   1      26.319  24.980  -4.079  0.00  0.00     0.115 C 
BRANCH  14  15
HETATM   15  C   UNK N   1      26.447  26.452  -4.305  0.00  0.00    -0.048 A 
HETATM   16  C   UNK N   1      26.477  27.316  -3.195  0.00  0.00     0.047 A 
HETATM   17  C   UNK N   1      26.649  28.675  -3.437  0.00  0.00     0.105 A 
HETATM   18  O   UNK N   1      26.719  29.671  -2.555  0.00  0.00    -0.323 OA
HETATM   19  C   UNK N   1      26.774  29.171  -4.673  0.00  0.00     0.105 A 
HETATM   20  C   UNK N   1      26.889  30.870  -3.256  0.00  0.00     0.352 A 
HETATM   21  O   UNK N   1      26.913  30.493  -4.604  0.00  0.00    -0.323 OA
HETATM   22  C   UNK N   1      26.770  28.362  -5.805  0.00  0.00     0.040 A 
HETATM   23  C   UNK N   1      26.627  26.976  -5.610  0.00  0.00     0.010 A 
ENDBRANCH  14  15
ENDBRANCH  12  14
BRANCH   1  24
HETATM   24  C   UNK N   1      29.055  23.812  -5.361  0.00  0.00     0.132 C 
BRANCH  24  25
HETATM   25  C   UNK N   1      29.656  24.978  -6.130  0.00  0.00     0.020 C 
BRANCH  25  26
HETATM   26  C   UNK N   1      30.153  26.041  -5.161  0.00  0.00    -0.003 C 
HETATM   27  C   UNK N   1      30.098  25.544  -3.725  0.00  0.00     0.005 C 
ENDBRANCH  25  26
ENDBRANCH  24  25
ENDBRANCH   1  24
BRANCH   9  28
HETATM   28  N   UNK N   1      23.904  21.772  -7.773  0.00  0.00    -0.383 N 
HETATM   29  H   UNK N   1      23.447  22.120  -8.573  0.00  0.00     0.157 HD
HETATM   30  H   UNK N   1      23.379  21.388  -7.035  0.00  0.00     0.157 HD
ENDBRANCH   9  28
TORSDOF 6
ENDMDL
MODEL 6
REMARK VINA RESULT:      -6.5      2.191      3.066
REMARK  6 active torsions:
REMARK  status: ('A' for Active; 'I' for Inactive)
REMARK    1  A    between atoms: C_2  and  C_3 
REMARK    2  A    between atoms: C_3  and  C_4 
REMARK    3  A    between atoms: C_4  and  N_5 
REMARK    4  A    between atoms: C_13  and  N_14 
REMARK    5  A    between atoms: C_17  and  C_18 
REMARK    6  A    between atoms: C_18  and  C_19 
ROOT
HETATM    1  N   UNK N   1      27.276  17.011   4.648  0.00  0.00    -0.320 N 
HETATM    2  C   UNK N   1      26.582  18.146   4.484  0.00  0.00     0.143 A 
HETATM    3  N   UNK N   1      25.479  18.343   3.726  0.00  0.00    -0.302 N 
ATOM      4  HN  UNK N   1      25.083  17.586   3.169  1.00  0.00     0.171 HD
HETATM    5  C   UNK N   1      24.911  19.589   3.725  0.00  0.00     0.269 A 
HETATM    6  N   UNK N   1      25.457  20.602   4.480  0.00  0.00    -0.303 N 
ATOM      7  HN  UNK N   1      25.023  21.525   4.470  1.00  0.00     0.171 HD
HETATM    8  C   UNK N   1      27.132  19.124   5.233  0.00  0.00     0.122 A 
HETATM    9  C   UNK N   1      26.571  20.390   5.241  0.00  0.00     0.133 A 
HETATM   10  N   UNK N   1      28.193  18.650   5.905  0.00  0.00    -0.339 N 
ATOM     11  HN  UNK N   1      28.809  19.155   6.543  1.00  0.00     0.167 HD
HETATM   12  C   UNK N   1      28.261  17.339   5.541  0.00  0.00     0.089 A 
HETATM   13  F   UNK N   1      23.798  19.822   2.990  0.00  0.00    -0.165 F 
ENDROOT
BRANCH  12  14
HETATM   14  C   UNK N   1      29.294  16.427   6.165  0.00  0.00     0.115 C 
BRANCH  14  15
HETATM   15  C   UNK N   1      30.713  16.887   6.261  0.00  0.00    -0.048 A 
HETATM   16  C   UNK N   1      31.258  17.172   7.527  0.00  0.00     0.047 A 
HETATM   17  C   UNK N   1      32.597  17.546   7.586  0.00  0.00     0.105 A 
HETATM   18  O   UNK N   1      33.325  17.850   8.659  0.00  0.00    -0.323 OA
HETATM   19  C   UNK N   1      33.360  17.649   6.492  0.00  0.00     0.105 A 
HETATM   20  C   UNK N   1      34.619  18.174   8.237  0.00  0.00     0.352 A 
HETATM   21  O   UNK N   1      34.584  18.033   6.846  0.00  0.00    -0.323 OA
HETATM   22  C   UNK N   1      32.879  17.363   5.218  0.00  0.00     0.040 A 
HETATM   23  C   UNK N   1      31.538  16.951   5.109  0.00  0.00     0.010 A 
ENDBRANCH  14  15
ENDBRANCH  12  14
BRANCH   1  24
HETATM   24  C   UNK N   1      26.962  15.727   4.028  0.00  0.00     0.132 C 
BRANCH  24  25
HETATM   25  C   UNK N   1      27.451  15.649   2.590  0.00  0.00     0.020 C 
BRANCH  25  26
HETATM   26  C   UNK N   1      28.969  15.540   2.559  0.00  0.00    -0.003 C 
HETATM   27  C   UNK N   1      29.437  14.226   3.165  0.00  0.00     0.005 C 
ENDBRANCH  25  26
ENDBRANCH  24  25
ENDBRANCH   1  24
BRANCH   9  28
HETATM   28  N   UNK N   1      27.116  21.428   6.024  0.00  0.00    -0.383 N 
HETATM   29  H   UNK N   1      28.090  21.566   6.049  0.00  0.00     0.157 HD
HETATM   30  H   UNK N   1      26.522  22.015   6.545  0.00  0.00     0.157 HD
ENDBRANCH   9  28
TORSDOF 6
ENDMDL
MODEL 7
REMARK VINA RESULT:      -6.5      5.508      8.033
REMARK  6 active torsions:
REMARK  status: ('A' for Active; 'I' for Inactive)
REMARK    1  A    between atoms: C_2  and  C_3 
REMARK    2  A    between atoms: C_3  and  C_4 
REMARK    3  A    between atoms: C_4  and  N_5 
REMARK    4  A    between atoms: C_13  and  N_14 
REMARK    5  A    between atoms: C_17  and  C_18 
REMARK    6  A    between atoms: C_18  and  C_19 
ROOT
HETATM    1  N   UNK N   1      23.445  19.245   3.849  0.00  0.00    -0.320 N 
HETATM    2  C   UNK N   1      22.310  19.496   3.181  0.00  0.00     0.143 A 
HETATM    3  N   UNK N   1      21.955  20.635   2.544  0.00  0.00    -0.302 N 
ATOM      4  HN  UNK N   1      22.568  21.450   2.548  1.00  0.00     0.171 HD
HETATM    5  C   UNK N   1      20.750  20.664   1.896  0.00  0.00     0.269 A 
HETATM    6  N   UNK N   1      19.932  19.557   1.901  0.00  0.00    -0.303 N 
ATOM      7  HN  UNK N   1      19.036  19.593   1.414  1.00  0.00     0.171 HD
HETATM    8  C   UNK N   1      21.525  18.398   3.196  0.00  0.00     0.122 A 
HETATM    9  C   UNK N   1      20.301  18.412   2.548  0.00  0.00     0.133 A 
HETATM   10  N   UNK N   1      22.130  17.407   3.870  0.00  0.00    -0.339 N 
ATOM     11  HN  UNK N   1      21.779  16.466   4.051  1.00  0.00     0.167 HD
HETATM   12  C   UNK N   1      23.321  17.943   4.256  0.00  0.00     0.089 A 
HETATM   13  F   UNK N   1      20.365  21.781   1.236  0.00  0.00    -0.165 F 
ENDROOT
BRANCH  12  14
HETATM   14  C   UNK N   1      24.340  17.092   4.981  0.00  0.00     0.115 C 
BRANCH  14  15
HETATM   15  C   UNK N   1      25.569  16.646   4.256  0.00  0.00    -0.048 A 
HETATM   16  C   UNK N   1      26.813  16.708   4.913  0.00  0.00     0.047 A 
HETATM   17  C   UNK N   1      27.929  16.236   4.229  0.00  0.00     0.105 A 
HETATM   18  O   UNK N   1      29.193  16.184   4.646  0.00  0.00    -0.323 OA
HETATM   19  C   UNK N   1      27.854  15.746   2.987  0.00  0.00     0.105 A 
HETATM   20  C   UNK N   1      29.974  15.641   3.620  0.00  0.00     0.352 A 
HETATM   21  O   UNK N   1      29.069  15.384   2.583  0.00  0.00    -0.323 OA
HETATM   22  C   UNK N   1      26.649  15.645   2.298  0.00  0.00     0.040 A 
HETATM   23  C   UNK N   1      25.486  16.082   2.958  0.00  0.00     0.010 A 
ENDBRANCH  14  15
ENDBRANCH  12  14
BRANCH   1  24
HETATM   24  C   UNK N   1      24.554  20.178   4.018  0.00  0.00     0.132 C 
BRANCH  24  25
HETATM   25  C   UNK N   1      25.591  20.043   2.913  0.00  0.00     0.020 C 
BRANCH  25  26
HETATM   26  C   UNK N   1      26.993  20.096   3.503  0.00  0.00    -0.003 C 
HETATM   27  C   UNK N   1      26.955  20.467   4.977  0.00  0.00     0.005 C 
ENDBRANCH  25  26
ENDBRANCH  24  25
ENDBRANCH   1  24
BRANCH   9  28
HETATM   28  N   UNK N   1      19.466  17.277   2.536  0.00  0.00    -0.383 N 
HETATM   29  H   UNK N   1      18.836  17.136   1.792  0.00  0.00     0.157 HD
HETATM   30  H   UNK N   1      19.512  16.624   3.271  0.00  0.00     0.157 HD
ENDBRANCH   9  28
TORSDOF 6
ENDMDL
MODEL 8
REMARK VINA RESULT:      -6.4     14.278     16.385
REMARK  6 active torsions:
REMARK  status: ('A' for Active; 'I' for Inactive)
REMARK    1  A    between atoms: C_2  and  C_3 
REMARK    2  A    between atoms: C_3  and  C_4 
REMARK    3  A    between atoms: C_4  and  N_5 
REMARK    4  A    between atoms: C_13  and  N_14 
REMARK    5  A    between atoms: C_17  and  C_18 
REMARK    6  A    between atoms: C_18  and  C_19 
ROOT
HETATM    1  N   UNK N   1      25.839  24.622  -5.771  0.00  0.00    -0.320 N 
HETATM    2  C   UNK N   1      26.072  23.854  -6.845  0.00  0.00     0.143 A 
HETATM    3  N   UNK N   1      26.394  22.541  -6.873  0.00  0.00    -0.302 N 
ATOM      4  HN  UNK N   1      26.510  22.010  -6.010  1.00  0.00     0.171 HD
HETATM    5  C   UNK N   1      26.562  21.943  -8.094  0.00  0.00     0.269 A 
HETATM    6  N   UNK N   1      26.404  22.672  -9.251  0.00  0.00    -0.303 N 
ATOM      7  HN  UNK N   1      26.532  22.213 -10.153  1.00  0.00     0.171 HD
HETATM    8  C   UNK N   1      25.910  24.586  -7.967  0.00  0.00     0.122 A 
HETATM    9  C   UNK N   1      26.079  23.997  -9.209  0.00  0.00     0.133 A 
HETATM   10  N   UNK N   1      25.565  25.845  -7.651  0.00  0.00    -0.339 N 
ATOM     11  HN  UNK N   1      25.382  26.622  -8.285  1.00  0.00     0.167 HD
HETATM   12  C   UNK N   1      25.514  25.846  -6.290  0.00  0.00     0.089 A 
HETATM   13  F   UNK N   1      26.871  20.628  -8.164  0.00  0.00    -0.165 F 
ENDROOT
BRANCH  12  14
HETATM   14  C   UNK N   1      25.069  27.086  -5.546  0.00  0.00     0.115 C 
BRANCH  14  15
HETATM   15  C   UNK N   1      26.099  28.005  -4.972  0.00  0.00    -0.048 A 
HETATM   16  C   UNK N   1      26.159  28.180  -3.577  0.00  0.00     0.047 A 
HETATM   17  C   UNK N   1      27.162  29.002  -3.071  0.00  0.00     0.105 A 
HETATM   18  O   UNK N   1      27.420  29.306  -1.801  0.00  0.00    -0.323 OA
HETATM   19  C   UNK N   1      28.045  29.622  -3.861  0.00  0.00     0.105 A 
HETATM   20  C   UNK N   1      28.519  30.172  -1.769  0.00  0.00     0.352 A 
HETATM   21  O   UNK N   1      28.875  30.344  -3.111  0.00  0.00    -0.323 OA
HETATM   22  C   UNK N   1      28.043  29.470  -5.244  0.00  0.00     0.040 A 
HETATM   23  C   UNK N   1      27.065  28.626  -5.803  0.00  0.00     0.010 A 
ENDBRANCH  14  15
ENDBRANCH  12  14
BRANCH   1  24
HETATM   24  C   UNK N   1      25.882  24.174  -4.382  0.00  0.00     0.132 C 
BRANCH  24  25
HETATM   25  C   UNK N   1      27.042  24.791  -3.615  0.00  0.00     0.020 C 
BRANCH  25  26
HETATM   26  C   UNK N   1      28.356  24.483  -4.319  0.00  0.00    -0.003 C 
HETATM   27  C   UNK N   1      29.127  25.757  -4.625  0.00  0.00     0.005 C 
ENDBRANCH  25  26
ENDBRANCH  24  25
ENDBRANCH   1  24
BRANCH   9  28
HETATM   28  N   UNK N   1      25.904  24.734 -10.398  0.00  0.00    -0.383 N 
HETATM   29  H   UNK N   1      26.079  24.311 -11.270  0.00  0.00     0.157 HD
HETATM   30  H   UNK N   1      25.606  25.671 -10.357  0.00  0.00     0.157 HD
ENDBRANCH   9  28
TORSDOF 6
ENDMDL
MODEL 9
REMARK VINA RESULT:      -6.4      8.013     11.213
REMARK  6 active torsions:
REMARK  status: ('A' for Active; 'I' for Inactive)
REMARK    1  A    between atoms: C_2  and  C_3 
REMARK    2  A    between atoms: C_3  and  C_4 
REMARK    3  A    between atoms: C_4  and  N_5 
REMARK    4  A    between atoms: C_13  and  N_14 
REMARK    5  A    between atoms: C_17  and  C_18 
REMARK    6  A    between atoms: C_18  and  C_19 
ROOT
HETATM    1  N   UNK N   1      36.568  12.345  13.076  0.00  0.00    -0.320 N 
HETATM    2  C   UNK N   1      36.662  13.208  12.053  0.00  0.00     0.143 A 
HETATM    3  N   UNK N   1      37.741  13.464  11.280  0.00  0.00    -0.302 N 
ATOM      4  HN  UNK N   1      38.631  12.995  11.449  1.00  0.00     0.171 HD
HETATM    5  C   UNK N   1      37.606  14.372  10.264  0.00  0.00     0.269 A 
HETATM    6  N   UNK N   1      36.400  14.999  10.049  0.00  0.00    -0.303 N 
ATOM      7  HN  UNK N   1      36.314  15.673   9.288  1.00  0.00     0.171 HD
HETATM    8  C   UNK N   1      35.470  13.808  11.859  0.00  0.00     0.122 A 
HETATM    9  C   UNK N   1      35.318  14.732  10.837  0.00  0.00     0.133 A 
HETATM   10  N   UNK N   1      34.571  13.350  12.744  0.00  0.00    -0.339 N 
ATOM     11  HN  UNK N   1      33.593  13.622  12.843  1.00  0.00     0.167 HD
HETATM   12  C   UNK N   1      35.263  12.437  13.481  0.00  0.00     0.089 A 
HETATM   13  F   UNK N   1      38.659  14.645   9.459  0.00  0.00    -0.165 F 
ENDROOT
BRANCH  12  14
HETATM   14  C   UNK N   1      34.559  11.627  14.547  0.00  0.00     0.115 C 
BRANCH  14  15
HETATM   15  C   UNK N   1      34.813  11.933  15.987  0.00  0.00    -0.048 A 
HETATM   16  C   UNK N   1      35.213  10.894  16.849  0.00  0.00     0.047 A 
HETATM   17  C   UNK N   1      35.493  11.222  18.172  0.00  0.00     0.105 A 
HETATM   18  O   UNK N   1      35.893  10.419  19.156  0.00  0.00    -0.323 OA
HETATM   19  C   UNK N   1      35.384  12.471  18.638  0.00  0.00     0.105 A 
HETATM   20  C   UNK N   1      36.043  11.186  20.317  0.00  0.00     0.352 A 
HETATM   21  O   UNK N   1      35.700  12.487  19.931  0.00  0.00    -0.323 OA
HETATM   22  C   UNK N   1      35.011  13.539  17.827  0.00  0.00     0.040 A 
HETATM   23  C   UNK N   1      34.745  13.263  16.473  0.00  0.00     0.010 A 
ENDBRANCH  14  15
ENDBRANCH  12  14
BRANCH   1  24
HETATM   24  C   UNK N   1      37.641  11.484  13.561  0.00  0.00     0.132 C 
BRANCH  24  25
HETATM   25  C   UNK N   1      37.492  10.050  13.074  0.00  0.00     0.020 C 
BRANCH  25  26
HETATM   26  C   UNK N   1      37.774   9.080  14.212  0.00  0.00    -0.003 C 
HETATM   27  C   UNK N   1      39.159   9.306  14.797  0.00  0.00     0.005 C 
ENDBRANCH  25  26
ENDBRANCH  24  25
ENDBRANCH   1  24
BRANCH   9  28
HETATM   28  N   UNK N   1      34.080  15.365  10.601  0.00  0.00    -0.383 N 
HETATM   29  H   UNK N   1      33.924  15.839   9.752  0.00  0.00     0.157 HD
HETATM   30  H   UNK N   1      33.374  15.335  11.285  0.00  0.00     0.157 HD
ENDBRANCH   9  28
TORSDOF 6
ENDMDL
