MODEL 1
REMARK VINA RESULT:      -7.4      0.000      0.000
REMARK  2 active torsions:
REMARK  status: ('A' for Active; 'I' for Inactive)
REMARK    1  A    between atoms: C_1  and  C_7 
REMARK    2  A    between atoms: C_2  and  C_8 
ROOT
HETATM    1  C   UNK N   1      28.861  17.427   8.111  0.00  0.00     0.022 A 
HETATM    2  C   UNK N   1      30.269  17.410   8.222  0.00  0.00     0.087 A 
HETATM    3  N   UNK N   1      30.588  17.404   9.531  0.00  0.00    -0.298 N 
ATOM      4  HN  UNK N   1      31.536  17.392   9.908  1.00  0.00     0.187 HD
HETATM    5  N   UNK N   1      29.477  17.415  10.250  0.00  0.00    -0.310 N 
HETATM    6  C   UNK N   1      28.416  17.429   9.426  0.00  0.00     0.121 A 
HETATM    7  H   UNK N   1      29.435  17.413  11.233  0.00  0.00     0.186 HD
ENDROOT
BRANCH   1   8
HETATM    8  C   UNK N   1      27.939  17.440   6.910  0.00  0.00    -0.008 A 
HETATM    9  C   UNK N   1      27.509  18.635   6.260  0.00  0.00     0.002 A 
HETATM   10  C   UNK N   1      26.642  18.541   5.137  0.00  0.00     0.043 A 
HETATM   11  C   UNK N   1      27.910  19.912   6.687  0.00  0.00     0.014 A 
HETATM   12  N   UNK N   1      26.228  17.330   4.688  0.00  0.00    -0.365 N 
HETATM   13  C   UNK N   1      26.205  19.694   4.482  0.00  0.00     0.030 A 
HETATM   14  C   UNK N   1      26.625  16.185   5.290  0.00  0.00     0.089 A 
ATOM     15  HN  UNK N   1      25.607  17.281   3.882  1.00  0.00     0.165 HD
HETATM   16  C   UNK N   1      27.472  16.235   6.390  0.00  0.00     0.030 A 
HETATM   17  C   UNK N   1      26.616  20.951   4.923  0.00  0.00     0.002 A 
HETATM   18  C   UNK N   1      27.467  21.060   6.024  0.00  0.00     0.001 A 
ENDBRANCH   1   8
BRANCH   2  19
HETATM   19  C   UNK N   1      31.347  17.401   7.188  0.00  0.00     0.061 A 
HETATM   20  N   UNK N   1      31.077  17.208   5.871  0.00  0.00    -0.364 N 
HETATM   21  C   UNK N   1      32.044  17.196   4.918  0.00  0.00     0.088 A 
ATOM     22  HN  UNK N   1      30.108  17.068   5.588  1.00  0.00     0.165 HD
HETATM   23  C   UNK N   1      33.375  17.386   5.275  0.00  0.00     0.017 A 
HETATM   24  C   UNK N   1      33.693  17.586   6.617  0.00  0.00     0.004 A 
HETATM   25  C   UNK N   1      32.680  17.594   7.580  0.00  0.00     0.032 A 
ENDBRANCH   2  19
TORSDOF 2
ENDMDL
MODEL 2
REMARK VINA RESULT:      -7.4      1.523      5.282
REMARK  2 active torsions:
REMARK  status: ('A' for Active; 'I' for Inactive)
REMARK    1  A    between atoms: C_1  and  C_7 
REMARK    2  A    between atoms: C_2  and  C_8 
ROOT
HETATM    1  C   UNK N   1      29.309  17.561   7.927  0.00  0.00     0.022 A 
HETATM    2  C   UNK N   1      28.260  18.482   7.706  0.00  0.00     0.087 A 
HETATM    3  N   UNK N   1      27.616  18.674   8.874  0.00  0.00    -0.298 N 
ATOM      4  HN  UNK N   1      26.815  19.290   9.012  1.00  0.00     0.187 HD
HETATM    5  N   UNK N   1      28.188  17.937   9.812  0.00  0.00    -0.310 N 
HETATM    6  C   UNK N   1      29.212  17.253   9.277  0.00  0.00     0.121 A 
HETATM    7  H   UNK N   1      27.907  17.897  10.755  0.00  0.00     0.186 HD
ENDROOT
BRANCH   1   8
HETATM    8  C   UNK N   1      30.352  16.973   7.001  0.00  0.00    -0.008 A 
HETATM    9  C   UNK N   1      31.754  17.187   7.156  0.00  0.00     0.002 A 
HETATM   10  C   UNK N   1      32.654  16.589   6.231  0.00  0.00     0.043 A 
HETATM   11  C   UNK N   1      32.287  17.970   8.193  0.00  0.00     0.014 A 
HETATM   12  N   UNK N   1      32.186  15.825   5.214  0.00  0.00    -0.365 N 
HETATM   13  C   UNK N   1      34.031  16.782   6.359  0.00  0.00     0.030 A 
HETATM   14  C   UNK N   1      30.861  15.609   5.049  0.00  0.00     0.089 A 
ATOM     15  HN  UNK N   1      32.846  15.404   4.559  1.00  0.00     0.165 HD
HETATM   16  C   UNK N   1      29.949  16.175   5.931  0.00  0.00     0.030 A 
HETATM   17  C   UNK N   1      34.537  17.564   7.396  0.00  0.00     0.002 A 
HETATM   18  C   UNK N   1      33.667  18.157   8.312  0.00  0.00     0.001 A 
ENDBRANCH   1   8
BRANCH   2  19
HETATM   19  C   UNK N   1      27.812  19.201   6.476  0.00  0.00     0.061 A 
HETATM   20  N   UNK N   1      27.731  18.580   5.271  0.00  0.00    -0.364 N 
HETATM   21  C   UNK N   1      27.326  19.217   4.142  0.00  0.00     0.088 A 
ATOM     22  HN  UNK N   1      27.984  17.594   5.212  1.00  0.00     0.165 HD
HETATM   23  C   UNK N   1      26.974  20.562   4.193  0.00  0.00     0.017 A 
HETATM   24  C   UNK N   1      27.044  21.236   5.411  0.00  0.00     0.004 A 
HETATM   25  C   UNK N   1      27.464  20.557   6.558  0.00  0.00     0.032 A 
ENDBRANCH   2  19
TORSDOF 2
ENDMDL
MODEL 3
REMARK VINA RESULT:      -7.1     12.619     15.631
REMARK  2 active torsions:
REMARK  status: ('A' for Active; 'I' for Inactive)
REMARK    1  A    between atoms: C_1  and  C_7 
REMARK    2  A    between atoms: C_2  and  C_8 
ROOT
HETATM    1  C   UNK N   1      26.408  25.457  -7.270  0.00  0.00     0.022 A 
HETATM    2  C   UNK N   1      26.496  24.289  -6.480  0.00  0.00     0.087 A 
HETATM    3  N   UNK N   1      25.678  23.360  -7.010  0.00  0.00    -0.298 N 
ATOM      4  HN  UNK N   1      25.540  22.417  -6.645  1.00  0.00     0.187 HD
HETATM    5  N   UNK N   1      25.081  23.863  -8.078  0.00  0.00    -0.310 N 
HETATM    6  C   UNK N   1      25.498  25.127  -8.264  0.00  0.00     0.121 A 
HETATM    7  H   UNK N   1      24.434  23.387  -8.647  0.00  0.00     0.186 HD
ENDROOT
BRANCH   1   8
HETATM    8  C   UNK N   1      27.088  26.806  -7.163  0.00  0.00    -0.008 A 
HETATM    9  C   UNK N   1      26.847  27.727  -6.101  0.00  0.00     0.002 A 
HETATM   10  C   UNK N   1      27.537  28.971  -6.091  0.00  0.00     0.043 A 
HETATM   11  C   UNK N   1      25.949  27.455  -5.055  0.00  0.00     0.014 A 
HETATM   12  N   UNK N   1      28.413  29.278  -7.079  0.00  0.00    -0.365 N 
HETATM   13  C   UNK N   1      27.321  29.892  -5.064  0.00  0.00     0.030 A 
HETATM   14  C   UNK N   1      28.656  28.418  -8.096  0.00  0.00     0.089 A 
ATOM     15  HN  UNK N   1      28.899  30.174  -7.057  1.00  0.00     0.165 HD
HETATM   16  C   UNK N   1      28.002  27.193  -8.141  0.00  0.00     0.030 A 
HETATM   17  C   UNK N   1      26.425  29.600  -4.037  0.00  0.00     0.002 A 
HETATM   18  C   UNK N   1      25.740  28.384  -4.032  0.00  0.00     0.001 A 
ENDBRANCH   1   8
BRANCH   2  19
HETATM   19  C   UNK N   1      27.295  23.974  -5.257  0.00  0.00     0.061 A 
HETATM   20  N   UNK N   1      28.557  23.478  -5.332  0.00  0.00    -0.364 N 
HETATM   21  C   UNK N   1      29.298  23.186  -4.233  0.00  0.00     0.088 A 
ATOM     22  HN  UNK N   1      28.965  23.318  -6.254  1.00  0.00     0.165 HD
HETATM   23  C   UNK N   1      28.768  23.394  -2.963  0.00  0.00     0.017 A 
HETATM   24  C   UNK N   1      27.476  23.902  -2.844  0.00  0.00     0.004 A 
HETATM   25  C   UNK N   1      26.734  24.194  -3.991  0.00  0.00     0.032 A 
ENDBRANCH   2  19
TORSDOF 2
ENDMDL
MODEL 4
REMARK VINA RESULT:      -7.0      1.803      3.125
REMARK  2 active torsions:
REMARK  status: ('A' for Active; 'I' for Inactive)
REMARK    1  A    between atoms: C_1  and  C_7 
REMARK    2  A    between atoms: C_2  and  C_8 
ROOT
HETATM    1  C   UNK N   1      28.888  15.994   6.019  0.00  0.00     0.022 A 
HETATM    2  C   UNK N   1      30.166  15.524   5.643  0.00  0.00     0.087 A 
HETATM    3  N   UNK N   1      30.005  14.397   4.923  0.00  0.00    -0.298 N 
ATOM      4  HN  UNK N   1      30.759  13.840   4.521  1.00  0.00     0.187 HD
HETATM    5  N   UNK N   1      28.714  14.126   4.821  0.00  0.00    -0.310 N 
HETATM    6  C   UNK N   1      28.011  15.069   5.470  0.00  0.00     0.121 A 
HETATM    7  H   UNK N   1      28.329  13.356   4.345  0.00  0.00     0.186 HD
ENDROOT
BRANCH   1   8
HETATM    8  C   UNK N   1      28.448  17.199   6.823  0.00  0.00    -0.008 A 
HETATM    9  C   UNK N   1      28.039  18.433   6.234  0.00  0.00     0.002 A 
HETATM   10  C   UNK N   1      27.643  19.507   7.078  0.00  0.00     0.043 A 
HETATM   11  C   UNK N   1      28.010  18.632   4.844  0.00  0.00     0.014 A 
HETATM   12  N   UNK N   1      27.655  19.362   8.426  0.00  0.00    -0.365 N 
HETATM   13  C   UNK N   1      27.238  20.725   6.529  0.00  0.00     0.030 A 
HETATM   14  C   UNK N   1      28.039  18.201   9.004  0.00  0.00     0.089 A 
ATOM     15  HN  UNK N   1      27.368  20.142   9.016  1.00  0.00     0.165 HD
HETATM   16  C   UNK N   1      28.433  17.127   8.215  0.00  0.00     0.030 A 
HETATM   17  C   UNK N   1      27.218  20.900   5.146  0.00  0.00     0.002 A 
HETATM   18  C   UNK N   1      27.603  19.855   4.305  0.00  0.00     0.001 A 
ENDBRANCH   1   8
BRANCH   2  19
HETATM   19  C   UNK N   1      31.537  16.054   5.908  0.00  0.00     0.061 A 
HETATM   20  N   UNK N   1      32.301  15.588   6.930  0.00  0.00    -0.364 N 
HETATM   21  C   UNK N   1      33.550  16.058   7.187  0.00  0.00     0.088 A 
ATOM     22  HN  UNK N   1      31.921  14.856   7.529  1.00  0.00     0.165 HD
HETATM   23  C   UNK N   1      34.094  17.057   6.386  0.00  0.00     0.017 A 
HETATM   24  C   UNK N   1      33.341  17.561   5.327  0.00  0.00     0.004 A 
HETATM   25  C   UNK N   1      32.059  17.061   5.084  0.00  0.00     0.032 A 
ENDBRANCH   2  19
TORSDOF 2
ENDMDL
MODEL 5
REMARK VINA RESULT:      -7.0      1.950      5.724
REMARK  2 active torsions:
REMARK  status: ('A' for Active; 'I' for Inactive)
REMARK    1  A    between atoms: C_1  and  C_7 
REMARK    2  A    between atoms: C_2  and  C_8 
ROOT
HETATM    1  C   UNK N   1      29.158  16.259   5.248  0.00  0.00     0.022 A 
HETATM    2  C   UNK N   1      27.949  16.969   5.424  0.00  0.00     0.087 A 
HETATM    3  N   UNK N   1      26.945  16.075   5.505  0.00  0.00    -0.298 N 
ATOM      4  HN  UNK N   1      25.959  16.304   5.633  1.00  0.00     0.187 HD
HETATM    5  N   UNK N   1      27.439  14.853   5.392  0.00  0.00    -0.310 N 
HETATM    6  C   UNK N   1      28.771  14.927   5.236  0.00  0.00     0.121 A 
HETATM    7  H   UNK N   1      26.913  14.021   5.418  0.00  0.00     0.186 HD
ENDROOT
BRANCH   1   8
HETATM    8  C   UNK N   1      30.592  16.722   5.098  0.00  0.00    -0.008 A 
HETATM    9  C   UNK N   1      31.411  17.121   6.196  0.00  0.00     0.002 A 
HETATM   10  C   UNK N   1      32.747  17.541   5.949  0.00  0.00     0.043 A 
HETATM   11  C   UNK N   1      30.948  17.116   7.522  0.00  0.00     0.014 A 
HETATM   12  N   UNK N   1      33.238  17.562   4.685  0.00  0.00    -0.365 N 
HETATM   13  C   UNK N   1      33.571  17.936   7.004  0.00  0.00     0.030 A 
HETATM   14  C   UNK N   1      32.478  17.188   3.630  0.00  0.00     0.089 A 
ATOM     15  HN  UNK N   1      34.198  17.865   4.526  1.00  0.00     0.165 HD
HETATM   16  C   UNK N   1      31.167  16.771   3.829  0.00  0.00     0.030 A 
HETATM   17  C   UNK N   1      33.090  17.923   8.313  0.00  0.00     0.002 A 
HETATM   18  C   UNK N   1      31.781  17.514   8.571  0.00  0.00     0.001 A 
ENDBRANCH   1   8
BRANCH   2  19
HETATM   19  C   UNK N   1      27.661  18.431   5.524  0.00  0.00     0.061 A 
HETATM   20  N   UNK N   1      27.522  19.056   6.721  0.00  0.00    -0.364 N 
HETATM   21  C   UNK N   1      27.260  20.384   6.831  0.00  0.00     0.088 A 
ATOM     22  HN  UNK N   1      27.618  18.504   7.574  1.00  0.00     0.165 HD
HETATM   23  C   UNK N   1      27.123  21.162   5.686  0.00  0.00     0.017 A 
HETATM   24  C   UNK N   1      27.259  20.558   4.437  0.00  0.00     0.004 A 
HETATM   25  C   UNK N   1      27.529  19.189   4.351  0.00  0.00     0.032 A 
ENDBRANCH   2  19
TORSDOF 2
ENDMDL
MODEL 6
REMARK VINA RESULT:      -7.0      1.044      2.582
REMARK  2 active torsions:
REMARK  status: ('A' for Active; 'I' for Inactive)
REMARK    1  A    between atoms: C_1  and  C_7 
REMARK    2  A    between atoms: C_2  and  C_8 
ROOT
HETATM    1  C   UNK N   1      28.933  17.768   8.272  0.00  0.00     0.022 A 
HETATM    2  C   UNK N   1      30.286  17.377   8.385  0.00  0.00     0.087 A 
HETATM    3  N   UNK N   1      30.491  16.927   9.638  0.00  0.00    -0.298 N 
ATOM      4  HN  UNK N   1      31.377  16.579  10.003  1.00  0.00     0.187 HD
HETATM    5  N   UNK N   1      29.360  17.008  10.320  0.00  0.00    -0.310 N 
HETATM    6  C   UNK N   1      28.399  17.511   9.527  0.00  0.00     0.121 A 
HETATM    7  H   UNK N   1      29.242  16.742  11.260  0.00  0.00     0.186 HD
ENDROOT
BRANCH   1   8
HETATM    8  C   UNK N   1      28.137  18.341   7.119  0.00  0.00    -0.008 A 
HETATM    9  C   UNK N   1      27.521  17.541   6.111  0.00  0.00     0.002 A 
HETATM   10  C   UNK N   1      26.794  18.177   5.068  0.00  0.00     0.043 A 
HETATM   11  C   UNK N   1      27.604  16.139   6.107  0.00  0.00     0.014 A 
HETATM   12  N   UNK N   1      26.686  19.528   5.030  0.00  0.00    -0.365 N 
HETATM   13  C   UNK N   1      26.181  17.418   4.068  0.00  0.00     0.030 A 
HETATM   14  C   UNK N   1      27.262  20.305   5.976  0.00  0.00     0.089 A 
ATOM     15  HN  UNK N   1      26.161  19.968   4.275  1.00  0.00     0.165 HD
HETATM   16  C   UNK N   1      27.981  19.722   7.012  0.00  0.00     0.030 A 
HETATM   17  C   UNK N   1      26.278  16.028   4.084  0.00  0.00     0.002 A 
HETATM   18  C   UNK N   1      26.988  15.389   5.102  0.00  0.00     0.001 A 
ENDBRANCH   1   8
BRANCH   2  19
HETATM   19  C   UNK N   1      31.410  17.393   7.401  0.00  0.00     0.061 A 
HETATM   20  N   UNK N   1      32.670  17.754   7.757  0.00  0.00    -0.364 N 
HETATM   21  C   UNK N   1      33.704  17.775   6.877  0.00  0.00     0.088 A 
ATOM     22  HN  UNK N   1      32.846  18.021   8.725  1.00  0.00     0.165 HD
HETATM   23  C   UNK N   1      33.493  17.416   5.549  0.00  0.00     0.017 A 
HETATM   24  C   UNK N   1      32.214  17.039   5.145  0.00  0.00     0.004 A 
HETATM   25  C   UNK N   1      31.166  17.026   6.070  0.00  0.00     0.032 A 
ENDBRANCH   2  19
TORSDOF 2
ENDMDL
MODEL 7
REMARK VINA RESULT:      -6.8      1.992      5.163
REMARK  2 active torsions:
REMARK  status: ('A' for Active; 'I' for Inactive)
REMARK    1  A    between atoms: C_1  and  C_7 
REMARK    2  A    between atoms: C_2  and  C_8 
ROOT
HETATM    1  C   UNK N   1      28.219  17.560   6.763  0.00  0.00     0.022 A 
HETATM    2  C   UNK N   1      27.417  18.709   6.588  0.00  0.00     0.087 A 
HETATM    3  N   UNK N   1      27.350  19.359   7.766  0.00  0.00    -0.298 N 
ATOM      4  HN  UNK N   1      26.837  20.225   7.934  1.00  0.00     0.187 HD
HETATM    5  N   UNK N   1      28.054  18.697   8.669  0.00  0.00    -0.310 N 
HETATM    6  C   UNK N   1      28.592  17.606   8.099  0.00  0.00     0.121 A 
HETATM    7  H   UNK N   1      28.165  18.962   9.610  0.00  0.00     0.186 HD
ENDROOT
BRANCH   1   8
HETATM    8  C   UNK N   1      28.643  16.465   5.807  0.00  0.00    -0.008 A 
HETATM    9  C   UNK N   1      29.808  16.543   4.987  0.00  0.00     0.002 A 
HETATM   10  C   UNK N   1      30.120  15.459   4.120  0.00  0.00     0.043 A 
HETATM   11  C   UNK N   1      30.666  17.654   5.000  0.00  0.00     0.014 A 
HETATM   12  N   UNK N   1      29.321  14.365   4.074  0.00  0.00    -0.365 N 
HETATM   13  C   UNK N   1      31.254  15.508   3.307  0.00  0.00     0.030 A 
HETATM   14  C   UNK N   1      28.212  14.271   4.843  0.00  0.00     0.089 A 
ATOM     15  HN  UNK N   1      29.560  13.597   3.447  1.00  0.00     0.165 HD
HETATM   16  C   UNK N   1      27.872  15.308   5.703  0.00  0.00     0.030 A 
HETATM   17  C   UNK N   1      32.091  16.622   3.336  0.00  0.00     0.002 A 
HETATM   18  C   UNK N   1      31.798  17.694   4.181  0.00  0.00     0.001 A 
ENDBRANCH   1   8
BRANCH   2  19
HETATM   19  C   UNK N   1      26.704  19.250   5.392  0.00  0.00     0.061 A 
HETATM   20  N   UNK N   1      25.371  19.068   5.208  0.00  0.00    -0.364 N 
HETATM   21  C   UNK N   1      24.705  19.552   4.128  0.00  0.00     0.088 A 
ATOM     22  HN  UNK N   1      24.848  18.546   5.911  1.00  0.00     0.165 HD
HETATM   23  C   UNK N   1      25.392  20.268   3.152  0.00  0.00     0.017 A 
HETATM   24  C   UNK N   1      26.762  20.477   3.304  0.00  0.00     0.004 A 
HETATM   25  C   UNK N   1      27.423  19.968   4.426  0.00  0.00     0.032 A 
ENDBRANCH   2  19
TORSDOF 2
ENDMDL
MODEL 8
REMARK VINA RESULT:      -6.7      1.981      5.193
REMARK  2 active torsions:
REMARK  status: ('A' for Active; 'I' for Inactive)
REMARK    1  A    between atoms: C_1  and  C_7 
REMARK    2  A    between atoms: C_2  and  C_8 
ROOT
HETATM    1  C   UNK N   1      28.909  17.688   7.325  0.00  0.00     0.022 A 
HETATM    2  C   UNK N   1      27.880  18.636   7.122  0.00  0.00     0.087 A 
HETATM    3  N   UNK N   1      27.535  19.145   8.321  0.00  0.00    -0.298 N 
ATOM      4  HN  UNK N   1      26.817  19.852   8.477  1.00  0.00     0.187 HD
HETATM    5  N   UNK N   1      28.275  18.584   9.262  0.00  0.00    -0.310 N 
HETATM    6  C   UNK N   1      29.115  17.699   8.697  0.00  0.00     0.121 A 
HETATM    7  H   UNK N   1      28.220  18.782  10.224  0.00  0.00     0.186 HD
ENDROOT
BRANCH   1   8
HETATM    8  C   UNK N   1      29.680  16.809   6.364  0.00  0.00    -0.008 A 
HETATM    9  C   UNK N   1      29.102  15.707   5.667  0.00  0.00     0.002 A 
HETATM   10  C   UNK N   1      29.912  14.942   4.784  0.00  0.00     0.043 A 
HETATM   11  C   UNK N   1      27.753  15.343   5.817  0.00  0.00     0.014 A 
HETATM   12  N   UNK N   1      31.219  15.255   4.606  0.00  0.00    -0.365 N 
HETATM   13  C   UNK N   1      29.373  13.858   4.088  0.00  0.00     0.030 A 
HETATM   14  C   UNK N   1      31.787  16.296   5.257  0.00  0.00     0.089 A 
ATOM     15  HN  UNK N   1      31.786  14.696   3.969  1.00  0.00     0.165 HD
HETATM   16  C   UNK N   1      31.029  17.068   6.129  0.00  0.00     0.030 A 
HETATM   17  C   UNK N   1      28.031  13.515   4.254  0.00  0.00     0.002 A 
HETATM   18  C   UNK N   1      27.223  14.257   5.117  0.00  0.00     0.001 A 
ENDBRANCH   1   8
BRANCH   2  19
HETATM   19  C   UNK N   1      27.191  19.104   5.882  0.00  0.00     0.061 A 
HETATM   20  N   UNK N   1      25.851  18.967   5.711  0.00  0.00    -0.364 N 
HETATM   21  C   UNK N   1      25.207  19.387   4.591  0.00  0.00     0.088 A 
ATOM     22  HN  UNK N   1      25.305  18.532   6.455  1.00  0.00     0.165 HD
HETATM   23  C   UNK N   1      25.925  19.984   3.560  0.00  0.00     0.017 A 
HETATM   24  C   UNK N   1      27.302  20.143   3.698  0.00  0.00     0.004 A 
HETATM   25  C   UNK N   1      27.942  19.702   4.860  0.00  0.00     0.032 A 
ENDBRANCH   2  19
TORSDOF 2
ENDMDL
MODEL 9
REMARK VINA RESULT:      -6.7      1.830      6.015
REMARK  2 active torsions:
REMARK  status: ('A' for Active; 'I' for Inactive)
REMARK    1  A    between atoms: C_1  and  C_7 
REMARK    2  A    between atoms: C_2  and  C_8 
ROOT
HETATM    1  C   UNK N   1      29.666  16.340   5.097  0.00  0.00     0.022 A 
HETATM    2  C   UNK N   1      28.754  16.856   4.150  0.00  0.00     0.087 A 
HETATM    3  N   UNK N   1      28.714  16.012   3.101  0.00  0.00    -0.298 N 
ATOM      4  HN  UNK N   1      28.139  16.133   2.267  1.00  0.00     0.187 HD
HETATM    5  N   UNK N   1      29.538  15.002   3.324  0.00  0.00    -0.310 N 
HETATM    6  C   UNK N   1      30.130  15.167   4.519  0.00  0.00     0.121 A 
HETATM    7  H   UNK N   1      29.694  14.248   2.711  0.00  0.00     0.186 HD
ENDROOT
BRANCH   1   8
HETATM    8  C   UNK N   1      30.116  16.847   6.451  0.00  0.00    -0.008 A 
HETATM    9  C   UNK N   1      31.468  17.187   6.755  0.00  0.00     0.002 A 
HETATM   10  C   UNK N   1      31.789  17.656   8.059  0.00  0.00     0.043 A 
HETATM   11  C   UNK N   1      32.504  17.078   5.813  0.00  0.00     0.014 A 
HETATM   12  N   UNK N   1      30.822  17.779   9.002  0.00  0.00    -0.365 N 
HETATM   13  C   UNK N   1      33.103  17.996   8.385  0.00  0.00     0.030 A 
HETATM   14  C   UNK N   1      29.535  17.462   8.734  0.00  0.00     0.089 A 
ATOM     15  HN  UNK N   1      31.070  18.116   9.932  1.00  0.00     0.165 HD
HETATM   16  C   UNK N   1      29.180  17.000   7.472  0.00  0.00     0.030 A 
HETATM   17  C   UNK N   1      34.115  17.879   7.433  0.00  0.00     0.002 A 
HETATM   18  C   UNK N   1      33.816  17.421   6.149  0.00  0.00     0.001 A 
ENDBRANCH   1   8
BRANCH   2  19
HETATM   19  C   UNK N   1      27.910  18.089   4.152  0.00  0.00     0.061 A 
HETATM   20  N   UNK N   1      28.411  19.301   4.504  0.00  0.00    -0.364 N 
HETATM   21  C   UNK N   1      27.659  20.432   4.512  0.00  0.00     0.088 A 
ATOM     22  HN  UNK N   1      29.393  19.364   4.773  1.00  0.00     0.165 HD
HETATM   23  C   UNK N   1      26.317  20.376   4.150  0.00  0.00     0.017 A 
HETATM   24  C   UNK N   1      25.765  19.151   3.783  0.00  0.00     0.004 A 
HETATM   25  C   UNK N   1      26.560  18.001   3.782  0.00  0.00     0.032 A 
ENDBRANCH   2  19
TORSDOF 2
ENDMDL
