REMARK  2 active torsions:
REMARK  status: ('A' for Active; 'I' for Inactive)
REMARK    1  A    between atoms: C_1  and  C_7 
REMARK    2  A    between atoms: C_2  and  C_8 
ROOT
HETATM    1  C   UNK N   1       0.574  -1.138  -0.000  0.00  0.00     0.022 A 
HETATM    2  C   UNK N   1      -0.578  -1.956  -0.000  0.00  0.00     0.087 A 
HETATM    3  N   UNK N   1      -0.180  -3.243  -0.000  0.00  0.00    -0.298 N 
ATOM      4  HN  UNK N   1      -0.800  -4.053  -0.000  1.00  0.00     0.187 HD
HETATM    5  N   UNK N   1       1.142  -3.290  -0.000  0.00  0.00    -0.310 N 
HETATM    6  C   UNK N   1       1.630  -2.038  -0.000  0.00  0.00     0.121 A 
HETATM    7  H   UNK N   1       1.683  -4.112  -0.000  0.00  0.00     0.186 HD
ENDROOT
BRANCH   1   8
HETATM    8  C   UNK N   1       0.748   0.366  -0.000  0.00  0.00    -0.008 A 
HETATM    9  C   UNK N   1       2.020   1.012  -0.000  0.00  0.00     0.002 A 
HETATM   10  C   UNK N   1       2.077   2.433  -0.000  0.00  0.00     0.043 A 
HETATM   11  C   UNK N   1       3.229   0.297   0.000  0.00  0.00     0.014 A 
HETATM   12  N   UNK N   1       0.936   3.166  -0.000  0.00  0.00    -0.365 N 
HETATM   13  C   UNK N   1       3.308   3.092   0.000  0.00  0.00     0.030 A 
HETATM   14  C   UNK N   1      -0.280   2.573  -0.000  0.00  0.00     0.089 A 
ATOM     15  HN  UNK N   1       0.995   4.184  -0.000  1.00  0.00     0.165 HD
HETATM   16  C   UNK N   1      -0.378   1.187  -0.000  0.00  0.00     0.030 A 
HETATM   17  C   UNK N   1       4.495   2.361   0.000  0.00  0.00     0.002 A 
HETATM   18  C   UNK N   1       4.456   0.966   0.000  0.00  0.00     0.001 A 
ENDBRANCH   1   8
BRANCH   2  19
HETATM   19  C   UNK N   1      -2.034  -1.622   0.000  0.00  0.00     0.061 A 
HETATM   20  N   UNK N   1      -2.476  -0.338   0.000  0.00  0.00    -0.364 N 
HETATM   21  C   UNK N   1      -3.795  -0.015   0.000  0.00  0.00     0.088 A 
ATOM     22  HN  UNK N   1      -1.788   0.415   0.000  1.00  0.00     0.165 HD
HETATM   23  C   UNK N   1      -4.756  -1.021   0.000  0.00  0.00     0.017 A 
HETATM   24  C   UNK N   1      -4.343  -2.352  -0.000  0.00  0.00     0.004 A 
HETATM   25  C   UNK N   1      -2.979  -2.658  -0.000  0.00  0.00     0.032 A 
ENDBRANCH   2  19
TORSDOF 2
