MODEL 1
REMARK VINA RESULT:      -6.8      0.000      0.000
REMARK  6 active torsions:
REMARK  status: ('A' for Active; 'I' for Inactive)
REMARK    1  A    between atoms: C_2  and  O_22 
REMARK    2  A    between atoms: C_6  and  O_21 
REMARK    3  A    between atoms: C_8  and  O_20 
REMARK    4  A    between atoms: C_9  and  C_10 
REMARK    5  A    between atoms: C_13  and  O_19 
REMARK    6  A    between atoms: C_14  and  O_18 
ROOT
HETATM    1  C   UNK N   1      35.910  13.923  10.853  0.00  0.00     0.074 A 
HETATM    2  C   UNK N   1      35.882  15.288  10.552  0.00  0.00     0.085 A 
HETATM    3  C   UNK N   1      34.951  15.782   9.606  0.00  0.00     0.084 A 
HETATM    4  C   UNK N   1      34.063  14.878   8.981  0.00  0.00     0.096 A 
HETATM    5  C   UNK N   1      34.106  13.519   9.294  0.00  0.00     0.075 A 
HETATM    6  C   UNK N   1      35.026  13.042  10.227  0.00  0.00     0.071 A 
HETATM    7  C   UNK N   1      34.866  17.142   9.255  0.00  0.00     0.223 A 
HETATM    8  C   UNK N   1      33.921  17.549   8.313  0.00  0.00     0.152 A 
HETATM    9  C   UNK N   1      33.065  16.582   7.730  0.00  0.00     0.123 A 
HETATM   10  O   UNK N   1      33.179  15.306   8.090  0.00  0.00    -0.306 OA
HETATM   11  O   UNK N   1      35.606  17.972   9.760  0.00  0.00    -0.284 OA
ENDROOT
BRANCH   9  12
HETATM   12  C   UNK N   1      32.034  16.928   6.722  0.00  0.00     0.004 A 
HETATM   13  C   UNK N   1      30.698  17.074   7.124  0.00  0.00     0.017 A 
HETATM   14  C   UNK N   1      29.709  17.400   6.192  0.00  0.00     0.040 A 
HETATM   15  C   UNK N   1      30.049  17.583   4.849  0.00  0.00     0.098 A 
HETATM   16  C   UNK N   1      31.380  17.439   4.439  0.00  0.00     0.099 A 
HETATM   17  C   UNK N   1      32.360  17.115   5.372  0.00  0.00     0.053 A 
BRANCH  15  18
HETATM   18  O   UNK N   1      29.095  17.896   3.956  0.00  0.00    -0.358 OA
HETATM   19  H   UNK N   1      28.676  17.219   3.462  0.00  0.00     0.217 HD
ENDBRANCH  15  18
BRANCH  16  20
HETATM   20  O   UNK N   1      31.721  17.612   3.152  0.00  0.00    -0.358 OA
HETATM   21  H   UNK N   1      32.114  18.416   2.875  0.00  0.00     0.217 HD
ENDBRANCH  16  20
ENDBRANCH   9  12
BRANCH   8  22
HETATM   22  O   UNK N   1      33.842  18.851   7.978  0.00  0.00    -0.355 OA
HETATM   23  H   UNK N   1      33.373  19.448   8.528  0.00  0.00     0.218 HD
ENDBRANCH   8  22
BRANCH   2  24
HETATM   24  O   UNK N   1      36.748  16.108  11.175  0.00  0.00    -0.360 OA
HETATM   25  H   UNK N   1      37.652  16.108  10.929  0.00  0.00     0.217 HD
ENDBRANCH   2  24
BRANCH   6  26
HETATM   26  O   UNK N   1      35.061  11.734  10.522  0.00  0.00    -0.361 OA
HETATM   27  H   UNK N   1      34.448  11.146  10.123  0.00  0.00     0.217 HD
ENDBRANCH   6  26
TORSDOF 6
ENDMDL
MODEL 2
REMARK VINA RESULT:      -6.8      1.634      6.994
REMARK  6 active torsions:
REMARK  status: ('A' for Active; 'I' for Inactive)
REMARK    1  A    between atoms: C_2  and  O_22 
REMARK    2  A    between atoms: C_6  and  O_21 
REMARK    3  A    between atoms: C_8  and  O_20 
REMARK    4  A    between atoms: C_9  and  C_10 
REMARK    5  A    between atoms: C_13  and  O_19 
REMARK    6  A    between atoms: C_14  and  O_18 
ROOT
HETATM    1  C   UNK N   1      29.156  17.786   5.418  0.00  0.00     0.074 A 
HETATM    2  C   UNK N   1      30.484  17.517   5.078  0.00  0.00     0.085 A 
HETATM    3  C   UNK N   1      31.410  17.157   6.087  0.00  0.00     0.084 A 
HETATM    4  C   UNK N   1      30.968  17.077   7.428  0.00  0.00     0.096 A 
HETATM    5  C   UNK N   1      29.637  17.350   7.746  0.00  0.00     0.075 A 
HETATM    6  C   UNK N   1      28.733  17.703   6.746  0.00  0.00     0.071 A 
HETATM    7  C   UNK N   1      32.762  16.872   5.819  0.00  0.00     0.223 A 
HETATM    8  C   UNK N   1      33.611  16.525   6.871  0.00  0.00     0.152 A 
HETATM    9  C   UNK N   1      33.093  16.466   8.188  0.00  0.00     0.123 A 
HETATM   10  O   UNK N   1      31.807  16.743   8.398  0.00  0.00    -0.306 OA
HETATM   11  O   UNK N   1      33.204  16.924   4.683  0.00  0.00    -0.284 OA
ENDROOT
BRANCH   9  12
HETATM   12  C   UNK N   1      33.924  16.106   9.361  0.00  0.00     0.004 A 
HETATM   13  C   UNK N   1      34.975  16.952   9.748  0.00  0.00     0.017 A 
HETATM   14  C   UNK N   1      35.771  16.632  10.851  0.00  0.00     0.040 A 
HETATM   15  C   UNK N   1      35.524  15.463  11.576  0.00  0.00     0.098 A 
HETATM   16  C   UNK N   1      34.479  14.614  11.196  0.00  0.00     0.099 A 
HETATM   17  C   UNK N   1      33.688  14.937  10.097  0.00  0.00     0.053 A 
BRANCH  15  18
HETATM   18  O   UNK N   1      36.293  15.160  12.635  0.00  0.00    -0.358 OA
HETATM   19  H   UNK N   1      35.980  14.562  13.285  0.00  0.00     0.217 HD
ENDBRANCH  15  18
BRANCH  16  20
HETATM   20  O   UNK N   1      34.229  13.487  11.883  0.00  0.00    -0.358 OA
HETATM   21  H   UNK N   1      33.688  12.821  11.510  0.00  0.00     0.217 HD
ENDBRANCH  16  20
ENDBRANCH   9  12
BRANCH   8  22
HETATM   22  O   UNK N   1      34.904  16.253   6.612  0.00  0.00    -0.355 OA
HETATM   23  H   UNK N   1      35.505  16.952   6.441  0.00  0.00     0.218 HD
ENDBRANCH   8  22
BRANCH   2  24
HETATM   24  O   UNK N   1      30.857  17.607   3.789  0.00  0.00    -0.360 OA
HETATM   25  H   UNK N   1      30.690  16.895   3.203  0.00  0.00     0.217 HD
ENDBRANCH   2  24
BRANCH   6  26
HETATM   26  O   UNK N   1      27.456  17.964   7.061  0.00  0.00    -0.361 OA
HETATM   27  H   UNK N   1      27.208  18.077   7.958  0.00  0.00     0.217 HD
ENDBRANCH   6  26
TORSDOF 6
ENDMDL
MODEL 3
REMARK VINA RESULT:      -6.8      2.159      7.471
REMARK  6 active torsions:
REMARK  status: ('A' for Active; 'I' for Inactive)
REMARK    1  A    between atoms: C_2  and  O_22 
REMARK    2  A    between atoms: C_6  and  O_21 
REMARK    3  A    between atoms: C_8  and  O_20 
REMARK    4  A    between atoms: C_9  and  C_10 
REMARK    5  A    between atoms: C_13  and  O_19 
REMARK    6  A    between atoms: C_14  and  O_18 
ROOT
HETATM    1  C   UNK N   1      27.093  17.601   4.284  0.00  0.00     0.074 A 
HETATM    2  C   UNK N   1      28.218  16.863   3.909  0.00  0.00     0.085 A 
HETATM    3  C   UNK N   1      29.358  16.840   4.750  0.00  0.00     0.084 A 
HETATM    4  C   UNK N   1      29.332  17.570   5.960  0.00  0.00     0.096 A 
HETATM    5  C   UNK N   1      28.199  18.302   6.316  0.00  0.00     0.075 A 
HETATM    6  C   UNK N   1      27.083  18.318   5.482  0.00  0.00     0.071 A 
HETATM    7  C   UNK N   1      30.525  16.118   4.438  0.00  0.00     0.223 A 
HETATM    8  C   UNK N   1      31.606  16.147   5.320  0.00  0.00     0.152 A 
HETATM    9  C   UNK N   1      31.504  16.903   6.514  0.00  0.00     0.123 A 
HETATM   10  O   UNK N   1      30.381  17.571   6.771  0.00  0.00    -0.306 OA
HETATM   11  O   UNK N   1      30.608  15.468   3.408  0.00  0.00    -0.284 OA
ENDROOT
BRANCH   9  12
HETATM   12  C   UNK N   1      32.603  16.988   7.505  0.00  0.00     0.004 A 
HETATM   13  C   UNK N   1      32.768  15.957   8.443  0.00  0.00     0.017 A 
HETATM   14  C   UNK N   1      33.797  16.016   9.386  0.00  0.00     0.040 A 
HETATM   15  C   UNK N   1      34.670  17.107   9.400  0.00  0.00     0.098 A 
HETATM   16  C   UNK N   1      34.512  18.140   8.469  0.00  0.00     0.099 A 
HETATM   17  C   UNK N   1      33.486  18.076   7.531  0.00  0.00     0.053 A 
BRANCH  15  18
HETATM   18  O   UNK N   1      35.658  17.159  10.309  0.00  0.00    -0.358 OA
HETATM   19  H   UNK N   1      35.513  17.579  11.134  0.00  0.00     0.217 HD
ENDBRANCH  15  18
BRANCH  16  20
HETATM   20  O   UNK N   1      35.344  19.195   8.470  0.00  0.00    -0.358 OA
HETATM   21  H   UNK N   1      35.786  19.444   7.683  0.00  0.00     0.217 HD
ENDBRANCH  16  20
ENDBRANCH   9  12
BRANCH   8  22
HETATM   22  O   UNK N   1      32.721  15.456   5.019  0.00  0.00    -0.355 OA
HETATM   23  H   UNK N   1      32.726  14.871   4.287  0.00  0.00     0.218 HD
ENDBRANCH   8  22
BRANCH   2  24
HETATM   24  O   UNK N   1      28.194  16.184   2.748  0.00  0.00    -0.360 OA
HETATM   25  H   UNK N   1      27.404  16.142   2.247  0.00  0.00     0.217 HD
ENDBRANCH   2  24
BRANCH   6  26
HETATM   26  O   UNK N   1      25.997  19.024   5.832  0.00  0.00    -0.361 OA
HETATM   27  H   UNK N   1      25.559  18.841   6.640  0.00  0.00     0.217 HD
ENDBRANCH   6  26
TORSDOF 6
ENDMDL
MODEL 4
REMARK VINA RESULT:      -6.8      3.760      6.320
REMARK  6 active torsions:
REMARK  status: ('A' for Active; 'I' for Inactive)
REMARK    1  A    between atoms: C_2  and  O_22 
REMARK    2  A    between atoms: C_6  and  O_21 
REMARK    3  A    between atoms: C_8  and  O_20 
REMARK    4  A    between atoms: C_9  and  C_10 
REMARK    5  A    between atoms: C_13  and  O_19 
REMARK    6  A    between atoms: C_14  and  O_18 
ROOT
HETATM    1  C   UNK N   1      31.725  16.028   7.446  0.00  0.00     0.074 A 
HETATM    2  C   UNK N   1      30.855  16.922   8.075  0.00  0.00     0.085 A 
HETATM    3  C   UNK N   1      29.822  17.542   7.331  0.00  0.00     0.084 A 
HETATM    4  C   UNK N   1      29.692  17.242   5.956  0.00  0.00     0.096 A 
HETATM    5  C   UNK N   1      30.571  16.346   5.345  0.00  0.00     0.075 A 
HETATM    6  C   UNK N   1      31.584  15.741   6.087  0.00  0.00     0.071 A 
HETATM    7  C   UNK N   1      28.910  18.452   7.898  0.00  0.00     0.223 A 
HETATM    8  C   UNK N   1      27.920  19.021   7.096  0.00  0.00     0.152 A 
HETATM    9  C   UNK N   1      27.855  18.669   5.725  0.00  0.00     0.123 A 
HETATM   10  O   UNK N   1      28.737  17.805   5.228  0.00  0.00    -0.306 OA
HETATM   11  O   UNK N   1      28.971  18.752   9.080  0.00  0.00    -0.284 OA
ENDROOT
BRANCH   9  12
HETATM   12  C   UNK N   1      26.836  19.226   4.804  0.00  0.00     0.004 A 
HETATM   13  C   UNK N   1      27.215  20.191   3.857  0.00  0.00     0.017 A 
HETATM   14  C   UNK N   1      26.272  20.729   2.978  0.00  0.00     0.040 A 
HETATM   15  C   UNK N   1      24.941  20.308   3.038  0.00  0.00     0.098 A 
HETATM   16  C   UNK N   1      24.554  19.346   3.979  0.00  0.00     0.099 A 
HETATM   17  C   UNK N   1      25.498  18.813   4.852  0.00  0.00     0.053 A 
BRANCH  15  18
HETATM   18  O   UNK N   1      24.038  20.829   2.191  0.00  0.00    -0.358 OA
HETATM   19  H   UNK N   1      24.315  21.411   1.510  0.00  0.00     0.217 HD
ENDBRANCH  15  18
BRANCH  16  20
HETATM   20  O   UNK N   1      23.279  18.932   4.048  0.00  0.00    -0.358 OA
HETATM   21  H   UNK N   1      22.969  18.269   3.463  0.00  0.00     0.217 HD
ENDBRANCH  16  20
ENDBRANCH   9  12
BRANCH   8  22
HETATM   22  O   UNK N   1      27.049  19.890   7.641  0.00  0.00    -0.355 OA
HETATM   23  H   UNK N   1      26.300  20.172   7.153  0.00  0.00     0.218 HD
ENDBRANCH   8  22
BRANCH   2  24
HETATM   24  O   UNK N   1      31.020  17.175   9.386  0.00  0.00    -0.360 OA
HETATM   25  H   UNK N   1      31.559  16.613   9.907  0.00  0.00     0.217 HD
ENDBRANCH   2  24
BRANCH   6  26
HETATM   26  O   UNK N   1      32.425  14.881   5.492  0.00  0.00    -0.361 OA
HETATM   27  H   UNK N   1      33.251  15.183   5.166  0.00  0.00     0.217 HD
ENDBRANCH   6  26
TORSDOF 6
ENDMDL
MODEL 5
REMARK VINA RESULT:      -6.6      1.860      6.936
REMARK  6 active torsions:
REMARK  status: ('A' for Active; 'I' for Inactive)
REMARK    1  A    between atoms: C_2  and  O_22 
REMARK    2  A    between atoms: C_6  and  O_21 
REMARK    3  A    between atoms: C_8  and  O_20 
REMARK    4  A    between atoms: C_9  and  C_10 
REMARK    5  A    between atoms: C_13  and  O_19 
REMARK    6  A    between atoms: C_14  and  O_18 
ROOT
HETATM    1  C   UNK N   1      28.427  18.090   7.282  0.00  0.00     0.074 A 
HETATM    2  C   UNK N   1      29.493  17.686   6.474  0.00  0.00     0.085 A 
HETATM    3  C   UNK N   1      30.628  17.072   7.059  0.00  0.00     0.084 A 
HETATM    4  C   UNK N   1      30.659  16.881   8.459  0.00  0.00     0.096 A 
HETATM    5  C   UNK N   1      29.584  17.291   9.249  0.00  0.00     0.075 A 
HETATM    6  C   UNK N   1      28.472  17.894   8.664  0.00  0.00     0.071 A 
HETATM    7  C   UNK N   1      31.737  16.640   6.308  0.00  0.00     0.223 A 
HETATM    8  C   UNK N   1      32.817  16.045   6.960  0.00  0.00     0.152 A 
HETATM    9  C   UNK N   1      32.773  15.887   8.367  0.00  0.00     0.123 A 
HETATM   10  O   UNK N   1      31.705  16.310   9.040  0.00  0.00    -0.306 OA
HETATM   11  O   UNK N   1      31.770  16.778   5.095  0.00  0.00    -0.284 OA
ENDROOT
BRANCH   9  12
HETATM   12  C   UNK N   1      33.876  15.266   9.139  0.00  0.00     0.004 A 
HETATM   13  C   UNK N   1      33.869  13.880   9.358  0.00  0.00     0.017 A 
HETATM   14  C   UNK N   1      34.899  13.272  10.083  0.00  0.00     0.040 A 
HETATM   15  C   UNK N   1      35.944  14.046  10.593  0.00  0.00     0.098 A 
HETATM   16  C   UNK N   1      35.959  15.429  10.379  0.00  0.00     0.099 A 
HETATM   17  C   UNK N   1      34.931  16.029   9.657  0.00  0.00     0.053 A 
BRANCH  15  18
HETATM   18  O   UNK N   1      36.931  13.457  11.289  0.00  0.00    -0.358 OA
HETATM   19  H   UNK N   1      37.821  13.710  11.143  0.00  0.00     0.217 HD
ENDBRANCH  15  18
BRANCH  16  20
HETATM   20  O   UNK N   1      36.957  16.186  10.864  0.00  0.00    -0.358 OA
HETATM   21  H   UNK N   1      37.781  15.795  11.074  0.00  0.00     0.217 HD
ENDBRANCH  16  20
ENDBRANCH   9  12
BRANCH   8  22
HETATM   22  O   UNK N   1      33.876  15.632   6.239  0.00  0.00    -0.355 OA
HETATM   23  H   UNK N   1      34.249  14.787   6.396  0.00  0.00     0.218 HD
ENDBRANCH   8  22
BRANCH   2  24
HETATM   24  O   UNK N   1      29.416  17.890   5.147  0.00  0.00    -0.360 OA
HETATM   25  H   UNK N   1      28.909  18.602   4.811  0.00  0.00     0.217 HD
ENDBRANCH   2  24
BRANCH   6  26
HETATM   26  O   UNK N   1      27.443  18.286   9.431  0.00  0.00    -0.361 OA
HETATM   27  H   UNK N   1      26.752  18.801   9.061  0.00  0.00     0.217 HD
ENDBRANCH   6  26
TORSDOF 6
ENDMDL
MODEL 6
REMARK VINA RESULT:      -6.6     10.764     12.539
REMARK  6 active torsions:
REMARK  status: ('A' for Active; 'I' for Inactive)
REMARK    1  A    between atoms: C_2  and  O_22 
REMARK    2  A    between atoms: C_6  and  O_21 
REMARK    3  A    between atoms: C_8  and  O_20 
REMARK    4  A    between atoms: C_9  and  C_10 
REMARK    5  A    between atoms: C_13  and  O_19 
REMARK    6  A    between atoms: C_14  and  O_18 
ROOT
HETATM    1  C   UNK N   1      21.202  14.473   8.796  0.00  0.00     0.074 A 
HETATM    2  C   UNK N   1      22.235  14.589   7.863  0.00  0.00     0.085 A 
HETATM    3  C   UNK N   1      22.091  15.464   6.759  0.00  0.00     0.084 A 
HETATM    4  C   UNK N   1      20.896  16.207   6.623  0.00  0.00     0.096 A 
HETATM    5  C   UNK N   1      19.876  16.076   7.566  0.00  0.00     0.075 A 
HETATM    6  C   UNK N   1      20.027  15.213   8.649  0.00  0.00     0.071 A 
HETATM    7  C   UNK N   1      23.089  15.632   5.780  0.00  0.00     0.223 A 
HETATM    8  C   UNK N   1      22.870  16.515   4.722  0.00  0.00     0.152 A 
HETATM    9  C   UNK N   1      21.645  17.224   4.655  0.00  0.00     0.123 A 
HETATM   10  O   UNK N   1      20.727  17.036   5.602  0.00  0.00    -0.306 OA
HETATM   11  O   UNK N   1      24.143  15.019   5.842  0.00  0.00    -0.284 OA
ENDROOT
BRANCH   9  12
HETATM   12  C   UNK N   1      21.331  18.180   3.567  0.00  0.00     0.004 A 
HETATM   13  C   UNK N   1      20.619  17.735   2.442  0.00  0.00     0.017 A 
HETATM   14  C   UNK N   1      20.311  18.619   1.404  0.00  0.00     0.040 A 
HETATM   15  C   UNK N   1      20.714  19.954   1.481  0.00  0.00     0.098 A 
HETATM   16  C   UNK N   1      21.424  20.406   2.599  0.00  0.00     0.099 A 
HETATM   17  C   UNK N   1      21.727  19.522   3.631  0.00  0.00     0.053 A 
BRANCH  15  18
HETATM   18  O   UNK N   1      20.416  20.800   0.480  0.00  0.00    -0.358 OA
HETATM   19  H   UNK N   1      20.339  21.718   0.651  0.00  0.00     0.217 HD
ENDBRANCH  15  18
BRANCH  16  20
HETATM   20  O   UNK N   1      21.817  21.687   2.688  0.00  0.00    -0.358 OA
HETATM   21  H   UNK N   1      21.301  22.364   2.297  0.00  0.00     0.217 HD
ENDBRANCH  16  20
ENDBRANCH   9  12
BRANCH   8  22
HETATM   22  O   UNK N   1      23.825  16.674   3.788  0.00  0.00    -0.355 OA
HETATM   23  H   UNK N   1      23.605  16.623   2.878  0.00  0.00     0.218 HD
ENDBRANCH   8  22
BRANCH   2  24
HETATM   24  O   UNK N   1      23.352  13.861   8.036  0.00  0.00    -0.360 OA
HETATM   25  H   UNK N   1      23.646  13.653   8.901  0.00  0.00     0.217 HD
ENDBRANCH   2  24
BRANCH   6  26
HETATM   26  O   UNK N   1      19.041  15.093   9.551  0.00  0.00    -0.361 OA
HETATM   27  H   UNK N   1      19.013  14.347  10.119  0.00  0.00     0.217 HD
ENDBRANCH   6  26
TORSDOF 6
ENDMDL
MODEL 7
REMARK VINA RESULT:      -6.6     12.497     16.012
REMARK  6 active torsions:
REMARK  status: ('A' for Active; 'I' for Inactive)
REMARK    1  A    between atoms: C_2  and  O_22 
REMARK    2  A    between atoms: C_6  and  O_21 
REMARK    3  A    between atoms: C_8  and  O_20 
REMARK    4  A    between atoms: C_9  and  C_10 
REMARK    5  A    between atoms: C_13  and  O_19 
REMARK    6  A    between atoms: C_14  and  O_18 
ROOT
HETATM    1  C   UNK N   1      31.347  20.818  -4.053  0.00  0.00     0.074 A 
HETATM    2  C   UNK N   1      30.415  21.181  -5.028  0.00  0.00     0.085 A 
HETATM    3  C   UNK N   1      29.718  22.409  -4.914  0.00  0.00     0.084 A 
HETATM    4  C   UNK N   1      29.984  23.247  -3.808  0.00  0.00     0.096 A 
HETATM    5  C   UNK N   1      30.919  22.867  -2.844  0.00  0.00     0.075 A 
HETATM    6  C   UNK N   1      31.599  21.656  -2.966  0.00  0.00     0.071 A 
HETATM    7  C   UNK N   1      28.766  22.839  -5.857  0.00  0.00     0.223 A 
HETATM    8  C   UNK N   1      28.123  24.064  -5.672  0.00  0.00     0.152 A 
HETATM    9  C   UNK N   1      28.443  24.848  -4.536  0.00  0.00     0.123 A 
HETATM   10  O   UNK N   1      29.350  24.404  -3.669  0.00  0.00    -0.306 OA
HETATM   11  O   UNK N   1      28.494  22.160  -6.834  0.00  0.00    -0.284 OA
ENDROOT
BRANCH   9  12
HETATM   12  C   UNK N   1      27.808  26.159  -4.264  0.00  0.00     0.004 A 
HETATM   13  C   UNK N   1      26.568  26.203  -3.609  0.00  0.00     0.017 A 
HETATM   14  C   UNK N   1      25.950  27.428  -3.341  0.00  0.00     0.040 A 
HETATM   15  C   UNK N   1      26.568  28.620  -3.727  0.00  0.00     0.098 A 
HETATM   16  C   UNK N   1      27.805  28.586  -4.381  0.00  0.00     0.099 A 
HETATM   17  C   UNK N   1      28.416  27.363  -4.645  0.00  0.00     0.053 A 
BRANCH  15  18
HETATM   18  O   UNK N   1      25.971  29.795  -3.468  0.00  0.00    -0.358 OA
HETATM   19  H   UNK N   1      26.124  30.228  -2.651  0.00  0.00     0.217 HD
ENDBRANCH  15  18
BRANCH  16  20
HETATM   20  O   UNK N   1      28.411  29.724  -4.758  0.00  0.00    -0.358 OA
HETATM   21  H   UNK N   1      28.536  29.909  -5.667  0.00  0.00     0.217 HD
ENDBRANCH  16  20
ENDBRANCH   9  12
BRANCH   8  22
HETATM   22  O   UNK N   1      27.213  24.473  -6.575  0.00  0.00    -0.355 OA
HETATM   23  H   UNK N   1      27.411  25.187  -7.149  0.00  0.00     0.218 HD
ENDBRANCH   8  22
BRANCH   2  24
HETATM   24  O   UNK N   1      30.198  20.349  -6.063  0.00  0.00    -0.360 OA
HETATM   25  H   UNK N   1      30.238  20.673  -6.941  0.00  0.00     0.217 HD
ENDBRANCH   2  24
BRANCH   6  26
HETATM   26  O   UNK N   1      32.496  21.298  -2.035  0.00  0.00    -0.361 OA
HETATM   27  H   UNK N   1      33.401  21.520  -2.146  0.00  0.00     0.217 HD
ENDBRANCH   6  26
TORSDOF 6
ENDMDL
MODEL 8
REMARK VINA RESULT:      -6.4     12.557     14.699
REMARK  6 active torsions:
REMARK  status: ('A' for Active; 'I' for Inactive)
REMARK    1  A    between atoms: C_2  and  O_22 
REMARK    2  A    between atoms: C_6  and  O_21 
REMARK    3  A    between atoms: C_8  and  O_20 
REMARK    4  A    between atoms: C_9  and  C_10 
REMARK    5  A    between atoms: C_13  and  O_19 
REMARK    6  A    between atoms: C_14  and  O_18 
ROOT
HETATM    1  C   UNK N   1      32.993  19.651  -5.811  0.00  0.00     0.074 A 
HETATM    2  C   UNK N   1      32.869  20.180  -4.523  0.00  0.00     0.085 A 
HETATM    3  C   UNK N   1      31.909  21.189  -4.266  0.00  0.00     0.084 A 
HETATM    4  C   UNK N   1      31.091  21.644  -5.325  0.00  0.00     0.096 A 
HETATM    5  C   UNK N   1      31.231  21.104  -6.604  0.00  0.00     0.075 A 
HETATM    6  C   UNK N   1      32.178  20.111  -6.847  0.00  0.00     0.071 A 
HETATM    7  C   UNK N   1      31.729  21.768  -2.996  0.00  0.00     0.223 A 
HETATM    8  C   UNK N   1      30.761  22.758  -2.825  0.00  0.00     0.152 A 
HETATM    9  C   UNK N   1      29.979  23.161  -3.936  0.00  0.00     0.123 A 
HETATM   10  O   UNK N   1      30.183  22.588  -5.120  0.00  0.00    -0.306 OA
HETATM   11  O   UNK N   1      32.404  21.417  -2.041  0.00  0.00    -0.284 OA
ENDROOT
BRANCH   9  12
HETATM   12  C   UNK N   1      28.931  24.204  -3.842  0.00  0.00     0.004 A 
HETATM   13  C   UNK N   1      27.639  23.849  -3.426  0.00  0.00     0.017 A 
HETATM   14  C   UNK N   1      26.634  24.817  -3.330  0.00  0.00     0.040 A 
HETATM   15  C   UNK N   1      26.915  26.148  -3.649  0.00  0.00     0.098 A 
HETATM   16  C   UNK N   1      28.201  26.511  -4.065  0.00  0.00     0.099 A 
HETATM   17  C   UNK N   1      29.197  25.543  -4.159  0.00  0.00     0.053 A 
BRANCH  15  18
HETATM   18  O   UNK N   1      25.946  27.074  -3.556  0.00  0.00    -0.358 OA
HETATM   19  H   UNK N   1      25.074  26.818  -3.327  0.00  0.00     0.217 HD
ENDBRANCH  15  18
BRANCH  16  20
HETATM   20  O   UNK N   1      28.484  27.786  -4.375  0.00  0.00    -0.358 OA
HETATM   21  H   UNK N   1      28.004  28.484  -3.976  0.00  0.00     0.217 HD
ENDBRANCH  16  20
ENDBRANCH   9  12
BRANCH   8  22
HETATM   22  O   UNK N   1      30.590  23.309  -1.609  0.00  0.00    -0.355 OA
HETATM   23  H   UNK N   1      29.726  23.412  -1.258  0.00  0.00     0.218 HD
ENDBRANCH   8  22
BRANCH   2  24
HETATM   24  O   UNK N   1      33.670  19.714  -3.549  0.00  0.00    -0.360 OA
HETATM   25  H   UNK N   1      33.383  19.733  -2.657  0.00  0.00     0.217 HD
ENDBRANCH   2  24
BRANCH   6  26
HETATM   26  O   UNK N   1      32.305  19.596  -8.079  0.00  0.00    -0.361 OA
HETATM   27  H   UNK N   1      33.070  19.101  -8.304  0.00  0.00     0.217 HD
ENDBRANCH   6  26
TORSDOF 6
ENDMDL
MODEL 9
REMARK VINA RESULT:      -6.4      2.200      2.475
REMARK  6 active torsions:
REMARK  status: ('A' for Active; 'I' for Inactive)
REMARK    1  A    between atoms: C_2  and  O_22 
REMARK    2  A    between atoms: C_6  and  O_21 
REMARK    3  A    between atoms: C_8  and  O_20 
REMARK    4  A    between atoms: C_9  and  C_10 
REMARK    5  A    between atoms: C_13  and  O_19 
REMARK    6  A    between atoms: C_14  and  O_18 
ROOT
HETATM    1  C   UNK N   1      35.019  15.944  11.004  0.00  0.00     0.074 A 
HETATM    2  C   UNK N   1      35.034  16.844   9.935  0.00  0.00     0.085 A 
HETATM    3  C   UNK N   1      34.295  16.558   8.762  0.00  0.00     0.084 A 
HETATM    4  C   UNK N   1      33.551  15.357   8.696  0.00  0.00     0.096 A 
HETATM    5  C   UNK N   1      33.549  14.471   9.774  0.00  0.00     0.075 A 
HETATM    6  C   UNK N   1      34.280  14.763  10.924  0.00  0.00     0.071 A 
HETATM    7  C   UNK N   1      34.263  17.417   7.648  0.00  0.00     0.223 A 
HETATM    8  C   UNK N   1      33.509  17.061   6.529  0.00  0.00     0.152 A 
HETATM    9  C   UNK N   1      32.791  15.840   6.539  0.00  0.00     0.123 A 
HETATM   10  O   UNK N   1      32.847  15.056   7.613  0.00  0.00    -0.306 OA
HETATM   11  O   UNK N   1      34.884  18.468   7.644  0.00  0.00    -0.284 OA
ENDROOT
BRANCH   9  12
HETATM   12  C   UNK N   1      31.966  15.386   5.393  0.00  0.00     0.004 A 
HETATM   13  C   UNK N   1      30.605  15.727   5.345  0.00  0.00     0.017 A 
HETATM   14  C   UNK N   1      29.809  15.310   4.275  0.00  0.00     0.040 A 
HETATM   15  C   UNK N   1      30.367  14.549   3.244  0.00  0.00     0.098 A 
HETATM   16  C   UNK N   1      31.723  14.205   3.285  0.00  0.00     0.099 A 
HETATM   17  C   UNK N   1      32.511  14.623   4.353  0.00  0.00     0.053 A 
BRANCH  15  18
HETATM   18  O   UNK N   1      29.597  14.151   2.218  0.00  0.00    -0.358 OA
HETATM   19  H   UNK N   1      29.040  14.767   1.783  0.00  0.00     0.217 HD
ENDBRANCH  15  18
BRANCH  16  20
HETATM   20  O   UNK N   1      32.272  13.474   2.301  0.00  0.00    -0.358 OA
HETATM   21  H   UNK N   1      32.690  13.899   1.579  0.00  0.00     0.217 HD
ENDBRANCH  16  20
ENDBRANCH   9  12
BRANCH   8  22
HETATM   22  O   UNK N   1      33.481  17.884   5.464  0.00  0.00    -0.355 OA
HETATM   23  H   UNK N   1      32.741  17.881   4.889  0.00  0.00     0.218 HD
ENDBRANCH   8  22
BRANCH   2  24
HETATM   24  O   UNK N   1      35.757  17.973  10.046  0.00  0.00    -0.360 OA
HETATM   25  H   UNK N   1      36.661  17.977   9.800  0.00  0.00     0.217 HD
ENDBRANCH   2  24
BRANCH   6  26
HETATM   26  O   UNK N   1      34.273  13.905  11.956  0.00  0.00    -0.361 OA
HETATM   27  H   UNK N   1      34.671  13.061  11.867  0.00  0.00     0.217 HD
ENDBRANCH   6  26
TORSDOF 6
ENDMDL
