MODEL 1
REMARK VINA RESULT:      -6.7      0.000      0.000
REMARK  13 active torsions:
REMARK  status: ('A' for Active; 'I' for Inactive)
REMARK    1  A    between atoms: C_1  and  O_3 
REMARK    2  A    between atoms: C_1  and  C_4 
REMARK    3  A    between atoms: C_4  and  C_5 
REMARK    4  A    between atoms: C_5  and  O_6 
REMARK    5  A    between atoms: C_5  and  C_7 
REMARK       I    between atoms: C_7  and  N_9 
REMARK    6  A    between atoms: C_10  and  N_9 
REMARK    7  A    between atoms: C_10  and  C_11 
REMARK    8  A    between atoms: C_10  and  C_19 
REMARK    9  A    between atoms: C_11  and  C_12 
REMARK   10  A    between atoms: C_12  and  C_13 
REMARK       I    between atoms: C_19  and  N_20 
REMARK   11  A    between atoms: N_20  and  C_21 
REMARK   12  A    between atoms: C_21  and  C_22 
REMARK   13  A    between atoms: C_22  and  C_23 
ROOT
HETATM    1  C   UNK N   1      31.986  16.852   7.897  0.00  0.00     0.177 C 
ENDROOT
BRANCH   1   2
HETATM    2  N   UNK N   1      32.325  16.072   9.077  0.00  0.00    -0.346 N 
HETATM    3  C   UNK N   1      32.698  14.764   9.111  0.00  0.00     0.247 C 
HETATM    4  O   UNK N   1      32.320  13.974   8.262  0.00  0.00    -0.271 OA
HETATM    5  H   UNK N   1      32.278  16.540   9.942  0.00  0.00     0.163 HD
BRANCH   3   6
HETATM    6  C   UNK N   1      33.794  14.398  10.077  0.00  0.00     0.219 C 
BRANCH   6   7
HETATM    7  C   UNK N   1      35.154  14.936   9.633  0.00  0.00     0.151 C 
BRANCH   7   8
HETATM    8  C   UNK N   1      35.577  16.157  10.368  0.00  0.00     0.142 C 
HETATM    9  O   UNK N   1      36.659  16.188  10.928  0.00  0.00    -0.650 OA
BRANCH   8  10
HETATM   10  O   UNK N   1      34.791  17.250  10.359  0.00  0.00    -0.776 OA
HETATM   11  H   UNK N   1      34.913  17.940  10.980  0.00  0.00     0.167 HD
ENDBRANCH   8  10
ENDBRANCH   7   8
ENDBRANCH   6   7
BRANCH   6  12
HETATM   12  O   UNK N   1      33.505  15.037  11.285  0.00  0.00    -0.386 OA
HETATM   13  H   UNK N   1      32.832  15.481  11.825  0.00  0.00     0.210 HD
ENDBRANCH   6  12
ENDBRANCH   3   6
ENDBRANCH   1   2
BRANCH   1  14
HETATM   14  C   UNK N   1      30.829  17.717   8.396  0.00  0.00     0.039 C 
BRANCH  14  15
HETATM   15  C   UNK N   1      29.439  17.246   8.019  0.00  0.00     0.041 C 
BRANCH  15  16
HETATM   16  C   UNK N   1      28.809  18.198   7.075  0.00  0.00    -0.058 A 
HETATM   17  C   UNK N   1      28.165  19.331   7.574  0.00  0.00     0.007 A 
HETATM   18  C   UNK N   1      27.553  20.227   6.695  0.00  0.00     0.001 A 
HETATM   19  C   UNK N   1      27.589  19.991   5.317  0.00  0.00     0.000 A 
HETATM   20  C   UNK N   1      28.233  18.856   4.816  0.00  0.00     0.001 A 
HETATM   21  C   UNK N   1      28.839  17.956   5.695  0.00  0.00     0.007 A 
ENDBRANCH  15  16
ENDBRANCH  14  15
ENDBRANCH   1  14
BRANCH   1  22
HETATM   22  C   UNK N   1      33.106  17.789   7.451  0.00  0.00     0.240 C 
HETATM   23  N   UNK N   1      33.724  17.690   6.252  0.00  0.00    -0.359 N 
HETATM   24  H   UNK N   1      34.474  18.304   6.082  0.00  0.00     0.162 HD
HETATM   25  O   UNK N   1      33.451  18.691   8.204  0.00  0.00    -0.271 OA
BRANCH  23  26
HETATM   26  C   UNK N   1      33.379  16.766   5.201  0.00  0.00     0.123 C 
BRANCH  26  27
HETATM   27  C   UNK N   1      32.244  17.342   4.338  0.00  0.00     0.023 C 
BRANCH  27  28
HETATM   28  C   UNK N   1      31.947  16.541   3.061  0.00  0.00    -0.021 C 
HETATM   29  C   UNK N   1      32.469  15.117   3.143  0.00  0.00     0.009 C 
HETATM   30  C   UNK N   1      30.456  16.508   2.798  0.00  0.00     0.009 C 
ENDBRANCH  27  28
ENDBRANCH  26  27
ENDBRANCH  23  26
ENDBRANCH   1  22
TORSDOF 13
ENDMDL
MODEL 2
REMARK VINA RESULT:      -6.5      9.165     12.417
REMARK  13 active torsions:
REMARK  status: ('A' for Active; 'I' for Inactive)
REMARK    1  A    between atoms: C_1  and  O_3 
REMARK    2  A    between atoms: C_1  and  C_4 
REMARK    3  A    between atoms: C_4  and  C_5 
REMARK    4  A    between atoms: C_5  and  O_6 
REMARK    5  A    between atoms: C_5  and  C_7 
REMARK       I    between atoms: C_7  and  N_9 
REMARK    6  A    between atoms: C_10  and  N_9 
REMARK    7  A    between atoms: C_10  and  C_11 
REMARK    8  A    between atoms: C_10  and  C_19 
REMARK    9  A    between atoms: C_11  and  C_12 
REMARK   10  A    between atoms: C_12  and  C_13 
REMARK       I    between atoms: C_19  and  N_20 
REMARK   11  A    between atoms: N_20  and  C_21 
REMARK   12  A    between atoms: C_21  and  C_22 
REMARK   13  A    between atoms: C_22  and  C_23 
ROOT
HETATM    1  C   UNK N   1      21.706  16.770   5.412  0.00  0.00     0.177 C 
ENDROOT
BRANCH   1   2
HETATM    2  N   UNK N   1      21.276  17.297   4.125  0.00  0.00    -0.346 N 
HETATM    3  C   UNK N   1      19.995  17.501   3.714  0.00  0.00     0.247 C 
HETATM    4  O   UNK N   1      19.075  16.826   4.144  0.00  0.00    -0.271 OA
HETATM    5  H   UNK N   1      21.988  17.529   3.485  0.00  0.00     0.163 HD
BRANCH   3   6
HETATM    6  C   UNK N   1      19.732  18.752   2.916  0.00  0.00     0.219 C 
BRANCH   6   7
HETATM    7  C   UNK N   1      20.659  18.866   1.706  0.00  0.00     0.151 C 
BRANCH   7   8
HETATM    8  C   UNK N   1      20.875  20.267   1.256  0.00  0.00     0.142 C 
HETATM    9  O   UNK N   1      21.344  21.088   2.024  0.00  0.00    -0.650 OA
BRANCH   8  10
HETATM   10  O   UNK N   1      20.613  20.607  -0.020  0.00  0.00    -0.776 OA
HETATM   11  H   UNK N   1      21.301  20.848  -0.609  0.00  0.00     0.167 HD
ENDBRANCH   8  10
ENDBRANCH   7   8
ENDBRANCH   6   7
BRANCH   6  12
HETATM   12  O   UNK N   1      18.439  18.643   2.400  0.00  0.00    -0.386 OA
HETATM   13  H   UNK N   1      17.891  18.516   1.609  0.00  0.00     0.210 HD
ENDBRANCH   6  12
ENDBRANCH   3   6
ENDBRANCH   1   2
BRANCH   1  14
HETATM   14  C   UNK N   1      23.220  16.968   5.358  0.00  0.00     0.039 C 
BRANCH  14  15
HETATM   15  C   UNK N   1      23.837  16.992   3.974  0.00  0.00     0.041 C 
BRANCH  15  16
HETATM   16  C   UNK N   1      24.724  18.170   3.824  0.00  0.00    -0.058 A 
HETATM   17  C   UNK N   1      24.169  19.409   3.505  0.00  0.00     0.007 A 
HETATM   18  C   UNK N   1      24.998  20.522   3.345  0.00  0.00     0.001 A 
HETATM   19  C   UNK N   1      26.381  20.395   3.509  0.00  0.00     0.000 A 
HETATM   20  C   UNK N   1      26.938  19.153   3.829  0.00  0.00     0.001 A 
HETATM   21  C   UNK N   1      26.111  18.039   3.981  0.00  0.00     0.007 A 
ENDBRANCH  15  16
ENDBRANCH  14  15
ENDBRANCH   1  14
BRANCH   1  22
HETATM   22  C   UNK N   1      21.176  17.571   6.599  0.00  0.00     0.240 C 
HETATM   23  N   UNK N   1      20.385  17.041   7.558  0.00  0.00    -0.359 N 
HETATM   24  H   UNK N   1      20.047  17.654   8.250  0.00  0.00     0.162 HD
HETATM   25  O   UNK N   1      21.500  18.747   6.704  0.00  0.00    -0.271 OA
BRANCH  23  26
HETATM   26  C   UNK N   1      19.994  15.656   7.657  0.00  0.00     0.123 C 
BRANCH  26  27
HETATM   27  C   UNK N   1      20.248  15.133   9.080  0.00  0.00     0.023 C 
BRANCH  27  28
HETATM   28  C   UNK N   1      21.292  14.008   9.166  0.00  0.00    -0.021 C 
HETATM   29  C   UNK N   1      21.006  13.045  10.305  0.00  0.00     0.009 C 
HETATM   30  C   UNK N   1      21.338  13.237   7.863  0.00  0.00     0.009 C 
ENDBRANCH  27  28
ENDBRANCH  26  27
ENDBRANCH  23  26
ENDBRANCH   1  22
TORSDOF 13
ENDMDL
MODEL 3
REMARK VINA RESULT:      -6.4      1.624      4.399
REMARK  13 active torsions:
REMARK  status: ('A' for Active; 'I' for Inactive)
REMARK    1  A    between atoms: C_1  and  O_3 
REMARK    2  A    between atoms: C_1  and  C_4 
REMARK    3  A    between atoms: C_4  and  C_5 
REMARK    4  A    between atoms: C_5  and  O_6 
REMARK    5  A    between atoms: C_5  and  C_7 
REMARK       I    between atoms: C_7  and  N_9 
REMARK    6  A    between atoms: C_10  and  N_9 
REMARK    7  A    between atoms: C_10  and  C_11 
REMARK    8  A    between atoms: C_10  and  C_19 
REMARK    9  A    between atoms: C_11  and  C_12 
REMARK   10  A    between atoms: C_12  and  C_13 
REMARK       I    between atoms: C_19  and  N_20 
REMARK   11  A    between atoms: N_20  and  C_21 
REMARK   12  A    between atoms: C_21  and  C_22 
REMARK   13  A    between atoms: C_22  and  C_23 
ROOT
HETATM    1  C   UNK N   1      33.236  16.794   8.579  0.00  0.00     0.177 C 
ENDROOT
BRANCH   1   2
HETATM    2  N   UNK N   1      34.411  16.219   9.216  0.00  0.00    -0.346 N 
HETATM    3  C   UNK N   1      35.338  16.876   9.965  0.00  0.00     0.247 C 
HETATM    4  O   UNK N   1      35.578  18.058   9.782  0.00  0.00    -0.271 OA
HETATM    5  H   UNK N   1      34.550  15.252   9.092  0.00  0.00     0.163 HD
BRANCH   3   6
HETATM    6  C   UNK N   1      35.855  16.160  11.185  0.00  0.00     0.219 C 
BRANCH   6   7
HETATM    7  C   UNK N   1      35.041  14.905  11.501  0.00  0.00     0.151 C 
BRANCH   7   8
HETATM    8  C   UNK N   1      35.497  14.197  12.726  0.00  0.00     0.142 C 
HETATM    9  O   UNK N   1      34.791  13.345  13.237  0.00  0.00    -0.650 OA
BRANCH   8  10
HETATM   10  O   UNK N   1      36.719  14.452  13.231  0.00  0.00    -0.776 OA
HETATM   11  H   UNK N   1      37.314  15.027  12.793  0.00  0.00     0.167 HD
ENDBRANCH   8  10
ENDBRANCH   7   8
ENDBRANCH   6   7
BRANCH   6  12
HETATM   12  O   UNK N   1      37.144  15.715  10.881  0.00  0.00    -0.386 OA
HETATM   13  H   UNK N   1      38.054  15.594  11.196  0.00  0.00     0.210 HD
ENDBRANCH   6  12
ENDBRANCH   3   6
ENDBRANCH   1   2
BRANCH   1  14
HETATM   14  C   UNK N   1      33.467  16.463   7.105  0.00  0.00     0.039 C 
BRANCH  14  15
HETATM   15  C   UNK N   1      33.284  17.610   6.132  0.00  0.00     0.041 C 
BRANCH  15  16
HETATM   16  C   UNK N   1      32.350  17.223   5.048  0.00  0.00    -0.058 A 
HETATM   17  C   UNK N   1      32.785  17.261   3.724  0.00  0.00     0.007 A 
HETATM   18  C   UNK N   1      31.909  16.915   2.693  0.00  0.00     0.001 A 
HETATM   19  C   UNK N   1      30.598  16.528   2.989  0.00  0.00     0.000 A 
HETATM   20  C   UNK N   1      30.160  16.490   4.316  0.00  0.00     0.001 A 
HETATM   21  C   UNK N   1      31.034  16.844   5.346  0.00  0.00     0.007 A 
ENDBRANCH  15  16
ENDBRANCH  14  15
ENDBRANCH   1  14
BRANCH   1  22
HETATM   22  C   UNK N   1      31.931  16.126   9.004  0.00  0.00     0.240 C 
HETATM   23  N   UNK N   1      30.777  16.804   9.195  0.00  0.00    -0.359 N 
HETATM   24  H   UNK N   1      30.005  16.292   9.526  0.00  0.00     0.162 HD
HETATM   25  O   UNK N   1      31.917  14.911   9.160  0.00  0.00    -0.271 OA
BRANCH  23  26
HETATM   26  C   UNK N   1      30.579  18.212   8.954  0.00  0.00     0.123 C 
BRANCH  26  27
HETATM   27  C   UNK N   1      29.081  18.517   8.788  0.00  0.00     0.023 C 
BRANCH  27  28
HETATM   28  C   UNK N   1      28.574  18.434   7.339  0.00  0.00    -0.021 C 
HETATM   29  C   UNK N   1      27.733  17.193   7.095  0.00  0.00     0.009 C 
HETATM   30  C   UNK N   1      27.755  19.663   7.001  0.00  0.00     0.009 C 
ENDBRANCH  27  28
ENDBRANCH  26  27
ENDBRANCH  23  26
ENDBRANCH   1  22
TORSDOF 13
ENDMDL
MODEL 4
REMARK VINA RESULT:      -6.3     12.163     14.842
REMARK  13 active torsions:
REMARK  status: ('A' for Active; 'I' for Inactive)
REMARK    1  A    between atoms: C_1  and  O_3 
REMARK    2  A    between atoms: C_1  and  C_4 
REMARK    3  A    between atoms: C_4  and  C_5 
REMARK    4  A    between atoms: C_5  and  O_6 
REMARK    5  A    between atoms: C_5  and  C_7 
REMARK       I    between atoms: C_7  and  N_9 
REMARK    6  A    between atoms: C_10  and  N_9 
REMARK    7  A    between atoms: C_10  and  C_11 
REMARK    8  A    between atoms: C_10  and  C_19 
REMARK    9  A    between atoms: C_11  and  C_12 
REMARK   10  A    between atoms: C_12  and  C_13 
REMARK       I    between atoms: C_19  and  N_20 
REMARK   11  A    between atoms: N_20  and  C_21 
REMARK   12  A    between atoms: C_21  and  C_22 
REMARK   13  A    between atoms: C_22  and  C_23 
ROOT
HETATM    1  C   UNK N   1      29.290  23.925  -4.570  0.00  0.00     0.177 C 
ENDROOT
BRANCH   1   2
HETATM    2  N   UNK N   1      29.821  22.594  -4.318  0.00  0.00    -0.346 N 
HETATM    3  C   UNK N   1      30.083  21.632  -5.244  0.00  0.00     0.247 C 
HETATM    4  O   UNK N   1      29.459  21.571  -6.290  0.00  0.00    -0.271 OA
HETATM    5  H   UNK N   1      30.011  22.367  -3.379  0.00  0.00     0.163 HD
BRANCH   3   6
HETATM    6  C   UNK N   1      31.336  20.820  -5.040  0.00  0.00     0.219 C 
BRANCH   6   7
HETATM    7  C   UNK N   1      32.483  21.663  -4.483  0.00  0.00     0.151 C 
BRANCH   7   8
HETATM    8  C   UNK N   1      32.687  21.494  -3.021  0.00  0.00     0.142 C 
HETATM    9  O   UNK N   1      33.650  20.872  -2.608  0.00  0.00    -0.650 OA
BRANCH   8  10
HETATM   10  O   UNK N   1      31.842  22.084  -2.154  0.00  0.00    -0.776 OA
HETATM   11  H   UNK N   1      30.961  22.290  -2.399  0.00  0.00     0.167 HD
ENDBRANCH   8  10
ENDBRANCH   7   8
ENDBRANCH   6   7
BRANCH   6  12
HETATM   12  O   UNK N   1      31.050  19.867  -4.060  0.00  0.00    -0.386 OA
HETATM   13  H   UNK N   1      31.253  18.988  -3.702  0.00  0.00     0.210 HD
ENDBRANCH   6  12
ENDBRANCH   3   6
ENDBRANCH   1   2
BRANCH   1  14
HETATM   14  C   UNK N   1      27.945  23.884  -3.847  0.00  0.00     0.039 C 
BRANCH  14  15
HETATM   15  C   UNK N   1      26.716  24.012  -4.725  0.00  0.00     0.041 C 
BRANCH  15  16
HETATM   16  C   UNK N   1      26.181  25.393  -4.665  0.00  0.00    -0.058 A 
HETATM   17  C   UNK N   1      26.515  26.210  -3.585  0.00  0.00     0.007 A 
HETATM   18  C   UNK N   1      26.003  27.507  -3.508  0.00  0.00     0.001 A 
HETATM   19  C   UNK N   1      25.159  27.986  -4.515  0.00  0.00     0.000 A 
HETATM   20  C   UNK N   1      24.823  27.169  -5.598  0.00  0.00     0.001 A 
HETATM   21  C   UNK N   1      25.329  25.870  -5.671  0.00  0.00     0.007 A 
ENDBRANCH  15  16
ENDBRANCH  14  15
ENDBRANCH   1  14
BRANCH   1  22
HETATM   22  C   UNK N   1      30.122  25.037  -3.935  0.00  0.00     0.240 C 
HETATM   23  N   UNK N   1      30.245  26.271  -4.473  0.00  0.00    -0.359 N 
HETATM   24  H   UNK N   1      30.852  26.900  -4.020  0.00  0.00     0.162 HD
HETATM   25  O   UNK N   1      30.691  24.812  -2.875  0.00  0.00    -0.271 OA
BRANCH  23  26
HETATM   26  C   UNK N   1      29.564  26.748  -5.652  0.00  0.00     0.123 C 
BRANCH  26  27
HETATM   27  C   UNK N   1      29.906  28.226  -5.901  0.00  0.00     0.023 C 
BRANCH  27  28
HETATM   28  C   UNK N   1      28.799  29.023  -6.609  0.00  0.00    -0.021 C 
HETATM   29  C   UNK N   1      27.830  28.122  -7.355  0.00  0.00     0.009 C 
HETATM   30  C   UNK N   1      28.029  29.855  -5.603  0.00  0.00     0.009 C 
ENDBRANCH  27  28
ENDBRANCH  26  27
ENDBRANCH  23  26
ENDBRANCH   1  22
TORSDOF 13
ENDMDL
MODEL 5
REMARK VINA RESULT:      -6.1      2.889      5.022
REMARK  13 active torsions:
REMARK  status: ('A' for Active; 'I' for Inactive)
REMARK    1  A    between atoms: C_1  and  O_3 
REMARK    2  A    between atoms: C_1  and  C_4 
REMARK    3  A    between atoms: C_4  and  C_5 
REMARK    4  A    between atoms: C_5  and  O_6 
REMARK    5  A    between atoms: C_5  and  C_7 
REMARK       I    between atoms: C_7  and  N_9 
REMARK    6  A    between atoms: C_10  and  N_9 
REMARK    7  A    between atoms: C_10  and  C_11 
REMARK    8  A    between atoms: C_10  and  C_19 
REMARK    9  A    between atoms: C_11  and  C_12 
REMARK   10  A    between atoms: C_12  and  C_13 
REMARK       I    between atoms: C_19  and  N_20 
REMARK   11  A    between atoms: N_20  and  C_21 
REMARK   12  A    between atoms: C_21  and  C_22 
REMARK   13  A    between atoms: C_22  and  C_23 
ROOT
HETATM    1  C   UNK N   1      28.797  17.557   7.060  0.00  0.00     0.177 C 
ENDROOT
BRANCH   1   2
HETATM    2  N   UNK N   1      29.989  16.889   7.560  0.00  0.00    -0.346 N 
HETATM    3  C   UNK N   1      31.243  16.956   7.036  0.00  0.00     0.247 C 
HETATM    4  O   UNK N   1      31.423  17.157   5.846  0.00  0.00    -0.271 OA
HETATM    5  H   UNK N   1      29.876  16.328   8.362  0.00  0.00     0.163 HD
BRANCH   3   6
HETATM    6  C   UNK N   1      32.384  17.035   8.017  0.00  0.00     0.219 C 
BRANCH   6   7
HETATM    7  C   UNK N   1      33.469  18.009   7.558  0.00  0.00     0.151 C 
BRANCH   7   8
HETATM    8  C   UNK N   1      34.531  18.234   8.574  0.00  0.00     0.142 C 
HETATM    9  O   UNK N   1      35.314  19.159   8.443  0.00  0.00    -0.650 OA
BRANCH   8  10
HETATM   10  O   UNK N   1      34.582  17.456   9.671  0.00  0.00    -0.776 OA
HETATM   11  H   UNK N   1      34.746  16.536   9.606  0.00  0.00     0.167 HD
ENDBRANCH   8  10
ENDBRANCH   7   8
ENDBRANCH   6   7
BRANCH   6  12
HETATM   12  O   UNK N   1      31.869  17.565   9.201  0.00  0.00    -0.386 OA
HETATM   13  H   UNK N   1      31.084  17.897   9.666  0.00  0.00     0.210 HD
ENDBRANCH   6  12
ENDBRANCH   3   6
ENDBRANCH   1   2
BRANCH   1  14
HETATM   14  C   UNK N   1      27.954  16.387   6.553  0.00  0.00     0.039 C 
BRANCH  14  15
HETATM   15  C   UNK N   1      26.733  16.757   5.734  0.00  0.00     0.041 C 
BRANCH  15  16
HETATM   16  C   UNK N   1      26.749  16.045   4.435  0.00  0.00    -0.058 A 
HETATM   17  C   UNK N   1      27.573  14.931   4.274  0.00  0.00     0.007 A 
HETATM   18  C   UNK N   1      27.608  14.262   3.049  0.00  0.00     0.001 A 
HETATM   19  C   UNK N   1      26.817  14.707   1.986  0.00  0.00     0.000 A 
HETATM   20  C   UNK N   1      25.991  15.824   2.145  0.00  0.00     0.001 A 
HETATM   21  C   UNK N   1      25.961  16.497   3.367  0.00  0.00     0.007 A 
ENDBRANCH  15  16
ENDBRANCH  14  15
ENDBRANCH   1  14
BRANCH   1  22
HETATM   22  C   UNK N   1      27.999  18.264   8.153  0.00  0.00     0.240 C 
HETATM   23  N   UNK N   1      27.541  19.530   8.035  0.00  0.00    -0.359 N 
HETATM   24  H   UNK N   1      27.087  19.918   8.819  0.00  0.00     0.162 HD
HETATM   25  O   UNK N   1      27.739  17.650   9.180  0.00  0.00    -0.271 OA
BRANCH  23  26
HETATM   26  C   UNK N   1      27.656  20.362   6.863  0.00  0.00     0.123 C 
BRANCH  26  27
HETATM   27  C   UNK N   1      26.301  20.453   6.141  0.00  0.00     0.023 C 
BRANCH  27  28
HETATM   28  C   UNK N   1      26.404  20.559   4.611  0.00  0.00    -0.021 C 
HETATM   29  C   UNK N   1      27.613  19.819   4.064  0.00  0.00     0.009 C 
HETATM   30  C   UNK N   1      25.150  20.008   3.964  0.00  0.00     0.009 C 
ENDBRANCH  27  28
ENDBRANCH  26  27
ENDBRANCH  23  26
ENDBRANCH   1  22
TORSDOF 13
ENDMDL
MODEL 6
REMARK VINA RESULT:      -6.1     12.158     14.836
REMARK  13 active torsions:
REMARK  status: ('A' for Active; 'I' for Inactive)
REMARK    1  A    between atoms: C_1  and  O_3 
REMARK    2  A    between atoms: C_1  and  C_4 
REMARK    3  A    between atoms: C_4  and  C_5 
REMARK    4  A    between atoms: C_5  and  O_6 
REMARK    5  A    between atoms: C_5  and  C_7 
REMARK       I    between atoms: C_7  and  N_9 
REMARK    6  A    between atoms: C_10  and  N_9 
REMARK    7  A    between atoms: C_10  and  C_11 
REMARK    8  A    between atoms: C_10  and  C_19 
REMARK    9  A    between atoms: C_11  and  C_12 
REMARK   10  A    between atoms: C_12  and  C_13 
REMARK       I    between atoms: C_19  and  N_20 
REMARK   11  A    between atoms: N_20  and  C_21 
REMARK   12  A    between atoms: C_21  and  C_22 
REMARK   13  A    between atoms: C_22  and  C_23 
ROOT
HETATM    1  C   UNK N   1      28.719  23.249  -5.358  0.00  0.00     0.177 C 
ENDROOT
BRANCH   1   2
HETATM    2  N   UNK N   1      29.596  22.254  -4.760  0.00  0.00    -0.346 N 
HETATM    3  C   UNK N   1      30.186  21.202  -5.389  0.00  0.00     0.247 C 
HETATM    4  O   UNK N   1      29.677  20.681  -6.367  0.00  0.00    -0.271 OA
HETATM    5  H   UNK N   1      29.781  22.353  -3.798  0.00  0.00     0.163 HD
BRANCH   3   6
HETATM    6  C   UNK N   1      31.604  20.884  -4.992  0.00  0.00     0.219 C 
BRANCH   6   7
HETATM    7  C   UNK N   1      32.242  22.017  -4.186  0.00  0.00     0.151 C 
BRANCH   7   8
HETATM    8  C   UNK N   1      32.103  21.848  -2.716  0.00  0.00     0.142 C 
HETATM    9  O   UNK N   1      31.156  22.345  -2.132  0.00  0.00    -0.650 OA
BRANCH   8  10
HETATM   10  O   UNK N   1      32.989  21.090  -2.043  0.00  0.00    -0.776 OA
HETATM   11  H   UNK N   1      33.235  20.240  -2.353  0.00  0.00     0.167 HD
ENDBRANCH   8  10
ENDBRANCH   7   8
ENDBRANCH   6   7
BRANCH   6  12
HETATM   12  O   UNK N   1      31.551  19.785  -4.133  0.00  0.00    -0.386 OA
HETATM   13  H   UNK N   1      31.785  19.426  -3.262  0.00  0.00     0.210 HD
ENDBRANCH   6  12
ENDBRANCH   3   6
ENDBRANCH   1   2
BRANCH   1  14
HETATM   14  C   UNK N   1      28.306  24.091  -4.152  0.00  0.00     0.039 C 
BRANCH  14  15
HETATM   15  C   UNK N   1      26.823  24.113  -3.836  0.00  0.00     0.041 C 
BRANCH  15  16
HETATM   16  C   UNK N   1      26.246  25.439  -4.159  0.00  0.00    -0.058 A 
HETATM   17  C   UNK N   1      25.534  25.605  -5.346  0.00  0.00     0.007 A 
HETATM   18  C   UNK N   1      25.000  26.854  -5.669  0.00  0.00     0.001 A 
HETATM   19  C   UNK N   1      25.177  27.936  -4.802  0.00  0.00     0.000 A 
HETATM   20  C   UNK N   1      25.891  27.772  -3.611  0.00  0.00     0.001 A 
HETATM   21  C   UNK N   1      26.431  26.525  -3.292  0.00  0.00     0.007 A 
ENDBRANCH  15  16
ENDBRANCH  14  15
ENDBRANCH   1  14
BRANCH   1  22
HETATM   22  C   UNK N   1      29.435  24.171  -6.342  0.00  0.00     0.240 C 
HETATM   23  N   UNK N   1      29.238  24.128  -7.679  0.00  0.00    -0.359 N 
HETATM   24  H   UNK N   1      29.792  24.724  -8.234  0.00  0.00     0.162 HD
HETATM   25  O   UNK N   1      30.212  25.009  -5.901  0.00  0.00    -0.271 OA
BRANCH  23  26
HETATM   26  C   UNK N   1      28.287  23.287  -8.363  0.00  0.00     0.123 C 
BRANCH  26  27
HETATM   27  C   UNK N   1      26.875  23.886  -8.257  0.00  0.00     0.023 C 
BRANCH  27  28
HETATM   28  C   UNK N   1      25.740  22.852  -8.326  0.00  0.00    -0.021 C 
HETATM   29  C   UNK N   1      26.052  21.722  -9.291  0.00  0.00     0.009 C 
HETATM   30  C   UNK N   1      25.475  22.273  -6.952  0.00  0.00     0.009 C 
ENDBRANCH  27  28
ENDBRANCH  26  27
ENDBRANCH  23  26
ENDBRANCH   1  22
TORSDOF 13
ENDMDL
MODEL 7
REMARK VINA RESULT:      -6.0      5.840     10.781
REMARK  13 active torsions:
REMARK  status: ('A' for Active; 'I' for Inactive)
REMARK    1  A    between atoms: C_1  and  O_3 
REMARK    2  A    between atoms: C_1  and  C_4 
REMARK    3  A    between atoms: C_4  and  C_5 
REMARK    4  A    between atoms: C_5  and  O_6 
REMARK    5  A    between atoms: C_5  and  C_7 
REMARK       I    between atoms: C_7  and  N_9 
REMARK    6  A    between atoms: C_10  and  N_9 
REMARK    7  A    between atoms: C_10  and  C_11 
REMARK    8  A    between atoms: C_10  and  C_19 
REMARK    9  A    between atoms: C_11  and  C_12 
REMARK   10  A    between atoms: C_12  and  C_13 
REMARK       I    between atoms: C_19  and  N_20 
REMARK   11  A    between atoms: N_20  and  C_21 
REMARK   12  A    between atoms: C_21  and  C_22 
REMARK   13  A    between atoms: C_22  and  C_23 
ROOT
HETATM    1  C   UNK N   1      35.345  12.152  12.711  0.00  0.00     0.177 C 
ENDROOT
BRANCH   1   2
HETATM    2  N   UNK N   1      34.525  13.255  12.234  0.00  0.00    -0.346 N 
HETATM    3  C   UNK N   1      34.964  14.416  11.677  0.00  0.00     0.247 C 
HETATM    4  O   UNK N   1      36.055  14.883  11.959  0.00  0.00    -0.271 OA
HETATM    5  H   UNK N   1      33.550  13.150  12.326  0.00  0.00     0.163 HD
BRANCH   3   6
HETATM    6  C   UNK N   1      34.168  14.953  10.515  0.00  0.00     0.219 C 
BRANCH   6   7
HETATM    7  C   UNK N   1      34.262  14.046   9.288  0.00  0.00     0.151 C 
BRANCH   7   8
HETATM    8  C   UNK N   1      32.965  13.428   8.907  0.00  0.00     0.142 C 
HETATM    9  O   UNK N   1      32.249  13.970   8.084  0.00  0.00    -0.650 OA
BRANCH   8  10
HETATM   10  O   UNK N   1      32.616  12.235   9.425  0.00  0.00    -0.776 OA
HETATM   11  H   UNK N   1      32.639  11.455   8.906  0.00  0.00     0.167 HD
ENDBRANCH   8  10
ENDBRANCH   7   8
ENDBRANCH   6   7
BRANCH   6  12
HETATM   12  O   UNK N   1      32.826  14.940  10.899  0.00  0.00    -0.386 OA
HETATM   13  H   UNK N   1      31.904  14.826  10.618  0.00  0.00     0.210 HD
ENDBRANCH   6  12
ENDBRANCH   3   6
ENDBRANCH   1   2
BRANCH   1  14
HETATM   14  C   UNK N   1      34.787  11.910  14.113  0.00  0.00     0.039 C 
BRANCH  14  15
HETATM   15  C   UNK N   1      34.925  13.062  15.088  0.00  0.00     0.041 C 
BRANCH  15  16
HETATM   16  C   UNK N   1      35.084  12.552  16.470  0.00  0.00    -0.058 A 
HETATM   17  C   UNK N   1      35.203  11.179  16.684  0.00  0.00     0.007 A 
HETATM   18  C   UNK N   1      35.338  10.685  17.983  0.00  0.00     0.001 A 
HETATM   19  C   UNK N   1      35.357  11.567  19.068  0.00  0.00     0.000 A 
HETATM   20  C   UNK N   1      35.237  12.944  18.856  0.00  0.00     0.001 A 
HETATM   21  C   UNK N   1      35.095  13.437  17.558  0.00  0.00     0.007 A 
ENDBRANCH  15  16
ENDBRANCH  14  15
ENDBRANCH   1  14
BRANCH   1  22
HETATM   22  C   UNK N   1      35.153  10.867  11.909  0.00  0.00     0.240 C 
HETATM   23  N   UNK N   1      36.165  10.024  11.604  0.00  0.00    -0.359 N 
HETATM   24  H   UNK N   1      35.950   9.252  11.032  0.00  0.00     0.162 HD
HETATM   25  O   UNK N   1      34.025  10.569  11.539  0.00  0.00    -0.271 OA
BRANCH  23  26
HETATM   26  C   UNK N   1      37.532  10.155  12.045  0.00  0.00     0.123 C 
BRANCH  26  27
HETATM   27  C   UNK N   1      37.861   9.071  13.085  0.00  0.00     0.023 C 
BRANCH  27  28
HETATM   28  C   UNK N   1      38.473   9.607  14.388  0.00  0.00    -0.021 C 
HETATM   29  C   UNK N   1      38.315  11.112  14.520  0.00  0.00     0.009 C 
HETATM   30  C   UNK N   1      37.830   8.934  15.583  0.00  0.00     0.009 C 
ENDBRANCH  27  28
ENDBRANCH  26  27
ENDBRANCH  23  26
ENDBRANCH   1  22
TORSDOF 13
ENDMDL
MODEL 8
REMARK VINA RESULT:      -6.0     12.237     14.980
REMARK  13 active torsions:
REMARK  status: ('A' for Active; 'I' for Inactive)
REMARK    1  A    between atoms: C_1  and  O_3 
REMARK    2  A    between atoms: C_1  and  C_4 
REMARK    3  A    between atoms: C_4  and  C_5 
REMARK    4  A    between atoms: C_5  and  O_6 
REMARK    5  A    between atoms: C_5  and  C_7 
REMARK       I    between atoms: C_7  and  N_9 
REMARK    6  A    between atoms: C_10  and  N_9 
REMARK    7  A    between atoms: C_10  and  C_11 
REMARK    8  A    between atoms: C_10  and  C_19 
REMARK    9  A    between atoms: C_11  and  C_12 
REMARK   10  A    between atoms: C_12  and  C_13 
REMARK       I    between atoms: C_19  and  N_20 
REMARK   11  A    between atoms: N_20  and  C_21 
REMARK   12  A    between atoms: C_21  and  C_22 
REMARK   13  A    between atoms: C_22  and  C_23 
ROOT
HETATM    1  C   UNK N   1      29.734  24.037  -4.186  0.00  0.00     0.177 C 
ENDROOT
BRANCH   1   2
HETATM    2  N   UNK N   1      30.950  23.286  -3.912  0.00  0.00    -0.346 N 
HETATM    3  C   UNK N   1      31.233  22.575  -2.787  0.00  0.00     0.247 C 
HETATM    4  O   UNK N   1      30.754  22.878  -1.707  0.00  0.00    -0.271 OA
HETATM    5  H   UNK N   1      31.640  23.294  -4.614  0.00  0.00     0.163 HD
BRANCH   3   6
HETATM    6  C   UNK N   1      31.943  21.260  -2.978  0.00  0.00     0.219 C 
BRANCH   6   7
HETATM    7  C   UNK N   1      32.726  21.216  -4.290  0.00  0.00     0.151 C 
BRANCH   7   8
HETATM    8  C   UNK N   1      33.136  19.844  -4.690  0.00  0.00     0.142 C 
HETATM    9  O   UNK N   1      33.303  19.576  -5.867  0.00  0.00    -0.650 OA
BRANCH   8  10
HETATM   10  O   UNK N   1      33.384  18.918  -3.745  0.00  0.00    -0.776 OA
HETATM   11  H   UNK N   1      34.062  19.043  -3.110  0.00  0.00     0.167 HD
ENDBRANCH   8  10
ENDBRANCH   7   8
ENDBRANCH   6   7
BRANCH   6  12
HETATM   12  O   UNK N   1      32.893  21.157  -1.960  0.00  0.00    -0.386 OA
HETATM   13  H   UNK N   1      33.062  20.942  -1.029  0.00  0.00     0.210 HD
ENDBRANCH   6  12
ENDBRANCH   3   6
ENDBRANCH   1   2
BRANCH   1  14
HETATM   14  C   UNK N   1      30.281  25.383  -4.660  0.00  0.00     0.039 C 
BRANCH  14  15
HETATM   15  C   UNK N   1      29.874  26.590  -3.838  0.00  0.00     0.041 C 
BRANCH  15  16
HETATM   16  C   UNK N   1      29.154  27.572  -4.684  0.00  0.00    -0.058 A 
HETATM   17  C   UNK N   1      29.379  27.585  -6.060  0.00  0.00     0.007 A 
HETATM   18  C   UNK N   1      28.719  28.516  -6.864  0.00  0.00     0.001 A 
HETATM   19  C   UNK N   1      27.832  29.432  -6.291  0.00  0.00     0.000 A 
HETATM   20  C   UNK N   1      27.605  29.420  -4.911  0.00  0.00     0.001 A 
HETATM   21  C   UNK N   1      28.270  28.494  -4.106  0.00  0.00     0.007 A 
ENDBRANCH  15  16
ENDBRANCH  14  15
ENDBRANCH   1  14
BRANCH   1  22
HETATM   22  C   UNK N   1      28.905  23.448  -5.325  0.00  0.00     0.240 C 
HETATM   23  N   UNK N   1      27.562  23.578  -5.409  0.00  0.00    -0.359 N 
HETATM   24  H   UNK N   1      27.112  23.111  -6.150  0.00  0.00     0.162 HD
HETATM   25  O   UNK N   1      29.483  22.845  -6.220  0.00  0.00    -0.271 OA
BRANCH  23  26
HETATM   26  C   UNK N   1      26.732  24.342  -4.511  0.00  0.00     0.123 C 
BRANCH  26  27
HETATM   27  C   UNK N   1      25.529  24.927  -5.268  0.00  0.00     0.023 C 
BRANCH  27  28
HETATM   28  C   UNK N   1      25.794  26.292  -5.924  0.00  0.00    -0.021 C 
HETATM   29  C   UNK N   1      25.922  26.188  -7.434  0.00  0.00     0.009 C 
HETATM   30  C   UNK N   1      24.679  27.260  -5.585  0.00  0.00     0.009 C 
ENDBRANCH  27  28
ENDBRANCH  26  27
ENDBRANCH  23  26
ENDBRANCH   1  22
TORSDOF 13
ENDMDL
MODEL 9
REMARK VINA RESULT:      -5.9     11.161     13.399
REMARK  13 active torsions:
REMARK  status: ('A' for Active; 'I' for Inactive)
REMARK    1  A    between atoms: C_1  and  O_3 
REMARK    2  A    between atoms: C_1  and  C_4 
REMARK    3  A    between atoms: C_4  and  C_5 
REMARK    4  A    between atoms: C_5  and  O_6 
REMARK    5  A    between atoms: C_5  and  C_7 
REMARK       I    between atoms: C_7  and  N_9 
REMARK    6  A    between atoms: C_10  and  N_9 
REMARK    7  A    between atoms: C_10  and  C_11 
REMARK    8  A    between atoms: C_10  and  C_19 
REMARK    9  A    between atoms: C_11  and  C_12 
REMARK   10  A    between atoms: C_12  and  C_13 
REMARK       I    between atoms: C_19  and  N_20 
REMARK   11  A    between atoms: N_20  and  C_21 
REMARK   12  A    between atoms: C_21  and  C_22 
REMARK   13  A    between atoms: C_22  and  C_23 
ROOT
HETATM    1  C   UNK N   1      20.408  16.104   5.713  0.00  0.00     0.177 C 
ENDROOT
BRANCH   1   2
HETATM    2  N   UNK N   1      20.921  17.427   5.389  0.00  0.00    -0.346 N 
HETATM    3  C   UNK N   1      21.773  17.746   4.378  0.00  0.00     0.247 C 
HETATM    4  O   UNK N   1      22.583  16.939   3.952  0.00  0.00    -0.271 OA
HETATM    5  H   UNK N   1      20.619  18.168   5.963  0.00  0.00     0.163 HD
BRANCH   3   6
HETATM    6  C   UNK N   1      21.499  19.031   3.641  0.00  0.00     0.219 C 
BRANCH   6   7
HETATM    7  C   UNK N   1      20.601  18.813   2.423  0.00  0.00     0.151 C 
BRANCH   7   8
HETATM    8  C   UNK N   1      20.736  19.873   1.390  0.00  0.00     0.142 C 
HETATM    9  O   UNK N   1      21.085  20.996   1.711  0.00  0.00    -0.650 OA
BRANCH   8  10
HETATM   10  O   UNK N   1      20.538  19.573   0.093  0.00  0.00    -0.776 OA
HETATM   11  H   UNK N   1      21.247  19.576  -0.520  0.00  0.00     0.167 HD
ENDBRANCH   8  10
ENDBRANCH   7   8
ENDBRANCH   6   7
BRANCH   6  12
HETATM   12  O   UNK N   1      20.776  19.853   4.508  0.00  0.00    -0.386 OA
HETATM   13  H   UNK N   1      20.650  20.154   5.422  0.00  0.00     0.210 HD
ENDBRANCH   6  12
ENDBRANCH   3   6
ENDBRANCH   1   2
BRANCH   1  14
HETATM   14  C   UNK N   1      20.118  16.223   7.209  0.00  0.00     0.039 C 
BRANCH  14  15
HETATM   15  C   UNK N   1      20.459  17.554   7.847  0.00  0.00     0.041 C 
BRANCH  15  16
HETATM   16  C   UNK N   1      19.448  17.910   8.871  0.00  0.00    -0.058 A 
HETATM   17  C   UNK N   1      18.247  17.202   8.922  0.00  0.00     0.007 A 
HETATM   18  C   UNK N   1      17.280  17.540   9.871  0.00  0.00     0.001 A 
HETATM   19  C   UNK N   1      17.517  18.584  10.771  0.00  0.00     0.000 A 
HETATM   20  C   UNK N   1      18.720  19.294  10.721  0.00  0.00     0.001 A 
HETATM   21  C   UNK N   1      19.684  18.962   9.767  0.00  0.00     0.007 A 
ENDBRANCH  15  16
ENDBRANCH  14  15
ENDBRANCH   1  14
BRANCH   1  22
HETATM   22  C   UNK N   1      19.093  15.778   5.011  0.00  0.00     0.240 C 
HETATM   23  N   UNK N   1      19.026  15.191   3.795  0.00  0.00    -0.359 N 
HETATM   24  H   UNK N   1      18.131  15.076   3.401  0.00  0.00     0.162 HD
HETATM   25  O   UNK N   1      18.042  16.038   5.583  0.00  0.00    -0.271 OA
BRANCH  23  26
HETATM   26  C   UNK N   1      20.150  14.717   3.026  0.00  0.00     0.123 C 
BRANCH  26  27
HETATM   27  C   UNK N   1      19.877  13.296   2.505  0.00  0.00     0.023 C 
BRANCH  27  28
HETATM   28  C   UNK N   1      19.912  13.163   0.975  0.00  0.00    -0.021 C 
HETATM   29  C   UNK N   1      20.007  11.715   0.527  0.00  0.00     0.009 C 
HETATM   30  C   UNK N   1      18.675  13.791   0.367  0.00  0.00     0.009 C 
ENDBRANCH  27  28
ENDBRANCH  26  27
ENDBRANCH  23  26
ENDBRANCH   1  22
TORSDOF 13
ENDMDL
