REMARK  13 active torsions:
REMARK  status: ('A' for Active; 'I' for Inactive)
REMARK    1  A    between atoms: C_1  and  O_3 
REMARK    2  A    between atoms: C_1  and  C_4 
REMARK    3  A    between atoms: C_4  and  C_5 
REMARK    4  A    between atoms: C_5  and  O_6 
REMARK    5  A    between atoms: C_5  and  C_7 
REMARK       I    between atoms: C_7  and  N_9 
REMARK    6  A    between atoms: C_10  and  N_9 
REMARK    7  A    between atoms: C_10  and  C_11 
REMARK    8  A    between atoms: C_10  and  C_19 
REMARK    9  A    between atoms: C_11  and  C_12 
REMARK   10  A    between atoms: C_12  and  C_13 
REMARK       I    between atoms: C_19  and  N_20 
REMARK   11  A    between atoms: N_20  and  C_21 
REMARK   12  A    between atoms: C_21  and  C_22 
REMARK   13  A    between atoms: C_22  and  C_23 
ROOT
HETATM    1  C   UNK N   1      -0.842  -0.644   0.206  0.00  0.00     0.177 C 
ENDROOT
BRANCH   1   2
HETATM    2  N   UNK N   1      -2.254  -0.486   0.519  0.00  0.00    -0.346 N 
HETATM    3  C   UNK N   1      -2.979   0.664   0.461  0.00  0.00     0.247 C 
HETATM    4  O   UNK N   1      -2.456   1.753   0.630  0.00  0.00    -0.271 OA
HETATM    5  H   UNK N   1      -2.735  -1.297   0.803  0.00  0.00     0.163 HD
BRANCH   3   6
HETATM    6  C   UNK N   1      -4.383   0.553  -0.074  0.00  0.00     0.219 C 
BRANCH   6   7
HETATM    7  C   UNK N   1      -4.929   1.904  -0.537  0.00  0.00     0.151 C 
BRANCH   7   8
HETATM    8  C   UNK N   1      -5.889   2.514   0.420  0.00  0.00     0.142 C 
HETATM    9  O   UNK N   1      -5.643   3.596   0.924  0.00  0.00    -0.650 OA
BRANCH   8  10
HETATM   10  O   UNK N   1      -7.059   1.900   0.677  0.00  0.00    -0.776 OA
HETATM   11  H   UNK N   1      -7.836   2.392   0.856  0.00  0.00     0.167 HD
ENDBRANCH   8  10
ENDBRANCH   7   8
ENDBRANCH   6   7
BRANCH   6  12
HETATM   12  O   UNK N   1      -4.323  -0.248  -1.216  0.00  0.00    -0.386 OA
HETATM   13  H   UNK N   1      -4.784  -0.562  -2.010  0.00  0.00     0.210 HD
ENDBRANCH   6  12
ENDBRANCH   3   6
ENDBRANCH   1   2
BRANCH   1  14
HETATM   14  C   UNK N   1      -0.864  -1.727  -0.872  0.00  0.00     0.039 C 
BRANCH  14  15
HETATM   15  C   UNK N   1       0.475  -2.071  -1.493  0.00  0.00     0.041 C 
BRANCH  15  16
HETATM   16  C   UNK N   1       1.125  -3.171  -0.742  0.00  0.00    -0.058 A 
HETATM   17  C   UNK N   1       2.408  -2.984  -0.228  0.00  0.00     0.007 A 
HETATM   18  C   UNK N   1       3.037  -4.019   0.467  0.00  0.00     0.001 A 
HETATM   19  C   UNK N   1       2.380  -5.240   0.650  0.00  0.00     0.000 A 
HETATM   20  C   UNK N   1       1.094  -5.429   0.135  0.00  0.00     0.001 A 
HETATM   21  C   UNK N   1       0.468  -4.397  -0.566  0.00  0.00     0.007 A 
ENDBRANCH  15  16
ENDBRANCH  14  15
ENDBRANCH   1  14
BRANCH   1  22
HETATM   22  C   UNK N   1      -0.216   0.606  -0.407  0.00  0.00     0.240 C 
HETATM   23  N   UNK N   1       0.926   1.166   0.052  0.00  0.00    -0.359 N 
HETATM   24  H   UNK N   1       1.217   2.005  -0.373  0.00  0.00     0.162 HD
HETATM   25  O   UNK N   1      -0.759   1.119  -1.377  0.00  0.00    -0.271 OA
BRANCH  23  26
HETATM   26  C   UNK N   1       1.756   0.641   1.108  0.00  0.00     0.123 C 
BRANCH  26  27
HETATM   27  C   UNK N   1       3.241   0.771   0.731  0.00  0.00     0.023 C 
BRANCH  27  28
HETATM   28  C   UNK N   1       3.561   1.961  -0.187  0.00  0.00    -0.021 C 
HETATM   29  C   UNK N   1       3.116   3.284   0.412  0.00  0.00     0.009 C 
HETATM   30  C   UNK N   1       5.048   2.019  -0.469  0.00  0.00     0.009 C 
ENDBRANCH  27  28
ENDBRANCH  26  27
ENDBRANCH  23  26
ENDBRANCH   1  22
TORSDOF 13
