MODEL 1
REMARK VINA RESULT:      -6.2      0.000      0.000
REMARK  11 active torsions:
REMARK  status: ('A' for Active; 'I' for Inactive)
REMARK    1  A    between atoms: C_2  and  N_8 
REMARK    2  A    between atoms: C_3  and  N_9 
REMARK    3  A    between atoms: C_5  and  C_7 
REMARK    4  A    between atoms: C_7  and  O_24 
REMARK    5  A    between atoms: N_9  and  C_10 
REMARK    6  A    between atoms: C_10  and  C_11 
REMARK    7  A    between atoms: C_10  and  C_13 
REMARK    8  A    between atoms: C_15  and  C_20 
REMARK    9  A    between atoms: C_15  and  C_22 
REMARK   10  A    between atoms: C_20  and  O_21 
REMARK   11  A    between atoms: C_22  and  O_23 
ROOT
HETATM    1  C   UNK N   1      31.898  17.649   8.612  0.00  0.00     0.033 A 
HETATM    2  C   UNK N   1      32.050  16.635   7.641  0.00  0.00     0.064 A 
HETATM    3  C   UNK N   1      30.903  16.341   6.821  0.00  0.00     0.056 A 
HETATM    4  C   UNK N   1      29.695  17.017   7.074  0.00  0.00     0.049 A 
HETATM    5  C   UNK N   1      29.581  17.986   8.068  0.00  0.00     0.040 A 
HETATM    6  C   UNK N   1      30.698  18.317   8.821  0.00  0.00     0.021 A 
ENDROOT
BRANCH   2   7
HETATM    7  N   UNK N   1      33.337  15.933   7.610  0.00  0.00    -0.302 N 
HETATM    8  C   UNK N   1      33.663  14.908   8.594  0.00  0.00     0.083 C 
HETATM    9  C   UNK N   1      34.972  14.272   8.094  0.00  0.00     0.045 C 
HETATM   10  C   UNK N   1      35.506  15.172   6.987  0.00  0.00     0.106 C 
HETATM   11  C   UNK N   1      34.375  16.090   6.749  0.00  0.00     0.225 C 
HETATM   12  O   UNK N   1      34.440  16.939   5.889  0.00  0.00    -0.273 OA
BRANCH   8  13
HETATM   13  C   UNK N   1      32.579  13.826   8.699  0.00  0.00     0.198 C 
BRANCH  13  14
HETATM   14  O   UNK N   1      33.043  12.709   9.396  0.00  0.00    -0.398 OA
HETATM   15  H   UNK N   1      33.745  12.262   9.895  0.00  0.00     0.209 HD
ENDBRANCH  13  14
ENDBRANCH   8  13
BRANCH   8  16
HETATM   16  C   UNK N   1      33.914  15.552   9.961  0.00  0.00     0.198 C 
BRANCH  16  17
HETATM   17  O   UNK N   1      33.022  15.063  10.919  0.00  0.00    -0.398 OA
HETATM   18  H   UNK N   1      32.197  14.636  10.641  0.00  0.00     0.209 HD
ENDBRANCH  16  17
ENDBRANCH   8  16
ENDBRANCH   2   7
BRANCH   3  19
HETATM   19  N   UNK N   1      30.916  15.331   5.819  0.00  0.00    -0.383 N 
HETATM   20  H   UNK N   1      30.849  14.403   6.140  0.00  0.00     0.160 HD
BRANCH  19  21
HETATM   21  C   UNK N   1      31.018  15.503   4.371  0.00  0.00     0.081 C 
BRANCH  21  22
HETATM   22  C   UNK N   1      32.030  14.510   3.825  0.00  0.00     0.020 C 
HETATM   23  C   UNK N   1      32.480  13.555   4.911  0.00  0.00     0.007 C 
ENDBRANCH  21  22
BRANCH  21  24
HETATM   24  C   UNK N   1      31.491  16.883   3.937  0.00  0.00     0.020 C 
HETATM   25  C   UNK N   1      32.617  16.748   2.931  0.00  0.00     0.007 C 
ENDBRANCH  21  24
ENDBRANCH  19  21
ENDBRANCH   3  19
BRANCH   5  26
HETATM   26  C   UNK N   1      28.279  18.622   8.352  0.00  0.00     0.176 C 
HETATM   27  O   UNK N   1      27.859  19.516   7.635  0.00  0.00    -0.646 OA
BRANCH  26  28
HETATM   28  O   UNK N   1      27.529  18.195   9.388  0.00  0.00    -0.773 OA
HETATM   29  H   UNK N   1      26.639  17.934   9.254  0.00  0.00     0.167 HD
ENDBRANCH  26  28
ENDBRANCH   5  26
TORSDOF 11
ENDMDL
MODEL 2
REMARK VINA RESULT:      -6.0      5.828      8.887
REMARK  11 active torsions:
REMARK  status: ('A' for Active; 'I' for Inactive)
REMARK    1  A    between atoms: C_2  and  N_8 
REMARK    2  A    between atoms: C_3  and  N_9 
REMARK    3  A    between atoms: C_5  and  C_7 
REMARK    4  A    between atoms: C_7  and  O_24 
REMARK    5  A    between atoms: N_9  and  C_10 
REMARK    6  A    between atoms: C_10  and  C_11 
REMARK    7  A    between atoms: C_10  and  C_13 
REMARK    8  A    between atoms: C_15  and  C_20 
REMARK    9  A    between atoms: C_15  and  C_22 
REMARK   10  A    between atoms: C_20  and  O_21 
REMARK   11  A    between atoms: C_22  and  O_23 
ROOT
HETATM    1  C   UNK N   1      36.695  14.282  14.383  0.00  0.00     0.033 A 
HETATM    2  C   UNK N   1      36.000  13.515  13.421  0.00  0.00     0.064 A 
HETATM    3  C   UNK N   1      34.959  12.647  13.910  0.00  0.00     0.056 A 
HETATM    4  C   UNK N   1      34.743  12.559  15.298  0.00  0.00     0.049 A 
HETATM    5  C   UNK N   1      35.479  13.308  16.213  0.00  0.00     0.040 A 
HETATM    6  C   UNK N   1      36.441  14.191  15.746  0.00  0.00     0.021 A 
ENDROOT
BRANCH   2   7
HETATM    7  N   UNK N   1      36.452  13.625  12.031  0.00  0.00    -0.302 N 
HETATM    8  C   UNK N   1      35.852  14.586  11.114  0.00  0.00     0.083 C 
HETATM    9  C   UNK N   1      36.734  14.547   9.854  0.00  0.00     0.045 C 
HETATM   10  C   UNK N   1      37.644  13.332   9.990  0.00  0.00     0.106 C 
HETATM   11  C   UNK N   1      37.417  12.918  11.389  0.00  0.00     0.225 C 
HETATM   12  O   UNK N   1      38.019  11.979  11.859  0.00  0.00    -0.273 OA
BRANCH   8  13
HETATM   13  C   UNK N   1      35.838  16.013  11.682  0.00  0.00     0.198 C 
BRANCH  13  14
HETATM   14  O   UNK N   1      35.686  16.961  10.669  0.00  0.00    -0.398 OA
HETATM   15  H   UNK N   1      35.334  17.213   9.801  0.00  0.00     0.209 HD
ENDBRANCH  13  14
ENDBRANCH   8  13
BRANCH   8  16
HETATM   16  C   UNK N   1      34.434  14.143  10.741  0.00  0.00     0.198 C 
BRANCH  16  17
HETATM   17  O   UNK N   1      33.477  15.008  11.280  0.00  0.00    -0.398 OA
HETATM   18  H   UNK N   1      33.388  15.909  10.933  0.00  0.00     0.209 HD
ENDBRANCH  16  17
ENDBRANCH   8  16
ENDBRANCH   2   7
BRANCH   3  19
HETATM   19  N   UNK N   1      34.196  11.808  13.051  0.00  0.00    -0.383 N 
HETATM   20  H   UNK N   1      33.612  12.268  12.405  0.00  0.00     0.160 HD
BRANCH  19  21
HETATM   21  C   UNK N   1      34.173  10.347  13.012  0.00  0.00     0.081 C 
BRANCH  21  22
HETATM   22  C   UNK N   1      35.568   9.823  13.304  0.00  0.00     0.020 C 
HETATM   23  C   UNK N   1      35.563   8.955  14.545  0.00  0.00     0.007 C 
ENDBRANCH  21  22
BRANCH  21  24
HETATM   24  C   UNK N   1      33.766   9.764  11.666  0.00  0.00     0.020 C 
HETATM   25  C   UNK N   1      34.581  10.405  10.560  0.00  0.00     0.007 C 
ENDBRANCH  21  24
ENDBRANCH  19  21
ENDBRANCH   3  19
BRANCH   5  26
HETATM   26  C   UNK N   1      35.274  13.135  17.665  0.00  0.00     0.176 C 
HETATM   27  O   UNK N   1      35.087  12.023  18.134  0.00  0.00    -0.646 OA
BRANCH  26  28
HETATM   28  O   UNK N   1      35.328  14.201  18.488  0.00  0.00    -0.773 OA
HETATM   29  H   UNK N   1      35.822  14.960  18.250  0.00  0.00     0.167 HD
ENDBRANCH  26  28
ENDBRANCH   5  26
TORSDOF 11
ENDMDL
MODEL 3
REMARK VINA RESULT:      -6.0     12.948     15.789
REMARK  11 active torsions:
REMARK  status: ('A' for Active; 'I' for Inactive)
REMARK    1  A    between atoms: C_2  and  N_8 
REMARK    2  A    between atoms: C_3  and  N_9 
REMARK    3  A    between atoms: C_5  and  C_7 
REMARK    4  A    between atoms: C_7  and  O_24 
REMARK    5  A    between atoms: N_9  and  C_10 
REMARK    6  A    between atoms: C_10  and  C_11 
REMARK    7  A    between atoms: C_10  and  C_13 
REMARK    8  A    between atoms: C_15  and  C_20 
REMARK    9  A    between atoms: C_15  and  C_22 
REMARK   10  A    between atoms: C_20  and  O_21 
REMARK   11  A    between atoms: C_22  and  O_23 
ROOT
HETATM    1  C   UNK N   1      28.454  22.368  -6.714  0.00  0.00     0.033 A 
HETATM    2  C   UNK N   1      28.319  23.329  -5.687  0.00  0.00     0.064 A 
HETATM    3  C   UNK N   1      26.998  23.853  -5.456  0.00  0.00     0.056 A 
HETATM    4  C   UNK N   1      25.946  23.442  -6.295  0.00  0.00     0.049 A 
HETATM    5  C   UNK N   1      26.133  22.518  -7.321  0.00  0.00     0.040 A 
HETATM    6  C   UNK N   1      27.390  21.962  -7.510  0.00  0.00     0.021 A 
ENDROOT
BRANCH   2   7
HETATM    7  N   UNK N   1      29.548  23.749  -5.006  0.00  0.00    -0.302 N 
HETATM    8  C   UNK N   1      30.117  22.962  -3.919  0.00  0.00     0.083 C 
HETATM    9  C   UNK N   1      31.487  23.601  -3.633  0.00  0.00     0.045 C 
HETATM   10  C   UNK N   1      31.520  24.929  -4.379  0.00  0.00     0.106 C 
HETATM   11  C   UNK N   1      30.314  24.847  -5.228  0.00  0.00     0.225 C 
HETATM   12  O   UNK N   1      30.040  25.742  -5.996  0.00  0.00    -0.273 OA
BRANCH   8  13
HETATM   13  C   UNK N   1      30.312  21.487  -4.298  0.00  0.00     0.198 C 
BRANCH  13  14
HETATM   14  O   UNK N   1      31.028  20.801  -3.316  0.00  0.00    -0.398 OA
HETATM   15  H   UNK N   1      31.815  20.303  -3.044  0.00  0.00     0.209 HD
ENDBRANCH  13  14
ENDBRANCH   8  13
BRANCH   8  16
HETATM   16  C   UNK N   1      29.243  23.083  -2.667  0.00  0.00     0.198 C 
BRANCH  16  17
HETATM   17  O   UNK N   1      30.018  23.042  -1.505  0.00  0.00    -0.398 OA
HETATM   18  H   UNK N   1      30.958  23.276  -1.540  0.00  0.00     0.209 HD
ENDBRANCH  16  17
ENDBRANCH   8  16
ENDBRANCH   2   7
BRANCH   3  19
HETATM   19  N   UNK N   1      26.728  24.839  -4.466  0.00  0.00    -0.383 N 
HETATM   20  H   UNK N   1      26.360  24.508  -3.615  0.00  0.00     0.160 HD
BRANCH  19  21
HETATM   21  C   UNK N   1      26.930  26.284  -4.559  0.00  0.00     0.081 C 
BRANCH  21  22
HETATM   22  C   UNK N   1      26.280  26.952  -3.360  0.00  0.00     0.020 C 
HETATM   23  C   UNK N   1      26.954  28.273  -3.055  0.00  0.00     0.007 C 
ENDBRANCH  21  22
BRANCH  21  24
HETATM   24  C   UNK N   1      26.316  26.923  -5.796  0.00  0.00     0.020 C 
HETATM   25  C   UNK N   1      24.806  26.952  -5.663  0.00  0.00     0.007 C 
ENDBRANCH  21  24
ENDBRANCH  19  21
ENDBRANCH   3  19
BRANCH   5  26
HETATM   26  C   UNK N   1      25.023  22.164  -8.227  0.00  0.00     0.176 C 
HETATM   27  O   UNK N   1      25.205  22.105  -9.432  0.00  0.00    -0.646 OA
BRANCH  26  28
HETATM   28  O   UNK N   1      23.806  21.869  -7.725  0.00  0.00    -0.773 OA
HETATM   29  H   UNK N   1      23.426  22.404  -7.056  0.00  0.00     0.167 HD
ENDBRANCH  26  28
ENDBRANCH   5  26
TORSDOF 11
ENDMDL
MODEL 4
REMARK VINA RESULT:      -6.0     10.749     12.356
REMARK  11 active torsions:
REMARK  status: ('A' for Active; 'I' for Inactive)
REMARK    1  A    between atoms: C_2  and  N_8 
REMARK    2  A    between atoms: C_3  and  N_9 
REMARK    3  A    between atoms: C_5  and  C_7 
REMARK    4  A    between atoms: C_7  and  O_24 
REMARK    5  A    between atoms: N_9  and  C_10 
REMARK    6  A    between atoms: C_10  and  C_11 
REMARK    7  A    between atoms: C_10  and  C_13 
REMARK    8  A    between atoms: C_15  and  C_20 
REMARK    9  A    between atoms: C_15  and  C_22 
REMARK   10  A    between atoms: C_20  and  O_21 
REMARK   11  A    between atoms: C_22  and  O_23 
ROOT
HETATM    1  C   UNK N   1      21.840  18.096   4.068  0.00  0.00     0.033 A 
HETATM    2  C   UNK N   1      21.105  16.914   3.827  0.00  0.00     0.064 A 
HETATM    3  C   UNK N   1      20.302  16.880   2.632  0.00  0.00     0.056 A 
HETATM    4  C   UNK N   1      20.238  18.028   1.822  0.00  0.00     0.049 A 
HETATM    5  C   UNK N   1      20.953  19.186   2.118  0.00  0.00     0.040 A 
HETATM    6  C   UNK N   1      21.776  19.206   3.234  0.00  0.00     0.021 A 
ENDROOT
BRANCH   2   7
HETATM    7  N   UNK N   1      21.176  15.868   4.851  0.00  0.00    -0.302 N 
HETATM    8  C   UNK N   1      20.326  15.909   6.035  0.00  0.00     0.083 C 
HETATM    9  C   UNK N   1      20.536  14.552   6.729  0.00  0.00     0.045 C 
HETATM   10  C   UNK N   1      21.740  13.897   6.064  0.00  0.00     0.106 C 
HETATM   11  C   UNK N   1      21.973  14.770   4.896  0.00  0.00     0.225 C 
HETATM   12  O   UNK N   1      22.857  14.521   4.107  0.00  0.00    -0.273 OA
BRANCH   8  13
HETATM   13  C   UNK N   1      18.840  16.078   5.687  0.00  0.00     0.198 C 
BRANCH  13  14
HETATM   14  O   UNK N   1      18.336  14.946   5.045  0.00  0.00    -0.398 OA
HETATM   15  H   UNK N   1      18.460  14.200   4.436  0.00  0.00     0.209 HD
ENDBRANCH  13  14
ENDBRANCH   8  13
BRANCH   8  16
HETATM   16  C   UNK N   1      20.787  17.024   6.976  0.00  0.00     0.198 C 
BRANCH  16  17
HETATM   17  O   UNK N   1      20.877  16.567   8.294  0.00  0.00    -0.398 OA
HETATM   18  H   UNK N   1      21.397  15.775   8.498  0.00  0.00     0.209 HD
ENDBRANCH  16  17
ENDBRANCH   8  16
ENDBRANCH   2   7
BRANCH   3  19
HETATM   19  N   UNK N   1      19.499  15.758   2.281  0.00  0.00    -0.383 N 
HETATM   20  H   UNK N   1      18.529  15.865   2.404  0.00  0.00     0.160 HD
BRANCH  19  21
HETATM   21  C   UNK N   1      19.941  14.465   1.761  0.00  0.00     0.081 C 
BRANCH  21  22
HETATM   22  C   UNK N   1      21.217  14.665   0.961  0.00  0.00     0.020 C 
HETATM   23  C   UNK N   1      21.857  13.332   0.636  0.00  0.00     0.007 C 
ENDBRANCH  21  22
BRANCH  21  24
HETATM   24  C   UNK N   1      18.946  13.794   0.825  0.00  0.00     0.020 C 
HETATM   25  C   UNK N   1      18.329  14.828  -0.096  0.00  0.00     0.007 C 
ENDBRANCH  21  24
ENDBRANCH  19  21
ENDBRANCH   3  19
BRANCH   5  26
HETATM   26  C   UNK N   1      20.805  20.396   1.284  0.00  0.00     0.176 C 
HETATM   27  O   UNK N   1      20.948  21.504   1.775  0.00  0.00    -0.646 OA
BRANCH  26  28
HETATM   28  O   UNK N   1      20.545  20.283  -0.034  0.00  0.00    -0.773 OA
HETATM   29  H   UNK N   1      19.700  20.502  -0.372  0.00  0.00     0.167 HD
ENDBRANCH  26  28
ENDBRANCH   5  26
TORSDOF 11
ENDMDL
MODEL 5
REMARK VINA RESULT:      -5.7      8.477     11.532
REMARK  11 active torsions:
REMARK  status: ('A' for Active; 'I' for Inactive)
REMARK    1  A    between atoms: C_2  and  N_8 
REMARK    2  A    between atoms: C_3  and  N_9 
REMARK    3  A    between atoms: C_5  and  C_7 
REMARK    4  A    between atoms: C_7  and  O_24 
REMARK    5  A    between atoms: N_9  and  C_10 
REMARK    6  A    between atoms: C_10  and  C_11 
REMARK    7  A    between atoms: C_10  and  C_13 
REMARK    8  A    between atoms: C_15  and  C_20 
REMARK    9  A    between atoms: C_15  and  C_22 
REMARK   10  A    between atoms: C_20  and  O_21 
REMARK   11  A    between atoms: C_22  and  O_23 
ROOT
HETATM    1  C   UNK N   1      19.864  18.697   3.552  0.00  0.00     0.033 A 
HETATM    2  C   UNK N   1      21.080  18.423   4.217  0.00  0.00     0.064 A 
HETATM    3  C   UNK N   1      22.236  19.170   3.793  0.00  0.00     0.056 A 
HETATM    4  C   UNK N   1      22.111  20.062   2.712  0.00  0.00     0.049 A 
HETATM    5  C   UNK N   1      20.898  20.273   2.061  0.00  0.00     0.040 A 
HETATM    6  C   UNK N   1      19.767  19.603   2.504  0.00  0.00     0.021 A 
ENDROOT
BRANCH   2   7
HETATM    7  N   UNK N   1      21.060  17.358   5.224  0.00  0.00    -0.302 N 
HETATM    8  C   UNK N   1      20.880  15.962   4.846  0.00  0.00     0.083 C 
HETATM    9  C   UNK N   1      21.140  15.158   6.132  0.00  0.00     0.045 C 
HETATM   10  C   UNK N   1      21.169  16.159   7.280  0.00  0.00     0.106 C 
HETATM   11  C   UNK N   1      21.187  17.456   6.572  0.00  0.00     0.225 C 
HETATM   12  O   UNK N   1      21.245  18.495   7.191  0.00  0.00    -0.273 OA
BRANCH   8  13
HETATM   13  C   UNK N   1      21.866  15.514   3.757  0.00  0.00     0.198 C 
BRANCH  13  14
HETATM   14  O   UNK N   1      22.063  14.133   3.788  0.00  0.00    -0.398 OA
HETATM   15  H   UNK N   1      21.939  13.276   4.226  0.00  0.00     0.209 HD
ENDBRANCH  13  14
ENDBRANCH   8  13
BRANCH   8  16
HETATM   16  C   UNK N   1      19.436  15.722   4.394  0.00  0.00     0.198 C 
BRANCH  16  17
HETATM   17  O   UNK N   1      19.391  15.251   3.079  0.00  0.00    -0.398 OA
HETATM   18  H   UNK N   1      19.225  14.312   2.905  0.00  0.00     0.209 HD
ENDBRANCH  16  17
ENDBRANCH   8  16
ENDBRANCH   2   7
BRANCH   3  19
HETATM   19  N   UNK N   1      23.524  18.978   4.366  0.00  0.00    -0.383 N 
HETATM   20  H   UNK N   1      23.738  19.539   5.146  0.00  0.00     0.160 HD
BRANCH  19  21
HETATM   21  C   UNK N   1      24.568  18.049   3.938  0.00  0.00     0.081 C 
BRANCH  21  22
HETATM   22  C   UNK N   1      24.884  17.100   5.081  0.00  0.00     0.020 C 
HETATM   23  C   UNK N   1      26.189  16.375   4.828  0.00  0.00     0.007 C 
ENDBRANCH  21  22
BRANCH  21  24
HETATM   24  C   UNK N   1      25.882  18.717   3.557  0.00  0.00     0.020 C 
HETATM   25  C   UNK N   1      25.863  20.171   3.985  0.00  0.00     0.007 C 
ENDBRANCH  21  24
ENDBRANCH  19  21
ENDBRANCH   3  19
BRANCH   5  26
HETATM   26  C   UNK N   1      20.820  21.162   0.885  0.00  0.00     0.176 C 
HETATM   27  O   UNK N   1      21.096  20.741  -0.227  0.00  0.00    -0.646 OA
BRANCH  26  28
HETATM   28  O   UNK N   1      20.407  22.438   1.026  0.00  0.00    -0.773 OA
HETATM   29  H   UNK N   1      20.866  23.136   0.601  0.00  0.00     0.167 HD
ENDBRANCH  26  28
ENDBRANCH   5  26
TORSDOF 11
ENDMDL
MODEL 6
REMARK VINA RESULT:      -5.7     13.522     16.620
REMARK  11 active torsions:
REMARK  status: ('A' for Active; 'I' for Inactive)
REMARK    1  A    between atoms: C_2  and  N_8 
REMARK    2  A    between atoms: C_3  and  N_9 
REMARK    3  A    between atoms: C_5  and  C_7 
REMARK    4  A    between atoms: C_7  and  O_24 
REMARK    5  A    between atoms: N_9  and  C_10 
REMARK    6  A    between atoms: C_10  and  C_11 
REMARK    7  A    between atoms: C_10  and  C_13 
REMARK    8  A    between atoms: C_15  and  C_20 
REMARK    9  A    between atoms: C_15  and  C_22 
REMARK   10  A    between atoms: C_20  and  O_21 
REMARK   11  A    between atoms: C_22  and  O_23 
ROOT
HETATM    1  C   UNK N   1      30.030  26.144  -3.830  0.00  0.00     0.033 A 
HETATM    2  C   UNK N   1      28.692  26.218  -4.277  0.00  0.00     0.064 A 
HETATM    3  C   UNK N   1      27.898  25.022  -4.155  0.00  0.00     0.056 A 
HETATM    4  C   UNK N   1      28.506  23.848  -3.674  0.00  0.00     0.049 A 
HETATM    5  C   UNK N   1      29.841  23.812  -3.278  0.00  0.00     0.040 A 
HETATM    6  C   UNK N   1      30.595  24.975  -3.334  0.00  0.00     0.021 A 
ENDROOT
BRANCH   2   7
HETATM    7  N   UNK N   1      28.264  27.481  -4.885  0.00  0.00    -0.302 N 
HETATM    8  C   UNK N   1      27.525  28.477  -4.118  0.00  0.00     0.083 C 
HETATM    9  C   UNK N   1      27.465  29.720  -5.023  0.00  0.00     0.045 C 
HETATM   10  C   UNK N   1      27.922  29.280  -6.409  0.00  0.00     0.106 C 
HETATM   11  C   UNK N   1      28.449  27.924  -6.155  0.00  0.00     0.225 C 
HETATM   12  O   UNK N   1      28.937  27.274  -7.052  0.00  0.00    -0.273 OA
BRANCH   8  13
HETATM   13  C   UNK N   1      28.221  28.841  -2.799  0.00  0.00     0.198 C 
BRANCH  13  14
HETATM   14  O   UNK N   1      27.460  29.746  -2.057  0.00  0.00    -0.398 OA
HETATM   15  H   UNK N   1      27.314  30.646  -1.725  0.00  0.00     0.209 HD
ENDBRANCH  13  14
ENDBRANCH   8  13
BRANCH   8  16
HETATM   16  C   UNK N   1      26.098  27.986  -3.855  0.00  0.00     0.198 C 
BRANCH  16  17
HETATM   17  O   UNK N   1      25.982  27.438  -2.574  0.00  0.00    -0.398 OA
HETATM   18  H   UNK N   1      26.587  27.718  -1.870  0.00  0.00     0.209 HD
ENDBRANCH  16  17
ENDBRANCH   8  16
ENDBRANCH   2   7
BRANCH   3  19
HETATM   19  N   UNK N   1      26.543  24.956  -4.585  0.00  0.00    -0.383 N 
HETATM   20  H   UNK N   1      25.861  25.093  -3.889  0.00  0.00     0.160 HD
BRANCH  19  21
HETATM   21  C   UNK N   1      26.041  24.708  -5.936  0.00  0.00     0.081 C 
BRANCH  21  22
HETATM   22  C   UNK N   1      27.175  24.178  -6.795  0.00  0.00     0.020 C 
HETATM   23  C   UNK N   1      27.087  22.671  -6.925  0.00  0.00     0.007 C 
ENDBRANCH  21  22
BRANCH  21  24
HETATM   24  C   UNK N   1      25.507  25.946  -6.642  0.00  0.00     0.020 C 
HETATM   25  C   UNK N   1      25.883  25.903  -8.110  0.00  0.00     0.007 C 
ENDBRANCH  21  24
ENDBRANCH  19  21
ENDBRANCH   3  19
BRANCH   5  26
HETATM   26  C   UNK N   1      30.464  22.545  -2.846  0.00  0.00     0.176 C 
HETATM   27  O   UNK N   1      31.217  22.523  -1.886  0.00  0.00    -0.646 OA
BRANCH  26  28
HETATM   28  O   UNK N   1      30.175  21.395  -3.488  0.00  0.00    -0.773 OA
HETATM   29  H   UNK N   1      30.858  20.798  -3.722  0.00  0.00     0.167 HD
ENDBRANCH  26  28
ENDBRANCH   5  26
TORSDOF 11
ENDMDL
MODEL 7
REMARK VINA RESULT:      -5.6     12.968     16.317
REMARK  11 active torsions:
REMARK  status: ('A' for Active; 'I' for Inactive)
REMARK    1  A    between atoms: C_2  and  N_8 
REMARK    2  A    between atoms: C_3  and  N_9 
REMARK    3  A    between atoms: C_5  and  C_7 
REMARK    4  A    between atoms: C_7  and  O_24 
REMARK    5  A    between atoms: N_9  and  C_10 
REMARK    6  A    between atoms: C_10  and  C_11 
REMARK    7  A    between atoms: C_10  and  C_13 
REMARK    8  A    between atoms: C_15  and  C_20 
REMARK    9  A    between atoms: C_15  and  C_22 
REMARK   10  A    between atoms: C_20  and  O_21 
REMARK   11  A    between atoms: C_22  and  O_23 
ROOT
HETATM    1  C   UNK N   1      27.898  24.205  -3.191  0.00  0.00     0.033 A 
HETATM    2  C   UNK N   1      27.775  24.496  -4.569  0.00  0.00     0.064 A 
HETATM    3  C   UNK N   1      28.657  23.792  -5.464  0.00  0.00     0.056 A 
HETATM    4  C   UNK N   1      29.624  22.925  -4.923  0.00  0.00     0.049 A 
HETATM    5  C   UNK N   1      29.733  22.696  -3.554  0.00  0.00     0.040 A 
HETATM    6  C   UNK N   1      28.847  23.323  -2.690  0.00  0.00     0.021 A 
ENDROOT
BRANCH   2   7
HETATM    7  N   UNK N   1      26.810  25.534  -4.944  0.00  0.00    -0.302 N 
HETATM    8  C   UNK N   1      27.147  26.949  -4.846  0.00  0.00     0.083 C 
HETATM    9  C   UNK N   1      25.983  27.689  -5.530  0.00  0.00     0.045 C 
HETATM   10  C   UNK N   1      24.869  26.669  -5.731  0.00  0.00     0.106 C 
HETATM   11  C   UNK N   1      25.541  25.395  -5.403  0.00  0.00     0.225 C 
HETATM   12  O   UNK N   1      24.946  24.344  -5.490  0.00  0.00    -0.273 OA
BRANCH   8  13
HETATM   13  C   UNK N   1      28.460  27.294  -5.564  0.00  0.00     0.198 C 
BRANCH  13  14
HETATM   14  O   UNK N   1      28.351  27.104  -6.942  0.00  0.00    -0.398 OA
HETATM   15  H   UNK N   1      27.910  26.689  -7.701  0.00  0.00     0.209 HD
ENDBRANCH  13  14
ENDBRANCH   8  13
BRANCH   8  16
HETATM   16  C   UNK N   1      27.210  27.375  -3.377  0.00  0.00     0.198 C 
BRANCH  16  17
HETATM   17  O   UNK N   1      26.170  28.254  -3.061  0.00  0.00    -0.398 OA
HETATM   18  H   UNK N   1      26.349  29.201  -2.958  0.00  0.00     0.209 HD
ENDBRANCH  16  17
ENDBRANCH   8  16
ENDBRANCH   2   7
BRANCH   3  19
HETATM   19  N   UNK N   1      28.649  24.006  -6.870  0.00  0.00    -0.383 N 
HETATM   20  H   UNK N   1      29.054  24.847  -7.183  0.00  0.00     0.160 HD
BRANCH  19  21
HETATM   21  C   UNK N   1      28.113  23.127  -7.909  0.00  0.00     0.081 C 
BRANCH  21  22
HETATM   22  C   UNK N   1      26.974  22.309  -7.324  0.00  0.00     0.020 C 
HETATM   23  C   UNK N   1      25.737  22.422  -8.190  0.00  0.00     0.007 C 
ENDBRANCH  21  22
BRANCH  21  24
HETATM   24  C   UNK N   1      29.118  22.130  -8.466  0.00  0.00     0.020 C 
HETATM   25  C   UNK N   1      28.938  20.785  -7.789  0.00  0.00     0.007 C 
ENDBRANCH  21  24
ENDBRANCH  19  21
ENDBRANCH   3  19
BRANCH   5  26
HETATM   26  C   UNK N   1      30.806  21.834  -3.018  0.00  0.00     0.176 C 
HETATM   27  O   UNK N   1      31.524  22.232  -2.115  0.00  0.00    -0.646 OA
BRANCH  26  28
HETATM   28  O   UNK N   1      30.977  20.586  -3.500  0.00  0.00    -0.773 OA
HETATM   29  H   UNK N   1      31.200  19.882  -2.924  0.00  0.00     0.167 HD
ENDBRANCH  26  28
ENDBRANCH   5  26
TORSDOF 11
ENDMDL
MODEL 8
REMARK VINA RESULT:      -5.4      9.345     11.386
REMARK  11 active torsions:
REMARK  status: ('A' for Active; 'I' for Inactive)
REMARK    1  A    between atoms: C_2  and  N_8 
REMARK    2  A    between atoms: C_3  and  N_9 
REMARK    3  A    between atoms: C_5  and  C_7 
REMARK    4  A    between atoms: C_7  and  O_24 
REMARK    5  A    between atoms: N_9  and  C_10 
REMARK    6  A    between atoms: C_10  and  C_11 
REMARK    7  A    between atoms: C_10  and  C_13 
REMARK    8  A    between atoms: C_15  and  C_20 
REMARK    9  A    between atoms: C_15  and  C_22 
REMARK   10  A    between atoms: C_20  and  O_21 
REMARK   11  A    between atoms: C_22  and  O_23 
ROOT
HETATM    1  C   UNK N   1      21.041  13.205   9.385  0.00  0.00     0.033 A 
HETATM    2  C   UNK N   1      21.724  13.121   8.152  0.00  0.00     0.064 A 
HETATM    3  C   UNK N   1      23.058  12.579   8.182  0.00  0.00     0.056 A 
HETATM    4  C   UNK N   1      23.625  12.236   9.424  0.00  0.00     0.049 A 
HETATM    5  C   UNK N   1      22.926  12.370  10.621  0.00  0.00     0.040 A 
HETATM    6  C   UNK N   1      21.619  12.833  10.593  0.00  0.00     0.021 A 
ENDROOT
BRANCH   2   7
HETATM    7  N   UNK N   1      21.036  13.658   6.974  0.00  0.00    -0.302 N 
HETATM    8  C   UNK N   1      21.004  15.089   6.703  0.00  0.00     0.083 C 
HETATM    9  C   UNK N   1      20.398  15.221   5.295  0.00  0.00     0.045 C 
HETATM   10  C   UNK N   1      19.826  13.857   4.931  0.00  0.00     0.106 C 
HETATM   11  C   UNK N   1      20.355  12.992   6.006  0.00  0.00     0.225 C 
HETATM   12  O   UNK N   1      20.120  11.805   6.014  0.00  0.00    -0.273 OA
BRANCH   8  13
HETATM   13  C   UNK N   1      22.403  15.723   6.717  0.00  0.00     0.198 C 
BRANCH  13  14
HETATM   14  O   UNK N   1      23.211  15.190   5.711  0.00  0.00    -0.398 OA
HETATM   15  H   UNK N   1      23.307  14.673   4.895  0.00  0.00     0.209 HD
ENDBRANCH  13  14
ENDBRANCH   8  13
BRANCH   8  16
HETATM   16  C   UNK N   1      20.086  15.795   7.706  0.00  0.00     0.198 C 
BRANCH  16  17
HETATM   17  O   UNK N   1      20.808  16.672   8.520  0.00  0.00    -0.398 OA
HETATM   18  H   UNK N   1      21.651  17.038   8.210  0.00  0.00     0.209 HD
ENDBRANCH  16  17
ENDBRANCH   8  16
ENDBRANCH   2   7
BRANCH   3  19
HETATM   19  N   UNK N   1      23.862  12.457   7.014  0.00  0.00    -0.383 N 
HETATM   20  H   UNK N   1      24.421  13.236   6.791  0.00  0.00     0.160 HD
BRANCH  19  21
HETATM   21  C   UNK N   1      23.958  11.316   6.106  0.00  0.00     0.081 C 
BRANCH  21  22
HETATM   22  C   UNK N   1      23.510  11.749   4.720  0.00  0.00     0.020 C 
HETATM   23  C   UNK N   1      22.875  10.591   3.979  0.00  0.00     0.007 C 
ENDBRANCH  21  22
BRANCH  21  24
HETATM   24  C   UNK N   1      23.083  10.133   6.492  0.00  0.00     0.020 C 
HETATM   25  C   UNK N   1      23.906   9.110   7.249  0.00  0.00     0.007 C 
ENDBRANCH  21  24
ENDBRANCH  19  21
ENDBRANCH   3  19
BRANCH   5  26
HETATM   26  C   UNK N   1      23.578  12.068  11.911  0.00  0.00     0.176 C 
HETATM   27  O   UNK N   1      22.908  11.761  12.884  0.00  0.00    -0.646 OA
BRANCH  26  28
HETATM   28  O   UNK N   1      24.922  12.093  12.013  0.00  0.00    -0.773 OA
HETATM   29  H   UNK N   1      25.396  11.317  12.237  0.00  0.00     0.167 HD
ENDBRANCH  26  28
ENDBRANCH   5  26
TORSDOF 11
ENDMDL
MODEL 9
REMARK VINA RESULT:      -5.4      8.772     11.658
REMARK  11 active torsions:
REMARK  status: ('A' for Active; 'I' for Inactive)
REMARK    1  A    between atoms: C_2  and  N_8 
REMARK    2  A    between atoms: C_3  and  N_9 
REMARK    3  A    between atoms: C_5  and  C_7 
REMARK    4  A    between atoms: C_7  and  O_24 
REMARK    5  A    between atoms: N_9  and  C_10 
REMARK    6  A    between atoms: C_10  and  C_11 
REMARK    7  A    between atoms: C_10  and  C_13 
REMARK    8  A    between atoms: C_15  and  C_20 
REMARK    9  A    between atoms: C_15  and  C_22 
REMARK   10  A    between atoms: C_20  and  O_21 
REMARK   11  A    between atoms: C_22  and  O_23 
ROOT
HETATM    1  C   UNK N   1      20.354  14.756   8.711  0.00  0.00     0.033 A 
HETATM    2  C   UNK N   1      20.682  14.358   7.396  0.00  0.00     0.064 A 
HETATM    3  C   UNK N   1      21.351  13.091   7.248  0.00  0.00     0.056 A 
HETATM    4  C   UNK N   1      21.698  12.366   8.403  0.00  0.00     0.049 A 
HETATM    5  C   UNK N   1      21.386  12.816   9.684  0.00  0.00     0.040 A 
HETATM    6  C   UNK N   1      20.688  14.005   9.831  0.00  0.00     0.021 A 
ENDROOT
BRANCH   2   7
HETATM    7  N   UNK N   1      20.373  15.303   6.319  0.00  0.00    -0.302 N 
HETATM    8  C   UNK N   1      21.059  16.586   6.219  0.00  0.00     0.083 C 
HETATM    9  C   UNK N   1      20.626  17.169   4.862  0.00  0.00     0.045 C 
HETATM   10  C   UNK N   1      19.462  16.320   4.367  0.00  0.00     0.106 C 
HETATM   11  C   UNK N   1      19.473  15.184   5.310  0.00  0.00     0.225 C 
HETATM   12  O   UNK N   1      18.681  14.275   5.190  0.00  0.00    -0.273 OA
BRANCH   8  13
HETATM   13  C   UNK N   1      22.587  16.440   6.246  0.00  0.00     0.198 C 
BRANCH  13  14
HETATM   14  O   UNK N   1      23.215  17.589   5.763  0.00  0.00    -0.398 OA
HETATM   15  H   UNK N   1      23.448  18.171   5.021  0.00  0.00     0.209 HD
ENDBRANCH  13  14
ENDBRANCH   8  13
BRANCH   8  16
HETATM   16  C   UNK N   1      20.589  17.523   7.335  0.00  0.00     0.198 C 
BRANCH  16  17
HETATM   17  O   UNK N   1      20.965  18.844   7.076  0.00  0.00    -0.398 OA
HETATM   18  H   UNK N   1      20.656  19.288   6.271  0.00  0.00     0.209 HD
ENDBRANCH  16  17
ENDBRANCH   8  16
ENDBRANCH   2   7
BRANCH   3  19
HETATM   19  N   UNK N   1      21.753  12.581   5.982  0.00  0.00    -0.383 N 
HETATM   20  H   UNK N   1      21.226  11.826   5.632  0.00  0.00     0.160 HD
BRANCH  19  21
HETATM   21  C   UNK N   1      22.854  13.041   5.138  0.00  0.00     0.081 C 
BRANCH  21  22
HETATM   22  C   UNK N   1      22.341  13.243   3.723  0.00  0.00     0.020 C 
HETATM   23  C   UNK N   1      22.815  14.569   3.166  0.00  0.00     0.007 C 
ENDBRANCH  21  22
BRANCH  21  24
HETATM   24  C   UNK N   1      24.018  12.065   5.040  0.00  0.00     0.020 C 
HETATM   25  C   UNK N   1      25.144  12.514   5.950  0.00  0.00     0.007 C 
ENDBRANCH  21  24
ENDBRANCH  19  21
ENDBRANCH   3  19
BRANCH   5  26
HETATM   26  C   UNK N   1      21.831  12.065  10.874  0.00  0.00     0.176 C 
HETATM   27  O   UNK N   1      22.998  11.728  10.992  0.00  0.00    -0.646 OA
BRANCH  26  28
HETATM   28  O   UNK N   1      20.955  11.776  11.859  0.00  0.00    -0.773 OA
HETATM   29  H   UNK N   1      20.091  11.480  11.654  0.00  0.00     0.167 HD
ENDBRANCH  26  28
ENDBRANCH   5  26
TORSDOF 11
ENDMDL
