MODEL 1
REMARK VINA RESULT:      -4.1      0.000      0.000
REMARK  10 active torsions:
REMARK  status: ('A' for Active; 'I' for Inactive)
REMARK    1  A    between atoms: C_1  and  O_3 
REMARK    2  A    between atoms: C_1  and  C_4 
REMARK    3  A    between atoms: C_4  and  C_5 
REMARK    4  A    between atoms: C_5  and  C_6 
REMARK    5  A    between atoms: C_6  and  C_7 
REMARK    6  A    between atoms: C_7  and  C_8 
REMARK    7  A    between atoms: C_8  and  C_9 
REMARK    8  A    between atoms: C_8  and  S_12 
REMARK    9  A    between atoms: C_9  and  C_10 
REMARK   10  A    between atoms: C_10  and  S_11 
ROOT
HETATM    1  C   UNK N   1      29.665  17.547   7.250  0.00  0.00     0.015 C 
ENDROOT
BRANCH   1   2
HETATM    2  C   UNK N   1      31.108  17.111   7.494  0.00  0.00     0.002 C 
BRANCH   2   3
HETATM    3  C   UNK N   1      31.876  18.050   8.406  0.00  0.00     0.010 C 
BRANCH   3   4
HETATM    4  C   UNK N   1      33.274  17.488   8.624  0.00  0.00     0.110 C 
BRANCH   4   5
HETATM    5  C   UNK N   1      34.327  18.226   7.848  0.00  0.00     0.139 C 
HETATM    6  O   UNK N   1      34.477  17.985   6.662  0.00  0.00    -0.650 OA
BRANCH   5   7
HETATM    7  O   UNK N   1      35.099  19.157   8.440  0.00  0.00    -0.776 OA
HETATM    8  H   UNK N   1      34.837  19.532   9.259  0.00  0.00     0.167 HD
ENDBRANCH   5   7
ENDBRANCH   4   5
ENDBRANCH   3   4
ENDBRANCH   2   3
ENDBRANCH   1   2
BRANCH   1   9
HETATM    9  C   UNK N   1      29.159  17.377   5.814  0.00  0.00     0.045 C 
BRANCH   9  10
HETATM   10  C   UNK N   1      28.324  18.610   5.486  0.00  0.00     0.025 C 
BRANCH  10  11
HETATM   11  C   UNK N   1      27.923  19.392   6.725  0.00  0.00     0.072 C 
BRANCH  11  12
HETATM   12  S   UNK N   1      27.177  20.966   6.217  0.00  0.00    -0.182 SA
HETATM   13  H   UNK N   1      26.022  21.086   5.509  0.00  0.00     0.101 HD
ENDBRANCH  11  12
ENDBRANCH  10  11
ENDBRANCH   9  10
BRANCH   9  14
HETATM   14  S   UNK N   1      28.133  15.873   5.646  0.00  0.00    -0.177 SA
HETATM   15  H   UNK N   1      28.531  14.791   4.924  0.00  0.00     0.102 HD
ENDBRANCH   9  14
ENDBRANCH   1   9
TORSDOF 10
ENDMDL
MODEL 2
REMARK VINA RESULT:      -4.0      2.365      3.373
REMARK  10 active torsions:
REMARK  status: ('A' for Active; 'I' for Inactive)
REMARK    1  A    between atoms: C_1  and  O_3 
REMARK    2  A    between atoms: C_1  and  C_4 
REMARK    3  A    between atoms: C_4  and  C_5 
REMARK    4  A    between atoms: C_5  and  C_6 
REMARK    5  A    between atoms: C_6  and  C_7 
REMARK    6  A    between atoms: C_7  and  C_8 
REMARK    7  A    between atoms: C_8  and  C_9 
REMARK    8  A    between atoms: C_8  and  S_12 
REMARK    9  A    between atoms: C_9  and  C_10 
REMARK   10  A    between atoms: C_10  and  S_11 
ROOT
HETATM    1  C   UNK N   1      30.764  17.010   6.769  0.00  0.00     0.015 C 
ENDROOT
BRANCH   1   2
HETATM    2  C   UNK N   1      31.760  15.956   7.248  0.00  0.00     0.002 C 
BRANCH   2   3
HETATM    3  C   UNK N   1      32.640  16.433   8.389  0.00  0.00     0.010 C 
BRANCH   3   4
HETATM    4  C   UNK N   1      32.856  17.934   8.248  0.00  0.00     0.110 C 
BRANCH   4   5
HETATM    5  C   UNK N   1      34.218  18.281   7.721  0.00  0.00     0.139 C 
HETATM    6  O   UNK N   1      34.583  17.823   6.651  0.00  0.00    -0.650 OA
BRANCH   5   7
HETATM    7  O   UNK N   1      35.040  19.098   8.409  0.00  0.00    -0.776 OA
HETATM    8  H   UNK N   1      35.551  19.739   7.954  0.00  0.00     0.167 HD
ENDBRANCH   5   7
ENDBRANCH   4   5
ENDBRANCH   3   4
ENDBRANCH   2   3
ENDBRANCH   1   2
BRANCH   1   9
HETATM    9  C   UNK N   1      30.469  17.002   5.266  0.00  0.00     0.045 C 
BRANCH   9  10
HETATM   10  C   UNK N   1      31.688  17.594   4.569  0.00  0.00     0.025 C 
BRANCH  10  11
HETATM   11  C   UNK N   1      32.016  16.892   3.262  0.00  0.00     0.072 C 
BRANCH  11  12
HETATM   12  S   UNK N   1      33.344  15.689   3.552  0.00  0.00    -0.182 SA
HETATM   13  H   UNK N   1      33.150  14.387   3.893  0.00  0.00     0.101 HD
ENDBRANCH  11  12
ENDBRANCH  10  11
ENDBRANCH   9  10
BRANCH   9  14
HETATM   14  S   UNK N   1      28.988  18.001   4.875  0.00  0.00    -0.177 SA
HETATM   15  H   UNK N   1      28.382  18.803   5.791  0.00  0.00     0.102 HD
ENDBRANCH   9  14
ENDBRANCH   1   9
TORSDOF 10
ENDMDL
MODEL 3
REMARK VINA RESULT:      -4.0      4.461      5.898
REMARK  10 active torsions:
REMARK  status: ('A' for Active; 'I' for Inactive)
REMARK    1  A    between atoms: C_1  and  O_3 
REMARK    2  A    between atoms: C_1  and  C_4 
REMARK    3  A    between atoms: C_4  and  C_5 
REMARK    4  A    between atoms: C_5  and  C_6 
REMARK    5  A    between atoms: C_6  and  C_7 
REMARK    6  A    between atoms: C_7  and  C_8 
REMARK    7  A    between atoms: C_8  and  C_9 
REMARK    8  A    between atoms: C_8  and  S_12 
REMARK    9  A    between atoms: C_9  and  C_10 
REMARK   10  A    between atoms: C_10  and  S_11 
ROOT
HETATM    1  C   UNK N   1      32.172  16.709   8.568  0.00  0.00     0.015 C 
ENDROOT
BRANCH   1   2
HETATM    2  C   UNK N   1      30.965  17.456   8.003  0.00  0.00     0.002 C 
BRANCH   2   3
HETATM    3  C   UNK N   1      30.542  18.643   8.848  0.00  0.00     0.010 C 
BRANCH   3   4
HETATM    4  C   UNK N   1      29.514  18.176   9.870  0.00  0.00     0.110 C 
BRANCH   4   5
HETATM    5  C   UNK N   1      28.144  18.001   9.282  0.00  0.00     0.139 C 
HETATM    6  O   UNK N   1      27.557  16.942   9.432  0.00  0.00    -0.650 OA
BRANCH   5   7
HETATM    7  O   UNK N   1      27.550  19.000   8.600  0.00  0.00    -0.776 OA
HETATM    8  H   UNK N   1      27.367  19.815   9.027  0.00  0.00     0.167 HD
ENDBRANCH   5   7
ENDBRANCH   4   5
ENDBRANCH   3   4
ENDBRANCH   2   3
ENDBRANCH   1   2
BRANCH   1   9
HETATM    9  C   UNK N   1      33.480  17.506   8.608  0.00  0.00     0.045 C 
BRANCH   9  10
HETATM   10  C   UNK N   1      33.954  17.655   7.166  0.00  0.00     0.025 C 
BRANCH  10  11
HETATM   11  C   UNK N   1      34.294  16.323   6.520  0.00  0.00     0.072 C 
BRANCH  11  12
HETATM   12  S   UNK N   1      33.459  16.212   4.913  0.00  0.00    -0.182 SA
HETATM   13  H   UNK N   1      33.480  17.180   3.959  0.00  0.00     0.101 HD
ENDBRANCH  11  12
ENDBRANCH  10  11
ENDBRANCH   9  10
BRANCH   9  14
HETATM   14  S   UNK N   1      34.756  16.640   9.591  0.00  0.00    -0.177 SA
HETATM   15  H   UNK N   1      35.232  17.131  10.767  0.00  0.00     0.102 HD
ENDBRANCH   9  14
ENDBRANCH   1   9
TORSDOF 10
ENDMDL
MODEL 4
REMARK VINA RESULT:      -4.0      1.897      2.108
REMARK  10 active torsions:
REMARK  status: ('A' for Active; 'I' for Inactive)
REMARK    1  A    between atoms: C_1  and  O_3 
REMARK    2  A    between atoms: C_1  and  C_4 
REMARK    3  A    between atoms: C_4  and  C_5 
REMARK    4  A    between atoms: C_5  and  C_6 
REMARK    5  A    between atoms: C_6  and  C_7 
REMARK    6  A    between atoms: C_7  and  C_8 
REMARK    7  A    between atoms: C_8  and  C_9 
REMARK    8  A    between atoms: C_8  and  S_12 
REMARK    9  A    between atoms: C_9  and  C_10 
REMARK   10  A    between atoms: C_10  and  S_11 
ROOT
HETATM    1  C   UNK N   1      29.998  16.730   6.409  0.00  0.00     0.015 C 
ENDROOT
BRANCH   1   2
HETATM    2  C   UNK N   1      31.469  17.142   6.361  0.00  0.00     0.002 C 
BRANCH   2   3
HETATM    3  C   UNK N   1      32.242  16.762   7.610  0.00  0.00     0.010 C 
BRANCH   3   4
HETATM    4  C   UNK N   1      32.849  18.021   8.214  0.00  0.00     0.110 C 
BRANCH   4   5
HETATM    5  C   UNK N   1      34.264  18.258   7.768  0.00  0.00     0.139 C 
HETATM    6  O   UNK N   1      34.698  17.653   6.802  0.00  0.00    -0.650 OA
BRANCH   5   7
HETATM    7  O   UNK N   1      35.056  19.136   8.413  0.00  0.00    -0.776 OA
HETATM    8  H   UNK N   1      35.594  18.847   9.125  0.00  0.00     0.167 HD
ENDBRANCH   5   7
ENDBRANCH   4   5
ENDBRANCH   3   4
ENDBRANCH   2   3
ENDBRANCH   1   2
BRANCH   1   9
HETATM    9  C   UNK N   1      29.020  17.831   6.831  0.00  0.00     0.045 C 
BRANCH   9  10
HETATM   10  C   UNK N   1      27.920  17.161   7.647  0.00  0.00     0.025 C 
BRANCH  10  11
HETATM   11  C   UNK N   1      28.138  17.293   9.145  0.00  0.00     0.072 C 
BRANCH  11  12
HETATM   12  S   UNK N   1      29.350  18.607   9.455  0.00  0.00    -0.182 SA
HETATM   13  H   UNK N   1      29.752  19.018  10.687  0.00  0.00     0.101 HD
ENDBRANCH  11  12
ENDBRANCH  10  11
ENDBRANCH   9  10
BRANCH   9  14
HETATM   14  S   UNK N   1      28.290  18.663   5.375  0.00  0.00    -0.177 SA
HETATM   15  H   UNK N   1      28.650  19.917   4.992  0.00  0.00     0.102 HD
ENDBRANCH   9  14
ENDBRANCH   1   9
TORSDOF 10
ENDMDL
MODEL 5
REMARK VINA RESULT:      -3.9      1.561      1.673
REMARK  10 active torsions:
REMARK  status: ('A' for Active; 'I' for Inactive)
REMARK    1  A    between atoms: C_1  and  O_3 
REMARK    2  A    between atoms: C_1  and  C_4 
REMARK    3  A    between atoms: C_4  and  C_5 
REMARK    4  A    between atoms: C_5  and  C_6 
REMARK    5  A    between atoms: C_6  and  C_7 
REMARK    6  A    between atoms: C_7  and  C_8 
REMARK    7  A    between atoms: C_8  and  C_9 
REMARK    8  A    between atoms: C_8  and  S_12 
REMARK    9  A    between atoms: C_9  and  C_10 
REMARK   10  A    between atoms: C_10  and  S_11 
ROOT
HETATM    1  C   UNK N   1      30.426  17.307   7.125  0.00  0.00     0.015 C 
ENDROOT
BRANCH   1   2
HETATM    2  C   UNK N   1      31.355  16.157   7.511  0.00  0.00     0.002 C 
BRANCH   2   3
HETATM    3  C   UNK N   1      32.425  16.557   8.510  0.00  0.00     0.010 C 
BRANCH   3   4
HETATM    4  C   UNK N   1      32.769  18.026   8.299  0.00  0.00     0.110 C 
BRANCH   4   5
HETATM    5  C   UNK N   1      34.186  18.233   7.848  0.00  0.00     0.139 C 
HETATM    6  O   UNK N   1      34.495  17.963   6.699  0.00  0.00    -0.650 OA
BRANCH   5   7
HETATM    7  O   UNK N   1      35.117  18.723   8.689  0.00  0.00    -0.776 OA
HETATM    8  H   UNK N   1      36.000  18.408   8.646  0.00  0.00     0.167 HD
ENDBRANCH   5   7
ENDBRANCH   4   5
ENDBRANCH   3   4
ENDBRANCH   2   3
ENDBRANCH   1   2
BRANCH   1   9
HETATM    9  C   UNK N   1      29.029  17.262   7.752  0.00  0.00     0.045 C 
BRANCH   9  10
HETATM   10  C   UNK N   1      28.052  17.774   6.699  0.00  0.00     0.025 C 
BRANCH  10  11
HETATM   11  C   UNK N   1      27.885  19.283   6.738  0.00  0.00     0.072 C 
BRANCH  11  12
HETATM   12  S   UNK N   1      27.806  19.916   5.039  0.00  0.00    -0.182 SA
HETATM   13  H   UNK N   1      26.935  20.865   4.604  0.00  0.00     0.101 HD
ENDBRANCH  11  12
ENDBRANCH  10  11
ENDBRANCH   9  10
BRANCH   9  14
HETATM   14  S   UNK N   1      28.936  18.315   9.244  0.00  0.00    -0.177 SA
HETATM   15  H   UNK N   1      28.344  17.902  10.397  0.00  0.00     0.102 HD
ENDBRANCH   9  14
ENDBRANCH   1   9
TORSDOF 10
ENDMDL
MODEL 6
REMARK VINA RESULT:      -3.9      9.808     10.463
REMARK  10 active torsions:
REMARK  status: ('A' for Active; 'I' for Inactive)
REMARK    1  A    between atoms: C_1  and  O_3 
REMARK    2  A    between atoms: C_1  and  C_4 
REMARK    3  A    between atoms: C_4  and  C_5 
REMARK    4  A    between atoms: C_5  and  C_6 
REMARK    5  A    between atoms: C_6  and  C_7 
REMARK    6  A    between atoms: C_7  and  C_8 
REMARK    7  A    between atoms: C_8  and  C_9 
REMARK    8  A    between atoms: C_8  and  S_12 
REMARK    9  A    between atoms: C_9  and  C_10 
REMARK   10  A    between atoms: C_10  and  S_11 
ROOT
HETATM    1  C   UNK N   1      20.714  14.690   9.120  0.00  0.00     0.015 C 
ENDROOT
BRANCH   1   2
HETATM    2  C   UNK N   1      21.023  13.543  10.080  0.00  0.00     0.002 C 
BRANCH   2   3
HETATM    3  C   UNK N   1      22.493  13.165  10.114  0.00  0.00     0.010 C 
BRANCH   3   4
HETATM    4  C   UNK N   1      22.647  11.866  10.893  0.00  0.00     0.110 C 
BRANCH   4   5
HETATM    5  C   UNK N   1      23.595  11.991  12.051  0.00  0.00     0.139 C 
HETATM    6  O   UNK N   1      23.181  11.816  13.186  0.00  0.00    -0.650 OA
BRANCH   5   7
HETATM    7  O   UNK N   1      24.895  12.281  11.855  0.00  0.00    -0.776 OA
HETATM    8  H   UNK N   1      25.305  12.068  11.039  0.00  0.00     0.167 HD
ENDBRANCH   5   7
ENDBRANCH   4   5
ENDBRANCH   3   4
ENDBRANCH   2   3
ENDBRANCH   1   2
BRANCH   1   9
HETATM    9  C   UNK N   1      21.513  14.688   7.813  0.00  0.00     0.045 C 
BRANCH   9  10
HETATM   10  C   UNK N   1      21.455  16.105   7.253  0.00  0.00     0.025 C 
BRANCH  10  11
HETATM   11  C   UNK N   1      20.847  16.163   5.862  0.00  0.00     0.072 C 
BRANCH  11  12
HETATM   12  S   UNK N   1      22.085  16.800   4.699  0.00  0.00    -0.182 SA
HETATM   13  H   UNK N   1      23.381  16.392   4.644  0.00  0.00     0.101 HD
ENDBRANCH  11  12
ENDBRANCH  10  11
ENDBRANCH   9  10
BRANCH   9  14
HETATM   14  S   UNK N   1      20.801  13.517   6.601  0.00  0.00    -0.177 SA
HETATM   15  H   UNK N   1      20.058  13.924   5.538  0.00  0.00     0.102 HD
ENDBRANCH   9  14
ENDBRANCH   1   9
TORSDOF 10
ENDMDL
MODEL 7
REMARK VINA RESULT:      -3.9      2.279      3.424
REMARK  10 active torsions:
REMARK  status: ('A' for Active; 'I' for Inactive)
REMARK    1  A    between atoms: C_1  and  O_3 
REMARK    2  A    between atoms: C_1  and  C_4 
REMARK    3  A    between atoms: C_4  and  C_5 
REMARK    4  A    between atoms: C_5  and  C_6 
REMARK    5  A    between atoms: C_6  and  C_7 
REMARK    6  A    between atoms: C_7  and  C_8 
REMARK    7  A    between atoms: C_8  and  C_9 
REMARK    8  A    between atoms: C_8  and  S_12 
REMARK    9  A    between atoms: C_9  and  C_10 
REMARK   10  A    between atoms: C_10  and  S_11 
ROOT
HETATM    1  C   UNK N   1      30.109  17.192   7.002  0.00  0.00     0.015 C 
ENDROOT
BRANCH   1   2
HETATM    2  C   UNK N   1      31.053  16.876   8.160  0.00  0.00     0.002 C 
BRANCH   2   3
HETATM    3  C   UNK N   1      31.972  18.028   8.520  0.00  0.00     0.010 C 
BRANCH   3   4
HETATM    4  C   UNK N   1      33.385  17.489   8.702  0.00  0.00     0.110 C 
BRANCH   4   5
HETATM    5  C   UNK N   1      34.407  18.250   7.907  0.00  0.00     0.139 C 
HETATM    6  O   UNK N   1      34.487  18.068   6.703  0.00  0.00    -0.650 OA
BRANCH   5   7
HETATM    7  O   UNK N   1      35.227  19.138   8.501  0.00  0.00    -0.776 OA
HETATM    8  H   UNK N   1      35.973  18.837   8.984  0.00  0.00     0.167 HD
ENDBRANCH   5   7
ENDBRANCH   4   5
ENDBRANCH   3   4
ENDBRANCH   2   3
ENDBRANCH   1   2
BRANCH   1   9
HETATM    9  C   UNK N   1      30.340  16.380   5.723  0.00  0.00     0.045 C 
BRANCH   9  10
HETATM   10  C   UNK N   1      31.054  15.097   6.134  0.00  0.00     0.025 C 
BRANCH  10  11
HETATM   11  C   UNK N   1      31.103  14.070   5.016  0.00  0.00     0.072 C 
BRANCH  11  12
HETATM   12  S   UNK N   1      29.410  13.599   4.566  0.00  0.00    -0.182 SA
HETATM   13  H   UNK N   1      28.975  13.386   3.296  0.00  0.00     0.101 HD
ENDBRANCH  11  12
ENDBRANCH  10  11
ENDBRANCH   9  10
BRANCH   9  14
HETATM   14  S   UNK N   1      31.371  17.304   4.528  0.00  0.00    -0.177 SA
HETATM   15  H   UNK N   1      32.692  17.040   4.342  0.00  0.00     0.102 HD
ENDBRANCH   9  14
ENDBRANCH   1   9
TORSDOF 10
ENDMDL
MODEL 8
REMARK VINA RESULT:      -3.8      7.977     10.315
REMARK  10 active torsions:
REMARK  status: ('A' for Active; 'I' for Inactive)
REMARK    1  A    between atoms: C_1  and  O_3 
REMARK    2  A    between atoms: C_1  and  C_4 
REMARK    3  A    between atoms: C_4  and  C_5 
REMARK    4  A    between atoms: C_5  and  C_6 
REMARK    5  A    between atoms: C_6  and  C_7 
REMARK    6  A    between atoms: C_7  and  C_8 
REMARK    7  A    between atoms: C_8  and  C_9 
REMARK    8  A    between atoms: C_8  and  S_12 
REMARK    9  A    between atoms: C_9  and  C_10 
REMARK   10  A    between atoms: C_10  and  S_11 
ROOT
HETATM    1  C   UNK N   1      24.518  20.382   3.131  0.00  0.00     0.015 C 
ENDROOT
BRANCH   1   2
HETATM    2  C   UNK N   1      23.089  19.844   3.156  0.00  0.00     0.002 C 
BRANCH   2   3
HETATM    3  C   UNK N   1      22.045  20.893   2.822  0.00  0.00     0.010 C 
BRANCH   3   4
HETATM    4  C   UNK N   1      20.803  20.196   2.284  0.00  0.00     0.110 C 
BRANCH   4   5
HETATM    5  C   UNK N   1      20.819  20.047   0.790  0.00  0.00     0.139 C 
HETATM    6  O   UNK N   1      21.214  20.971   0.098  0.00  0.00    -0.650 OA
BRANCH   5   7
HETATM    7  O   UNK N   1      20.413  18.904   0.203  0.00  0.00    -0.776 OA
HETATM    8  H   UNK N   1      19.498  18.727   0.103  0.00  0.00     0.167 HD
ENDBRANCH   5   7
ENDBRANCH   4   5
ENDBRANCH   3   4
ENDBRANCH   2   3
ENDBRANCH   1   2
BRANCH   1   9
HETATM    9  C   UNK N   1      25.455  19.811   4.200  0.00  0.00     0.045 C 
BRANCH   9  10
HETATM   10  C   UNK N   1      26.765  20.586   4.103  0.00  0.00     0.025 C 
BRANCH  10  11
HETATM   11  C   UNK N   1      27.901  19.914   4.856  0.00  0.00     0.072 C 
BRANCH  11  12
HETATM   12  S   UNK N   1      27.618  20.093   6.640  0.00  0.00    -0.182 SA
HETATM   13  H   UNK N   1      26.603  19.505   7.328  0.00  0.00     0.101 HD
ENDBRANCH  11  12
ENDBRANCH  10  11
ENDBRANCH   9  10
BRANCH   9  14
HETATM   14  S   UNK N   1      25.768  18.030   3.927  0.00  0.00    -0.177 SA
HETATM   15  H   UNK N   1      25.599  17.099   4.903  0.00  0.00     0.102 HD
ENDBRANCH   9  14
ENDBRANCH   1   9
TORSDOF 10
ENDMDL
MODEL 9
REMARK VINA RESULT:      -3.7     12.493     14.146
REMARK  10 active torsions:
REMARK  status: ('A' for Active; 'I' for Inactive)
REMARK    1  A    between atoms: C_1  and  O_3 
REMARK    2  A    between atoms: C_1  and  C_4 
REMARK    3  A    between atoms: C_4  and  C_5 
REMARK    4  A    between atoms: C_5  and  C_6 
REMARK    5  A    between atoms: C_6  and  C_7 
REMARK    6  A    between atoms: C_7  and  C_8 
REMARK    7  A    between atoms: C_8  and  C_9 
REMARK    8  A    between atoms: C_8  and  S_12 
REMARK    9  A    between atoms: C_9  and  C_10 
REMARK   10  A    between atoms: C_10  and  S_11 
ROOT
HETATM    1  C   UNK N   1      26.172  24.420  -5.892  0.00  0.00     0.015 C 
ENDROOT
BRANCH   1   2
HETATM    2  C   UNK N   1      27.431  23.822  -5.267  0.00  0.00     0.002 C 
BRANCH   2   3
HETATM    3  C   UNK N   1      27.709  24.331  -3.865  0.00  0.00     0.010 C 
BRANCH   3   4
HETATM    4  C   UNK N   1      29.132  23.951  -3.477  0.00  0.00     0.110 C 
BRANCH   4   5
HETATM    5  C   UNK N   1      29.208  23.257  -2.148  0.00  0.00     0.139 C 
HETATM    6  O   UNK N   1      30.299  23.005  -1.664  0.00  0.00    -0.650 OA
BRANCH   5   7
HETATM    7  O   UNK N   1      28.090  22.920  -1.477  0.00  0.00    -0.776 OA
HETATM    8  H   UNK N   1      27.720  23.514  -0.853  0.00  0.00     0.167 HD
ENDBRANCH   5   7
ENDBRANCH   4   5
ENDBRANCH   3   4
ENDBRANCH   2   3
ENDBRANCH   1   2
BRANCH   1   9
HETATM    9  C   UNK N   1      26.385  25.705  -6.699  0.00  0.00     0.045 C 
BRANCH   9  10
HETATM   10  C   UNK N   1      25.437  26.752  -6.127  0.00  0.00     0.025 C 
BRANCH  10  11
HETATM   11  C   UNK N   1      26.169  27.898  -5.448  0.00  0.00     0.072 C 
BRANCH  11  12
HETATM   12  S   UNK N   1      25.778  27.885  -3.676  0.00  0.00    -0.182 SA
HETATM   13  H   UNK N   1      24.622  28.351  -3.133  0.00  0.00     0.101 HD
ENDBRANCH  11  12
ENDBRANCH  10  11
ENDBRANCH   9  10
BRANCH   9  14
HETATM   14  S   UNK N   1      26.019  25.443  -8.472  0.00  0.00    -0.177 SA
HETATM   15  H   UNK N   1      26.990  25.190  -9.390  0.00  0.00     0.102 HD
ENDBRANCH   9  14
ENDBRANCH   1   9
TORSDOF 10
ENDMDL
