MODEL 1
REMARK VINA RESULT:      -5.1      0.000      0.000
REMARK  3 active torsions:
REMARK  status: ('A' for Active; 'I' for Inactive)
REMARK    1  A    between atoms: C_3  and  N_4 
REMARK    2  A    between atoms: C_5  and  N_4 
REMARK    3  A    between atoms: C_13  and  O_14 
ROOT
HETATM    1  C   UNK N   1      30.995  25.386  -3.663  0.00  0.00     0.014 C 
HETATM    2  C   UNK N   1      30.176  24.547  -3.378  0.00  0.00    -0.098 C 
HETATM    3  C   UNK N   1      29.191  23.521  -3.029  0.00  0.00     0.208 C 
ENDROOT
BRANCH   3   4
HETATM    4  N   UNK N   1      27.841  24.031  -3.246  0.00  0.00    -0.403 N 
HETATM    5  H   UNK N   1      27.073  23.979  -2.578  0.00  0.00     0.154 HD
BRANCH   4   6
HETATM    6  C   UNK N   1      27.771  24.630  -4.579  0.00  0.00     0.111 A 
HETATM    7  C   UNK N   1      27.156  23.649  -5.605  0.00  0.00     0.034 A 
HETATM    8  C   UNK N   1      25.973  24.352  -6.303  0.00  0.00     0.041 A 
HETATM    9  C   UNK N   1      25.850  25.613  -5.551  0.00  0.00    -0.050 A 
HETATM   10  C   UNK N   1      26.821  25.763  -4.601  0.00  0.00    -0.027 A 
HETATM   11  C   UNK N   1      24.885  26.600  -5.761  0.00  0.00     0.010 A 
HETATM   12  C   UNK N   1      26.879  26.907  -3.802  0.00  0.00     0.046 A 
HETATM   13  C   UNK N   1      25.910  27.908  -3.983  0.00  0.00     0.066 A 
HETATM   14  C   UNK N   1      24.916  27.754  -4.966  0.00  0.00     0.037 A 
BRANCH  13  15
HETATM   15  O   UNK N   1      25.934  29.011  -3.220  0.00  0.00    -0.361 OA
HETATM   16  H   UNK N   1      25.139  29.368  -2.878  0.00  0.00     0.217 HD
ENDBRANCH  13  15
ENDBRANCH   4   6
ENDBRANCH   3   4
TORSDOF 3
ENDMDL
MODEL 2
REMARK VINA RESULT:      -5.0     11.558     13.993
REMARK  3 active torsions:
REMARK  status: ('A' for Active; 'I' for Inactive)
REMARK    1  A    between atoms: C_3  and  N_4 
REMARK    2  A    between atoms: C_5  and  N_4 
REMARK    3  A    between atoms: C_13  and  O_14 
ROOT
HETATM    1  C   UNK N   1      25.247  20.422   3.192  0.00  0.00     0.014 C 
HETATM    2  C   UNK N   1      26.194  20.125   3.878  0.00  0.00    -0.098 C 
HETATM    3  C   UNK N   1      27.350  19.766   4.702  0.00  0.00     0.208 C 
ENDROOT
BRANCH   3   4
HETATM    4  N   UNK N   1      26.903  19.218   5.978  0.00  0.00    -0.403 N 
HETATM    5  H   UNK N   1      26.277  19.682   6.636  0.00  0.00     0.154 HD
BRANCH   4   6
HETATM    6  C   UNK N   1      27.498  17.894   6.158  0.00  0.00     0.111 A 
HETATM    7  C   UNK N   1      28.157  17.391   4.852  0.00  0.00     0.034 A 
HETATM    8  C   UNK N   1      29.620  17.007   5.161  0.00  0.00     0.041 A 
HETATM    9  C   UNK N   1      29.789  17.452   6.555  0.00  0.00    -0.050 A 
HETATM   10  C   UNK N   1      28.637  17.949   7.099  0.00  0.00    -0.027 A 
HETATM   11  C   UNK N   1      30.966  17.374   7.302  0.00  0.00     0.010 A 
HETATM   12  C   UNK N   1      28.599  18.400   8.420  0.00  0.00     0.046 A 
HETATM   13  C   UNK N   1      29.773  18.346   9.188  0.00  0.00     0.066 A 
HETATM   14  C   UNK N   1      30.955  17.829   8.628  0.00  0.00     0.037 A 
BRANCH  13  15
HETATM   15  O   UNK N   1      29.767  18.786  10.455  0.00  0.00    -0.361 OA
HETATM   16  H   UNK N   1      29.556  18.205  11.158  0.00  0.00     0.217 HD
ENDBRANCH  13  15
ENDBRANCH   4   6
ENDBRANCH   3   4
TORSDOF 3
ENDMDL
MODEL 3
REMARK VINA RESULT:      -5.0     14.357     15.797
REMARK  3 active torsions:
REMARK  status: ('A' for Active; 'I' for Inactive)
REMARK    1  A    between atoms: C_3  and  N_4 
REMARK    2  A    between atoms: C_5  and  N_4 
REMARK    3  A    between atoms: C_13  and  O_14 
ROOT
HETATM    1  C   UNK N   1      35.434  14.667   8.952  0.00  0.00     0.014 C 
HETATM    2  C   UNK N   1      34.293  15.033   8.814  0.00  0.00    -0.098 C 
HETATM    3  C   UNK N   1      32.905  15.469   8.642  0.00  0.00     0.208 C 
ENDROOT
BRANCH   3   4
HETATM    4  N   UNK N   1      32.725  16.800   9.210  0.00  0.00    -0.403 N 
HETATM    5  H   UNK N   1      32.897  17.058  10.182  0.00  0.00     0.154 HD
BRANCH   4   6
HETATM    6  C   UNK N   1      32.261  17.705   8.159  0.00  0.00     0.111 A 
HETATM    7  C   UNK N   1      32.810  17.286   6.774  0.00  0.00     0.034 A 
HETATM    8  C   UNK N   1      31.619  17.133   5.804  0.00  0.00     0.041 A 
HETATM    9  C   UNK N   1      30.452  17.298   6.688  0.00  0.00    -0.050 A 
HETATM   10  C   UNK N   1      30.797  17.596   7.976  0.00  0.00    -0.027 A 
HETATM   11  C   UNK N   1      29.113  17.200   6.302  0.00  0.00     0.010 A 
HETATM   12  C   UNK N   1      29.823  17.810   8.953  0.00  0.00     0.046 A 
HETATM   13  C   UNK N   1      28.469  17.702   8.595  0.00  0.00     0.066 A 
HETATM   14  C   UNK N   1      28.117  17.401   7.267  0.00  0.00     0.037 A 
BRANCH  13  15
HETATM   15  O   UNK N   1      27.514  17.888   9.518  0.00  0.00    -0.361 OA
HETATM   16  H   UNK N   1      26.984  18.660   9.502  0.00  0.00     0.217 HD
ENDBRANCH  13  15
ENDBRANCH   4   6
ENDBRANCH   3   4
TORSDOF 3
ENDMDL
MODEL 4
REMARK VINA RESULT:      -4.9     10.392     12.207
REMARK  3 active torsions:
REMARK  status: ('A' for Active; 'I' for Inactive)
REMARK    1  A    between atoms: C_3  and  N_4 
REMARK    2  A    between atoms: C_5  and  N_4 
REMARK    3  A    between atoms: C_13  and  O_14 
ROOT
HETATM    1  C   UNK N   1      33.499  17.474   5.164  0.00  0.00     0.014 C 
HETATM    2  C   UNK N   1      32.369  17.083   5.002  0.00  0.00    -0.098 C 
HETATM    3  C   UNK N   1      31.000  16.599   4.806  0.00  0.00     0.208 C 
ENDROOT
BRANCH   3   4
HETATM    4  N   UNK N   1      30.112  17.720   4.517  0.00  0.00    -0.403 N 
HETATM    5  H   UNK N   1      30.287  18.455   3.832  0.00  0.00     0.154 HD
BRANCH   4   6
HETATM    6  C   UNK N   1      28.927  17.615   5.369  0.00  0.00     0.111 A 
HETATM    7  C   UNK N   1      29.303  17.702   6.868  0.00  0.00     0.034 A 
HETATM    8  C   UNK N   1      28.462  18.820   7.518  0.00  0.00     0.041 A 
HETATM    9  C   UNK N   1      27.779  19.430   6.364  0.00  0.00    -0.050 A 
HETATM   10  C   UNK N   1      28.040  18.785   5.188  0.00  0.00    -0.027 A 
HETATM   11  C   UNK N   1      26.921  20.532   6.410  0.00  0.00     0.010 A 
HETATM   12  C   UNK N   1      27.462  19.207   3.989  0.00  0.00     0.046 A 
HETATM   13  C   UNK N   1      26.609  20.322   4.005  0.00  0.00     0.066 A 
HETATM   14  C   UNK N   1      26.337  20.981   5.217  0.00  0.00     0.037 A 
BRANCH  13  15
HETATM   15  O   UNK N   1      26.052  20.758   2.864  0.00  0.00    -0.361 OA
HETATM   16  H   UNK N   1      26.569  20.847   2.088  0.00  0.00     0.217 HD
ENDBRANCH  13  15
ENDBRANCH   4   6
ENDBRANCH   3   4
TORSDOF 3
ENDMDL
MODEL 5
REMARK VINA RESULT:      -4.9      2.671      4.338
REMARK  3 active torsions:
REMARK  status: ('A' for Active; 'I' for Inactive)
REMARK    1  A    between atoms: C_3  and  N_4 
REMARK    2  A    between atoms: C_5  and  N_4 
REMARK    3  A    between atoms: C_13  and  O_14 
ROOT
HETATM    1  C   UNK N   1      28.606  29.181  -7.115  0.00  0.00     0.014 C 
HETATM    2  C   UNK N   1      27.983  29.285  -6.087  0.00  0.00    -0.098 C 
HETATM    3  C   UNK N   1      27.223  29.421  -4.842  0.00  0.00     0.208 C 
ENDROOT
BRANCH   3   4
HETATM    4  N   UNK N   1      27.587  28.354  -3.916  0.00  0.00    -0.403 N 
HETATM    5  H   UNK N   1      28.479  28.271  -3.428  0.00  0.00     0.154 HD
BRANCH   4   6
HETATM    6  C   UNK N   1      26.464  27.425  -3.801  0.00  0.00     0.111 A 
HETATM    7  C   UNK N   1      25.234  27.928  -4.594  0.00  0.00     0.034 A 
HETATM    8  C   UNK N   1      24.784  26.809  -5.557  0.00  0.00     0.041 A 
HETATM    9  C   UNK N   1      25.847  25.799  -5.407  0.00  0.00    -0.050 A 
HETATM   10  C   UNK N   1      26.772  26.137  -4.459  0.00  0.00    -0.027 A 
HETATM   11  C   UNK N   1      25.935  24.594  -6.107  0.00  0.00     0.010 A 
HETATM   12  C   UNK N   1      27.843  25.291  -4.162  0.00  0.00     0.046 A 
HETATM   13  C   UNK N   1      27.964  24.081  -4.864  0.00  0.00     0.066 A 
HETATM   14  C   UNK N   1      27.007  23.732  -5.833  0.00  0.00     0.037 A 
BRANCH  13  15
HETATM   15  O   UNK N   1      28.991  23.256  -4.608  0.00  0.00    -0.361 OA
HETATM   16  H   UNK N   1      29.857  23.596  -4.504  0.00  0.00     0.217 HD
ENDBRANCH  13  15
ENDBRANCH   4   6
ENDBRANCH   3   4
TORSDOF 3
ENDMDL
MODEL 6
REMARK VINA RESULT:      -4.8     12.582     14.649
REMARK  3 active torsions:
REMARK  status: ('A' for Active; 'I' for Inactive)
REMARK    1  A    between atoms: C_3  and  N_4 
REMARK    2  A    between atoms: C_5  and  N_4 
REMARK    3  A    between atoms: C_13  and  O_14 
ROOT
HETATM    1  C   UNK N   1      28.472  14.420   4.456  0.00  0.00     0.014 C 
HETATM    2  C   UNK N   1      28.719  15.489   3.954  0.00  0.00    -0.098 C 
HETATM    3  C   UNK N   1      29.014  16.783   3.335  0.00  0.00     0.208 C 
ENDROOT
BRANCH   3   4
HETATM    4  N   UNK N   1      29.863  17.576   4.217  0.00  0.00    -0.403 N 
HETATM    5  H   UNK N   1      29.667  18.525   4.534  0.00  0.00     0.154 HD
BRANCH   4   6
HETATM    6  C   UNK N   1      31.042  16.787   4.572  0.00  0.00     0.111 A 
HETATM    7  C   UNK N   1      32.255  17.155   3.684  0.00  0.00     0.034 A 
HETATM    8  C   UNK N   1      33.439  17.521   4.604  0.00  0.00     0.041 A 
HETATM    9  C   UNK N   1      32.828  17.515   5.944  0.00  0.00    -0.050 A 
HETATM   10  C   UNK N   1      31.517  17.128   5.931  0.00  0.00    -0.027 A 
HETATM   11  C   UNK N   1      33.477  17.832   7.140  0.00  0.00     0.010 A 
HETATM   12  C   UNK N   1      30.778  17.040   7.113  0.00  0.00     0.046 A 
HETATM   13  C   UNK N   1      31.402  17.369   8.327  0.00  0.00     0.066 A 
HETATM   14  C   UNK N   1      32.753  17.761   8.339  0.00  0.00     0.037 A 
BRANCH  13  15
HETATM   15  O   UNK N   1      30.711  17.307   9.475  0.00  0.00    -0.361 OA
HETATM   16  H   UNK N   1      30.015  16.690   9.576  0.00  0.00     0.217 HD
ENDBRANCH  13  15
ENDBRANCH   4   6
ENDBRANCH   3   4
TORSDOF 3
ENDMDL
MODEL 7
REMARK VINA RESULT:      -4.7      1.409      1.580
REMARK  3 active torsions:
REMARK  status: ('A' for Active; 'I' for Inactive)
REMARK    1  A    between atoms: C_3  and  N_4 
REMARK    2  A    between atoms: C_5  and  N_4 
REMARK    3  A    between atoms: C_13  and  O_14 
ROOT
HETATM    1  C   UNK N   1      29.679  22.978  -2.262  0.00  0.00     0.014 C 
HETATM    2  C   UNK N   1      29.509  23.048  -3.454  0.00  0.00    -0.098 C 
HETATM    3  C   UNK N   1      29.313  23.130  -4.903  0.00  0.00     0.208 C 
ENDROOT
BRANCH   3   4
HETATM    4  N   UNK N   1      27.936  23.509  -5.200  0.00  0.00    -0.403 N 
HETATM    5  H   UNK N   1      27.104  22.989  -4.921  0.00  0.00     0.154 HD
BRANCH   4   6
HETATM    6  C   UNK N   1      27.942  24.758  -5.961  0.00  0.00     0.111 A 
HETATM    7  C   UNK N   1      27.360  24.555  -7.380  0.00  0.00     0.034 A 
HETATM    8  C   UNK N   1      26.226  25.580  -7.593  0.00  0.00     0.041 A 
HETATM    9  C   UNK N   1      26.090  26.200  -6.264  0.00  0.00    -0.050 A 
HETATM   10  C   UNK N   1      27.016  25.746  -5.367  0.00  0.00    -0.027 A 
HETATM   11  C   UNK N   1      25.155  27.175  -5.908  0.00  0.00     0.010 A 
HETATM   12  C   UNK N   1      27.056  26.237  -4.060  0.00  0.00     0.046 A 
HETATM   13  C   UNK N   1      26.117  27.206  -3.672  0.00  0.00     0.066 A 
HETATM   14  C   UNK N   1      25.170  27.676  -4.598  0.00  0.00     0.037 A 
BRANCH  13  15
HETATM   15  O   UNK N   1      26.125  27.683  -2.418  0.00  0.00    -0.361 OA
HETATM   16  H   UNK N   1      26.334  27.122  -1.698  0.00  0.00     0.217 HD
ENDBRANCH  13  15
ENDBRANCH   4   6
ENDBRANCH   3   4
TORSDOF 3
ENDMDL
MODEL 8
REMARK VINA RESULT:      -4.7      2.576      4.819
REMARK  3 active torsions:
REMARK  status: ('A' for Active; 'I' for Inactive)
REMARK    1  A    between atoms: C_3  and  N_4 
REMARK    2  A    between atoms: C_5  and  N_4 
REMARK    3  A    between atoms: C_13  and  O_14 
ROOT
HETATM    1  C   UNK N   1      27.618  29.048  -5.622  0.00  0.00     0.014 C 
HETATM    2  C   UNK N   1      27.059  27.983  -5.534  0.00  0.00    -0.098 C 
HETATM    3  C   UNK N   1      26.375  26.691  -5.436  0.00  0.00     0.208 C 
ENDROOT
BRANCH   3   4
HETATM    4  N   UNK N   1      26.883  25.943  -4.291  0.00  0.00    -0.403 N 
HETATM    5  H   UNK N   1      27.227  26.351  -3.422  0.00  0.00     0.154 HD
BRANCH   4   6
HETATM    6  C   UNK N   1      26.816  24.514  -4.593  0.00  0.00     0.111 A 
HETATM    7  C   UNK N   1      26.768  24.263  -6.119  0.00  0.00     0.034 A 
HETATM    8  C   UNK N   1      27.904  23.285  -6.488  0.00  0.00     0.041 A 
HETATM    9  C   UNK N   1      28.645  23.150  -5.223  0.00  0.00    -0.050 A 
HETATM   10  C   UNK N   1      28.063  23.829  -4.189  0.00  0.00    -0.027 A 
HETATM   11  C   UNK N   1      29.807  22.398  -5.031  0.00  0.00     0.010 A 
HETATM   12  C   UNK N   1      28.612  23.799  -2.905  0.00  0.00     0.046 A 
HETATM   13  C   UNK N   1      29.789  23.064  -2.690  0.00  0.00     0.066 A 
HETATM   14  C   UNK N   1      30.383  22.361  -3.753  0.00  0.00     0.037 A 
BRANCH  13  15
HETATM   15  O   UNK N   1      30.346  23.030  -1.470  0.00  0.00    -0.361 OA
HETATM   16  H   UNK N   1      29.844  22.757  -0.727  0.00  0.00     0.217 HD
ENDBRANCH  13  15
ENDBRANCH   4   6
ENDBRANCH   3   4
TORSDOF 3
ENDMDL
MODEL 9
REMARK VINA RESULT:      -4.7      2.796      3.815
REMARK  3 active torsions:
REMARK  status: ('A' for Active; 'I' for Inactive)
REMARK    1  A    between atoms: C_3  and  N_4 
REMARK    2  A    between atoms: C_5  and  N_4 
REMARK    3  A    between atoms: C_13  and  O_14 
ROOT
HETATM    1  C   UNK N   1      30.623  26.242  -3.641  0.00  0.00     0.014 C 
HETATM    2  C   UNK N   1      30.072  27.315  -3.602  0.00  0.00    -0.098 C 
HETATM    3  C   UNK N   1      29.414  28.622  -3.555  0.00  0.00     0.208 C 
ENDROOT
BRANCH   3   4
HETATM    4  N   UNK N   1      27.985  28.453  -3.315  0.00  0.00    -0.403 N 
HETATM    5  H   UNK N   1      27.567  28.077  -2.464  0.00  0.00     0.154 HD
BRANCH   4   6
HETATM    6  C   UNK N   1      27.250  28.911  -4.494  0.00  0.00     0.111 A 
HETATM    7  C   UNK N   1      28.165  29.708  -5.453  0.00  0.00     0.034 A 
HETATM    8  C   UNK N   1      28.070  29.074  -6.857  0.00  0.00     0.041 A 
HETATM    9  C   UNK N   1      27.260  27.867  -6.619  0.00  0.00    -0.050 A 
HETATM   10  C   UNK N   1      26.821  27.767  -5.328  0.00  0.00    -0.027 A 
HETATM   11  C   UNK N   1      26.919  26.909  -7.575  0.00  0.00     0.010 A 
HETATM   12  C   UNK N   1      26.019  26.699  -4.919  0.00  0.00     0.046 A 
HETATM   13  C   UNK N   1      25.675  25.713  -5.858  0.00  0.00     0.066 A 
HETATM   14  C   UNK N   1      26.123  25.822  -7.187  0.00  0.00     0.037 A 
BRANCH  13  15
HETATM   15  O   UNK N   1      24.918  24.669  -5.488  0.00  0.00    -0.361 OA
HETATM   16  H   UNK N   1      24.927  24.368  -4.601  0.00  0.00     0.217 HD
ENDBRANCH  13  15
ENDBRANCH   4   6
ENDBRANCH   3   4
TORSDOF 3
ENDMDL
