REMARK  13 active torsions:
REMARK  status: ('A' for Active; 'I' for Inactive)
REMARK    1  A    between atoms: C_1  and  O_3 
REMARK    2  A    between atoms: C_1  and  C_4 
REMARK    3  A    between atoms: C_4  and  C_5 
REMARK    4  A    between atoms: C_5  and  O_6 
REMARK    5  A    between atoms: C_5  and  C_7 
REMARK       I    between atoms: C_7  and  N_9 
REMARK    6  A    between atoms: C_10  and  N_9 
REMARK    7  A    between atoms: C_10  and  C_11 
REMARK    8  A    between atoms: C_10  and  C_19 
REMARK    9  A    between atoms: C_11  and  C_12 
REMARK   10  A    between atoms: C_12  and  C_13 
REMARK       I    between atoms: C_19  and  N_20 
REMARK   11  A    between atoms: N_20  and  C_21 
REMARK   12  A    between atoms: C_21  and  C_22 
REMARK   13  A    between atoms: C_22  and  C_23 
ROOT
HETATM    1  C   UNK N   1      -1.182  -0.553   0.386  0.00  0.00     0.177 C 
ENDROOT
BRANCH   1   2
HETATM    2  N   UNK N   1      -2.539  -0.233  -0.008  0.00  0.00    -0.346 N 
HETATM    3  C   UNK N   1      -3.126   0.986   0.073  0.00  0.00     0.247 C 
HETATM    4  O   UNK N   1      -2.473   1.978   0.377  0.00  0.00    -0.271 OA
HETATM    5  H   UNK N   1      -3.085  -0.969  -0.367  0.00  0.00     0.163 HD
BRANCH   3   6
HETATM    6  C   UNK N   1      -4.614   1.073  -0.137  0.00  0.00     0.219 C 
BRANCH   6   7
HETATM    7  C   UNK N   1      -5.157   2.503  -0.093  0.00  0.00     0.151 C 
BRANCH   7   8
HETATM    8  C   UNK N   1      -6.663   2.563  -0.073  0.00  0.00     0.142 C 
HETATM    9  O   UNK N   1      -7.221   3.643  -0.158  0.00  0.00    -0.650 OA
BRANCH   8  10
HETATM   10  O   UNK N   1      -7.402   1.442   0.058  0.00  0.00    -0.776 OA
HETATM   11  H   UNK N   1      -8.332   1.498   0.150  0.00  0.00     0.167 HD
ENDBRANCH   8  10
ENDBRANCH   7   8
ENDBRANCH   6   7
BRANCH   6  12
HETATM   12  O   UNK N   1      -4.948   0.488  -1.360  0.00  0.00    -0.386 OA
HETATM   13  H   UNK N   1      -5.416   0.485  -2.210  0.00  0.00     0.210 HD
ENDBRANCH   6  12
ENDBRANCH   3   6
ENDBRANCH   1   2
BRANCH   1  14
HETATM   14  C   UNK N   1      -1.030  -2.061   0.225  0.00  0.00     0.039 C 
BRANCH  14  15
HETATM   15  C   UNK N   1       0.054  -2.608   1.139  0.00  0.00     0.041 C 
BRANCH  15  16
HETATM   16  C   UNK N   1       0.819  -3.703   0.489  0.00  0.00    -0.058 A 
HETATM   17  C   UNK N   1       2.193  -3.547   0.292  0.00  0.00     0.007 A 
HETATM   18  C   UNK N   1       2.939  -4.576  -0.289  0.00  0.00     0.001 A 
HETATM   19  C   UNK N   1       2.311  -5.764  -0.671  0.00  0.00     0.000 A 
HETATM   20  C   UNK N   1       0.935  -5.924  -0.474  0.00  0.00     0.001 A 
HETATM   21  C   UNK N   1       0.188  -4.896   0.108  0.00  0.00     0.007 A 
ENDBRANCH  15  16
ENDBRANCH  14  15
ENDBRANCH   1  14
BRANCH   1  22
HETATM   22  C   UNK N   1      -0.096   0.151  -0.409  0.00  0.00     0.240 C 
HETATM   23  N   UNK N   1       1.204  -0.105  -0.102  0.00  0.00    -0.359 N 
HETATM   24  H   UNK N   1       1.402  -0.716   0.644  0.00  0.00     0.162 HD
HETATM   25  O   UNK N   1      -0.378   0.917  -1.317  0.00  0.00    -0.271 OA
BRANCH  23  26
HETATM   26  C   UNK N   1       2.303   0.480  -0.826  0.00  0.00     0.123 C 
BRANCH  26  27
HETATM   27  C   UNK N   1       3.249   1.175   0.137  0.00  0.00     0.023 C 
BRANCH  27  28
HETATM   28  C   UNK N   1       3.352   2.647  -0.214  0.00  0.00    -0.021 C 
HETATM   29  C   UNK N   1       2.104   3.381   0.241  0.00  0.00     0.009 C 
HETATM   30  C   UNK N   1       4.562   3.251   0.465  0.00  0.00     0.009 C 
ENDBRANCH  27  28
ENDBRANCH  26  27
ENDBRANCH  23  26
ENDBRANCH   1  22
TORSDOF 13
