MODEL 1
REMARK VINA RESULT:      -6.9      0.000      0.000
REMARK  13 active torsions:
REMARK  status: ('A' for Active; 'I' for Inactive)
REMARK    1  A    between atoms: C_1  and  O_3 
REMARK    2  A    between atoms: C_1  and  C_4 
REMARK    3  A    between atoms: C_4  and  C_5 
REMARK    4  A    between atoms: C_5  and  O_6 
REMARK    5  A    between atoms: C_5  and  C_7 
REMARK       I    between atoms: C_7  and  N_9 
REMARK    6  A    between atoms: C_10  and  N_9 
REMARK    7  A    between atoms: C_10  and  C_11 
REMARK    8  A    between atoms: C_10  and  C_19 
REMARK    9  A    between atoms: C_11  and  C_12 
REMARK   10  A    between atoms: C_12  and  C_13 
REMARK       I    between atoms: C_19  and  N_20 
REMARK   11  A    between atoms: N_20  and  C_21 
REMARK   12  A    between atoms: C_21  and  C_22 
REMARK   13  A    between atoms: C_22  and  C_23 
ROOT
HETATM    1  C   UNK N   1      33.943  16.388   8.969  0.00  0.00     0.177 C 
ENDROOT
BRANCH   1   2
HETATM    2  N   UNK N   1      32.769  17.222   9.131  0.00  0.00    -0.346 N 
HETATM    3  C   UNK N   1      31.558  17.014   8.559  0.00  0.00     0.247 C 
HETATM    4  O   UNK N   1      31.325  15.981   7.942  0.00  0.00    -0.271 OA
HETATM    5  H   UNK N   1      32.861  18.014   9.709  0.00  0.00     0.163 HD
BRANCH   3   6
HETATM    6  C   UNK N   1      30.539  18.120   8.632  0.00  0.00     0.219 C 
BRANCH   6   7
HETATM    7  C   UNK N   1      29.306  17.876   7.759  0.00  0.00     0.151 C 
BRANCH   7   8
HETATM    8  C   UNK N   1      28.096  18.650   8.215  0.00  0.00     0.142 C 
HETATM    9  O   UNK N   1      27.735  19.626   7.581  0.00  0.00    -0.650 OA
BRANCH   8  10
HETATM   10  O   UNK N   1      27.420  18.292   9.326  0.00  0.00    -0.776 OA
HETATM   11  H   UNK N   1      27.342  17.389   9.561  0.00  0.00     0.167 HD
ENDBRANCH   8  10
ENDBRANCH   7   8
ENDBRANCH   6   7
BRANCH   6  12
HETATM   12  O   UNK N   1      30.140  18.301   9.957  0.00  0.00    -0.386 OA
HETATM   13  H   UNK N   1      29.500  18.585  10.629  0.00  0.00     0.210 HD
ENDBRANCH   6  12
ENDBRANCH   3   6
ENDBRANCH   1   2
BRANCH   1  14
HETATM   14  C   UNK N   1      34.673  16.904   7.735  0.00  0.00     0.039 C 
BRANCH  14  15
HETATM   15  C   UNK N   1      34.800  15.823   6.675  0.00  0.00     0.041 C 
BRANCH  15  16
HETATM   16  C   UNK N   1      34.024  16.159   5.453  0.00  0.00    -0.058 A 
HETATM   17  C   UNK N   1      33.375  17.393   5.379  0.00  0.00     0.007 A 
HETATM   18  C   UNK N   1      32.665  17.744   4.227  0.00  0.00     0.001 A 
HETATM   19  C   UNK N   1      32.606  16.860   3.147  0.00  0.00     0.000 A 
HETATM   20  C   UNK N   1      33.256  15.623   3.217  0.00  0.00     0.001 A 
HETATM   21  C   UNK N   1      33.967  15.272   4.368  0.00  0.00     0.007 A 
ENDBRANCH  15  16
ENDBRANCH  14  15
ENDBRANCH   1  14
BRANCH   1  22
HETATM   22  C   UNK N   1      34.896  16.377  10.152  0.00  0.00     0.240 C 
HETATM   23  N   UNK N   1      34.923  15.281  10.955  0.00  0.00    -0.359 N 
HETATM   24  H   UNK N   1      34.304  14.539  10.764  0.00  0.00     0.162 HD
HETATM   25  O   UNK N   1      35.637  17.323  10.370  0.00  0.00    -0.271 OA
BRANCH  23  26
HETATM   26  C   UNK N   1      35.821  15.159  12.074  0.00  0.00     0.123 C 
BRANCH  26  27
HETATM   27  C   UNK N   1      35.844  13.724  12.570  0.00  0.00     0.023 C 
BRANCH  27  28
HETATM   28  C   UNK N   1      35.537  13.686  14.054  0.00  0.00    -0.021 C 
HETATM   29  C   UNK N   1      35.054  12.304  14.453  0.00  0.00     0.009 C 
HETATM   30  C   UNK N   1      36.783  14.027  14.843  0.00  0.00     0.009 C 
ENDBRANCH  27  28
ENDBRANCH  26  27
ENDBRANCH  23  26
ENDBRANCH   1  22
TORSDOF 13
ENDMDL
MODEL 2
REMARK VINA RESULT:      -6.9     10.180     12.236
REMARK  13 active torsions:
REMARK  status: ('A' for Active; 'I' for Inactive)
REMARK    1  A    between atoms: C_1  and  O_3 
REMARK    2  A    between atoms: C_1  and  C_4 
REMARK    3  A    between atoms: C_4  and  C_5 
REMARK    4  A    between atoms: C_5  and  O_6 
REMARK    5  A    between atoms: C_5  and  C_7 
REMARK       I    between atoms: C_7  and  N_9 
REMARK    6  A    between atoms: C_10  and  N_9 
REMARK    7  A    between atoms: C_10  and  C_11 
REMARK    8  A    between atoms: C_10  and  C_19 
REMARK    9  A    between atoms: C_11  and  C_12 
REMARK   10  A    between atoms: C_12  and  C_13 
REMARK       I    between atoms: C_19  and  N_20 
REMARK   11  A    between atoms: N_20  and  C_21 
REMARK   12  A    between atoms: C_21  and  C_22 
REMARK   13  A    between atoms: C_22  and  C_23 
ROOT
HETATM    1  C   UNK N   1      21.636  16.899   5.513  0.00  0.00     0.177 C 
ENDROOT
BRANCH   1   2
HETATM    2  N   UNK N   1      21.002  17.921   4.705  0.00  0.00    -0.346 N 
HETATM    3  C   UNK N   1      20.071  17.713   3.743  0.00  0.00     0.247 C 
HETATM    4  O   UNK N   1      19.581  16.601   3.574  0.00  0.00    -0.271 OA
HETATM    5  H   UNK N   1      21.273  18.853   4.871  0.00  0.00     0.163 HD
BRANCH   3   6
HETATM    6  C   UNK N   1      19.719  18.860   2.835  0.00  0.00     0.219 C 
BRANCH   6   7
HETATM    7  C   UNK N   1      20.641  18.987   1.621  0.00  0.00     0.151 C 
BRANCH   7   8
HETATM    8  C   UNK N   1      20.903  20.418   1.224  0.00  0.00     0.142 C 
HETATM    9  O   UNK N   1      21.227  21.226   2.076  0.00  0.00    -0.650 OA
BRANCH   8  10
HETATM   10  O   UNK N   1      20.763  20.821  -0.056  0.00  0.00    -0.776 OA
HETATM   11  H   UNK N   1      20.423  21.673  -0.248  0.00  0.00     0.167 HD
ENDBRANCH   8  10
ENDBRANCH   7   8
ENDBRANCH   6   7
BRANCH   6  12
HETATM   12  O   UNK N   1      18.398  18.724   2.401  0.00  0.00    -0.386 OA
HETATM   13  H   UNK N   1      17.465  18.503   2.549  0.00  0.00     0.210 HD
ENDBRANCH   6  12
ENDBRANCH   3   6
ENDBRANCH   1   2
BRANCH   1  14
HETATM   14  C   UNK N   1      23.120  17.243   5.557  0.00  0.00     0.039 C 
BRANCH  14  15
HETATM   15  C   UNK N   1      23.757  17.117   4.182  0.00  0.00     0.041 C 
BRANCH  15  16
HETATM   16  C   UNK N   1      24.609  18.291   3.863  0.00  0.00    -0.058 A 
HETATM   17  C   UNK N   1      24.000  19.484   3.466  0.00  0.00     0.007 A 
HETATM   18  C   UNK N   1      24.780  20.611   3.190  0.00  0.00     0.001 A 
HETATM   19  C   UNK N   1      26.170  20.546   3.315  0.00  0.00     0.000 A 
HETATM   20  C   UNK N   1      26.783  19.353   3.714  0.00  0.00     0.001 A 
HETATM   21  C   UNK N   1      26.004  18.226   3.991  0.00  0.00     0.007 A 
ENDBRANCH  15  16
ENDBRANCH  14  15
ENDBRANCH   1  14
BRANCH   1  22
HETATM   22  C   UNK N   1      21.105  16.776   6.931  0.00  0.00     0.240 C 
HETATM   23  N   UNK N   1      21.358  15.632   7.623  0.00  0.00    -0.359 N 
HETATM   24  H   UNK N   1      21.852  14.908   7.174  0.00  0.00     0.162 HD
HETATM   25  O   UNK N   1      20.481  17.688   7.450  0.00  0.00    -0.271 OA
BRANCH  23  26
HETATM   26  C   UNK N   1      20.934  15.439   8.985  0.00  0.00     0.123 C 
BRANCH  26  27
HETATM   27  C   UNK N   1      20.574  13.982   9.216  0.00  0.00     0.023 C 
BRANCH  27  28
HETATM   28  C   UNK N   1      21.615  13.327  10.103  0.00  0.00    -0.021 C 
HETATM   29  C   UNK N   1      20.946  12.383  11.085  0.00  0.00     0.009 C 
HETATM   30  C   UNK N   1      22.596  12.550   9.252  0.00  0.00     0.009 C 
ENDBRANCH  27  28
ENDBRANCH  26  27
ENDBRANCH  23  26
ENDBRANCH   1  22
TORSDOF 13
ENDMDL
MODEL 3
REMARK VINA RESULT:      -6.9      1.943      6.891
REMARK  13 active torsions:
REMARK  status: ('A' for Active; 'I' for Inactive)
REMARK    1  A    between atoms: C_1  and  O_3 
REMARK    2  A    between atoms: C_1  and  C_4 
REMARK    3  A    between atoms: C_4  and  C_5 
REMARK    4  A    between atoms: C_5  and  O_6 
REMARK    5  A    between atoms: C_5  and  C_7 
REMARK       I    between atoms: C_7  and  N_9 
REMARK    6  A    between atoms: C_10  and  N_9 
REMARK    7  A    between atoms: C_10  and  C_11 
REMARK    8  A    between atoms: C_10  and  C_19 
REMARK    9  A    between atoms: C_11  and  C_12 
REMARK   10  A    between atoms: C_12  and  C_13 
REMARK       I    between atoms: C_19  and  N_20 
REMARK   11  A    between atoms: N_20  and  C_21 
REMARK   12  A    between atoms: C_21  and  C_22 
REMARK   13  A    between atoms: C_22  and  C_23 
ROOT
HETATM    1  C   UNK N   1      33.183  16.457   8.474  0.00  0.00     0.177 C 
ENDROOT
BRANCH   1   2
HETATM    2  N   UNK N   1      33.910  16.114   9.680  0.00  0.00    -0.346 N 
HETATM    3  C   UNK N   1      34.981  16.777  10.181  0.00  0.00     0.247 C 
HETATM    4  O   UNK N   1      35.344  17.842   9.694  0.00  0.00    -0.271 OA
HETATM    5  H   UNK N   1      33.597  15.327  10.181  0.00  0.00     0.163 HD
BRANCH   3   6
HETATM    6  C   UNK N   1      35.761  16.128  11.292  0.00  0.00     0.219 C 
BRANCH   6   7
HETATM    7  C   UNK N   1      35.236  14.745  11.684  0.00  0.00     0.151 C 
BRANCH   7   8
HETATM    8  C   UNK N   1      36.092  14.058  12.717  0.00  0.00     0.142 C 
HETATM    9  O   UNK N   1      35.716  14.015  13.875  0.00  0.00    -0.650 OA
BRANCH   8  10
HETATM   10  O   UNK N   1      37.278  13.508  12.383  0.00  0.00    -0.776 OA
HETATM   11  H   UNK N   1      37.542  12.691  12.757  0.00  0.00     0.167 HD
ENDBRANCH   8  10
ENDBRANCH   7   8
ENDBRANCH   6   7
BRANCH   6  12
HETATM   12  O   UNK N   1      37.104  16.026  10.923  0.00  0.00    -0.386 OA
HETATM   13  H   UNK N   1      37.921  15.520  10.792  0.00  0.00     0.210 HD
ENDBRANCH   6  12
ENDBRANCH   3   6
ENDBRANCH   1   2
BRANCH   1  14
HETATM   14  C   UNK N   1      33.442  15.332   7.480  0.00  0.00     0.039 C 
BRANCH  14  15
HETATM   15  C   UNK N   1      34.419  15.763   6.399  0.00  0.00     0.041 C 
BRANCH  15  16
HETATM   16  C   UNK N   1      33.717  16.164   5.152  0.00  0.00    -0.058 A 
HETATM   17  C   UNK N   1      33.461  15.198   4.176  0.00  0.00     0.007 A 
HETATM   18  C   UNK N   1      32.775  15.546   3.010  0.00  0.00     0.001 A 
HETATM   19  C   UNK N   1      32.341  16.860   2.820  0.00  0.00     0.000 A 
HETATM   20  C   UNK N   1      32.594  17.830   3.796  0.00  0.00     0.001 A 
HETATM   21  C   UNK N   1      33.280  17.483   4.964  0.00  0.00     0.007 A 
ENDBRANCH  15  16
ENDBRANCH  14  15
ENDBRANCH   1  14
BRANCH   1  22
HETATM   22  C   UNK N   1      31.686  16.639   8.653  0.00  0.00     0.240 C 
HETATM   23  N   UNK N   1      31.041  17.538   7.861  0.00  0.00    -0.359 N 
HETATM   24  H   UNK N   1      31.568  18.064   7.218  0.00  0.00     0.162 HD
HETATM   25  O   UNK N   1      31.066  15.981   9.474  0.00  0.00    -0.271 OA
BRANCH  23  26
HETATM   26  C   UNK N   1      29.618  17.750   7.926  0.00  0.00     0.123 C 
BRANCH  26  27
HETATM   27  C   UNK N   1      28.911  16.833   6.943  0.00  0.00     0.023 C 
BRANCH  27  28
HETATM   28  C   UNK N   1      29.637  16.847   5.612  0.00  0.00    -0.021 C 
HETATM   29  C   UNK N   1      29.529  15.489   4.944  0.00  0.00     0.009 C 
HETATM   30  C   UNK N   1      29.029  17.898   4.708  0.00  0.00     0.009 C 
ENDBRANCH  27  28
ENDBRANCH  26  27
ENDBRANCH  23  26
ENDBRANCH   1  22
TORSDOF 13
ENDMDL
MODEL 4
REMARK VINA RESULT:      -6.6      2.231      6.587
REMARK  13 active torsions:
REMARK  status: ('A' for Active; 'I' for Inactive)
REMARK    1  A    between atoms: C_1  and  O_3 
REMARK    2  A    between atoms: C_1  and  C_4 
REMARK    3  A    between atoms: C_4  and  C_5 
REMARK    4  A    between atoms: C_5  and  O_6 
REMARK    5  A    between atoms: C_5  and  C_7 
REMARK       I    between atoms: C_7  and  N_9 
REMARK    6  A    between atoms: C_10  and  N_9 
REMARK    7  A    between atoms: C_10  and  C_11 
REMARK    8  A    between atoms: C_10  and  C_19 
REMARK    9  A    between atoms: C_11  and  C_12 
REMARK   10  A    between atoms: C_12  and  C_13 
REMARK       I    between atoms: C_19  and  N_20 
REMARK   11  A    between atoms: N_20  and  C_21 
REMARK   12  A    between atoms: C_21  and  C_22 
REMARK   13  A    between atoms: C_22  and  C_23 
ROOT
HETATM    1  C   UNK N   1      34.176  16.553   8.754  0.00  0.00     0.177 C 
ENDROOT
BRANCH   1   2
HETATM    2  N   UNK N   1      34.267  15.900  10.045  0.00  0.00    -0.346 N 
HETATM    3  C   UNK N   1      35.331  15.937  10.883  0.00  0.00     0.247 C 
HETATM    4  O   UNK N   1      36.286  16.671  10.653  0.00  0.00    -0.271 OA
HETATM    5  H   UNK N   1      33.484  15.382  10.339  0.00  0.00     0.163 HD
BRANCH   3   6
HETATM    6  C   UNK N   1      35.346  14.992  12.055  0.00  0.00     0.219 C 
BRANCH   6   7
HETATM    7  C   UNK N   1      35.303  13.516  11.653  0.00  0.00     0.151 C 
BRANCH   7   8
HETATM    8  C   UNK N   1      36.498  13.091  10.837  0.00  0.00     0.142 C 
HETATM    9  O   UNK N   1      37.586  12.988  11.377  0.00  0.00    -0.650 OA
BRANCH   8  10
HETATM   10  O   UNK N   1      36.385  12.843   9.516  0.00  0.00    -0.776 OA
HETATM   11  H   UNK N   1      37.101  13.021   8.940  0.00  0.00     0.167 HD
ENDBRANCH   8  10
ENDBRANCH   7   8
ENDBRANCH   6   7
BRANCH   6  12
HETATM   12  O   UNK N   1      36.481  15.229  12.832  0.00  0.00    -0.386 OA
HETATM   13  H   UNK N   1      36.917  15.438  13.673  0.00  0.00     0.210 HD
ENDBRANCH   6  12
ENDBRANCH   3   6
ENDBRANCH   1   2
BRANCH   1  14
HETATM   14  C   UNK N   1      34.062  15.443   7.716  0.00  0.00     0.039 C 
BRANCH  14  15
HETATM   15  C   UNK N   1      34.870  15.766   6.470  0.00  0.00     0.041 C 
BRANCH  15  16
HETATM   16  C   UNK N   1      33.993  16.047   5.305  0.00  0.00    -0.058 A 
HETATM   17  C   UNK N   1      33.528  17.349   5.104  0.00  0.00     0.007 A 
HETATM   18  C   UNK N   1      32.727  17.644   3.997  0.00  0.00     0.001 A 
HETATM   19  C   UNK N   1      32.393  16.636   3.089  0.00  0.00     0.000 A 
HETATM   20  C   UNK N   1      32.858  15.332   3.286  0.00  0.00     0.001 A 
HETATM   21  C   UNK N   1      33.660  15.036   4.392  0.00  0.00     0.007 A 
ENDBRANCH  15  16
ENDBRANCH  14  15
ENDBRANCH   1  14
BRANCH   1  22
HETATM   22  C   UNK N   1      33.008  17.512   8.597  0.00  0.00     0.240 C 
HETATM   23  N   UNK N   1      31.754  17.059   8.866  0.00  0.00    -0.359 N 
HETATM   24  H   UNK N   1      31.638  16.117   9.126  0.00  0.00     0.162 HD
HETATM   25  O   UNK N   1      33.188  18.670   8.255  0.00  0.00    -0.271 OA
BRANCH  23  26
HETATM   26  C   UNK N   1      30.590  17.903   8.787  0.00  0.00     0.123 C 
BRANCH  26  27
HETATM   27  C   UNK N   1      29.558  17.280   7.864  0.00  0.00     0.023 C 
BRANCH  27  28
HETATM   28  C   UNK N   1      30.130  17.148   6.466  0.00  0.00    -0.021 C 
HETATM   29  C   UNK N   1      30.229  15.684   6.079  0.00  0.00     0.009 C 
HETATM   30  C   UNK N   1      29.237  17.866   5.478  0.00  0.00     0.009 C 
ENDBRANCH  27  28
ENDBRANCH  26  27
ENDBRANCH  23  26
ENDBRANCH   1  22
TORSDOF 13
ENDMDL
MODEL 5
REMARK VINA RESULT:      -6.6     14.030     18.190
REMARK  13 active torsions:
REMARK  status: ('A' for Active; 'I' for Inactive)
REMARK    1  A    between atoms: C_1  and  O_3 
REMARK    2  A    between atoms: C_1  and  C_4 
REMARK    3  A    between atoms: C_4  and  C_5 
REMARK    4  A    between atoms: C_5  and  O_6 
REMARK    5  A    between atoms: C_5  and  C_7 
REMARK       I    between atoms: C_7  and  N_9 
REMARK    6  A    between atoms: C_10  and  N_9 
REMARK    7  A    between atoms: C_10  and  C_11 
REMARK    8  A    between atoms: C_10  and  C_19 
REMARK    9  A    between atoms: C_11  and  C_12 
REMARK   10  A    between atoms: C_12  and  C_13 
REMARK       I    between atoms: C_19  and  N_20 
REMARK   11  A    between atoms: N_20  and  C_21 
REMARK   12  A    between atoms: C_21  and  C_22 
REMARK   13  A    between atoms: C_22  and  C_23 
ROOT
HETATM    1  C   UNK N   1      26.075  23.885  -5.761  0.00  0.00     0.177 C 
ENDROOT
BRANCH   1   2
HETATM    2  N   UNK N   1      27.318  23.823  -5.019  0.00  0.00    -0.346 N 
HETATM    3  C   UNK N   1      27.460  24.017  -3.685  0.00  0.00     0.247 C 
HETATM    4  O   UNK N   1      26.478  24.134  -2.960  0.00  0.00    -0.271 OA
HETATM    5  H   UNK N   1      28.134  23.621  -5.531  0.00  0.00     0.163 HD
BRANCH   3   6
HETATM    6  C   UNK N   1      28.852  24.170  -3.134  0.00  0.00     0.219 C 
BRANCH   6   7
HETATM    7  C   UNK N   1      29.267  23.036  -2.194  0.00  0.00     0.151 C 
BRANCH   7   8
HETATM    8  C   UNK N   1      30.424  22.226  -2.721  0.00  0.00     0.142 C 
HETATM    9  O   UNK N   1      31.533  22.382  -2.240  0.00  0.00    -0.650 OA
BRANCH   8  10
HETATM   10  O   UNK N   1      30.255  21.345  -3.729  0.00  0.00    -0.776 OA
HETATM   11  H   UNK N   1      30.322  21.628  -4.618  0.00  0.00     0.167 HD
ENDBRANCH   8  10
ENDBRANCH   7   8
ENDBRANCH   6   7
BRANCH   6  12
HETATM   12  O   UNK N   1      29.764  24.256  -4.188  0.00  0.00    -0.386 OA
HETATM   13  H   UNK N   1      30.438  24.728  -4.703  0.00  0.00     0.210 HD
ENDBRANCH   6  12
ENDBRANCH   3   6
ENDBRANCH   1   2
BRANCH   1  14
HETATM   14  C   UNK N   1      26.049  25.247  -6.446  0.00  0.00     0.039 C 
BRANCH  14  15
HETATM   15  C   UNK N   1      25.163  26.227  -5.694  0.00  0.00     0.041 C 
BRANCH  15  16
HETATM   16  C   UNK N   1      25.904  27.458  -5.316  0.00  0.00    -0.058 A 
HETATM   17  C   UNK N   1      26.912  27.929  -6.160  0.00  0.00     0.007 A 
HETATM   18  C   UNK N   1      27.601  29.102  -5.842  0.00  0.00     0.001 A 
HETATM   19  C   UNK N   1      27.280  29.807  -4.679  0.00  0.00     0.000 A 
HETATM   20  C   UNK N   1      26.270  29.338  -3.832  0.00  0.00     0.001 A 
HETATM   21  C   UNK N   1      25.579  28.165  -4.150  0.00  0.00     0.007 A 
ENDBRANCH  15  16
ENDBRANCH  14  15
ENDBRANCH   1  14
BRANCH   1  22
HETATM   22  C   UNK N   1      25.889  22.794  -6.802  0.00  0.00     0.240 C 
HETATM   23  N   UNK N   1      26.979  22.360  -7.490  0.00  0.00    -0.359 N 
HETATM   24  H   UNK N   1      27.850  22.784  -7.314  0.00  0.00     0.162 HD
HETATM   25  O   UNK N   1      24.791  22.302  -7.007  0.00  0.00    -0.271 OA
BRANCH  23  26
HETATM   26  C   UNK N   1      26.911  21.301  -8.464  0.00  0.00     0.123 C 
BRANCH  26  27
HETATM   27  C   UNK N   1      27.754  20.122  -8.010  0.00  0.00     0.023 C 
BRANCH  27  28
HETATM   28  C   UNK N   1      29.221  20.409  -8.265  0.00  0.00    -0.021 C 
HETATM   29  C   UNK N   1      30.055  19.948  -7.083  0.00  0.00     0.009 C 
HETATM   30  C   UNK N   1      29.676  19.681  -9.511  0.00  0.00     0.009 C 
ENDBRANCH  27  28
ENDBRANCH  26  27
ENDBRANCH  23  26
ENDBRANCH   1  22
TORSDOF 13
ENDMDL
MODEL 6
REMARK VINA RESULT:      -6.3     14.388     17.977
REMARK  13 active torsions:
REMARK  status: ('A' for Active; 'I' for Inactive)
REMARK    1  A    between atoms: C_1  and  O_3 
REMARK    2  A    between atoms: C_1  and  C_4 
REMARK    3  A    between atoms: C_4  and  C_5 
REMARK    4  A    between atoms: C_5  and  O_6 
REMARK    5  A    between atoms: C_5  and  C_7 
REMARK       I    between atoms: C_7  and  N_9 
REMARK    6  A    between atoms: C_10  and  N_9 
REMARK    7  A    between atoms: C_10  and  C_11 
REMARK    8  A    between atoms: C_10  and  C_19 
REMARK    9  A    between atoms: C_11  and  C_12 
REMARK   10  A    between atoms: C_12  and  C_13 
REMARK       I    between atoms: C_19  and  N_20 
REMARK   11  A    between atoms: N_20  and  C_21 
REMARK   12  A    between atoms: C_21  and  C_22 
REMARK   13  A    between atoms: C_22  and  C_23 
ROOT
HETATM    1  C   UNK N   1      27.780  24.075  -4.820  0.00  0.00     0.177 C 
ENDROOT
BRANCH   1   2
HETATM    2  N   UNK N   1      27.369  24.029  -6.208  0.00  0.00    -0.346 N 
HETATM    3  C   UNK N   1      26.120  23.759  -6.661  0.00  0.00     0.247 C 
HETATM    4  O   UNK N   1      25.178  23.662  -5.882  0.00  0.00    -0.271 OA
HETATM    5  H   UNK N   1      28.060  24.209  -6.885  0.00  0.00     0.163 HD
BRANCH   3   6
HETATM    6  C   UNK N   1      25.938  23.500  -8.132  0.00  0.00     0.219 C 
BRANCH   6   7
HETATM    7  C   UNK N   1      26.627  22.223  -8.619  0.00  0.00     0.151 C 
BRANCH   7   8
HETATM    8  C   UNK N   1      25.667  21.085  -8.854  0.00  0.00     0.142 C 
HETATM    9  O   UNK N   1      25.327  20.384  -7.916  0.00  0.00    -0.650 OA
BRANCH   8  10
HETATM   10  O   UNK N   1      25.192  20.819 -10.088  0.00  0.00    -0.776 OA
HETATM   11  H   UNK N   1      24.859  19.968 -10.292  0.00  0.00     0.167 HD
ENDBRANCH   8  10
ENDBRANCH   7   8
ENDBRANCH   6   7
BRANCH   6  12
HETATM   12  O   UNK N   1      24.576  23.433  -8.430  0.00  0.00    -0.386 OA
HETATM   13  H   UNK N   1      23.687  23.064  -8.304  0.00  0.00     0.210 HD
ENDBRANCH   6  12
ENDBRANCH   3   6
ENDBRANCH   1   2
BRANCH   1  14
HETATM   14  C   UNK N   1      29.238  23.630  -4.787  0.00  0.00     0.039 C 
BRANCH  14  15
HETATM   15  C   UNK N   1      29.548  22.848  -3.521  0.00  0.00     0.041 C 
BRANCH  15  16
HETATM   16  C   UNK N   1      30.695  21.924  -3.715  0.00  0.00    -0.058 A 
HETATM   17  C   UNK N   1      30.624  20.955  -4.718  0.00  0.00     0.007 A 
HETATM   18  C   UNK N   1      31.703  20.094  -4.940  0.00  0.00     0.001 A 
HETATM   19  C   UNK N   1      32.856  20.205  -4.158  0.00  0.00     0.000 A 
HETATM   20  C   UNK N   1      32.931  21.175  -3.153  0.00  0.00     0.001 A 
HETATM   21  C   UNK N   1      31.853  22.037  -2.932  0.00  0.00     0.007 A 
ENDBRANCH  15  16
ENDBRANCH  14  15
ENDBRANCH   1  14
BRANCH   1  22
HETATM   22  C   UNK N   1      27.653  25.434  -4.154  0.00  0.00     0.240 C 
HETATM   23  N   UNK N   1      26.419  25.854  -3.763  0.00  0.00    -0.359 N 
HETATM   24  H   UNK N   1      25.643  25.277  -3.949  0.00  0.00     0.162 HD
HETATM   25  O   UNK N   1      28.635  26.132  -3.955  0.00  0.00    -0.271 OA
BRANCH  23  26
HETATM   26  C   UNK N   1      26.203  27.106  -3.086  0.00  0.00     0.123 C 
BRANCH  26  27
HETATM   27  C   UNK N   1      25.781  28.170  -4.083  0.00  0.00     0.023 C 
BRANCH  27  28
HETATM   28  C   UNK N   1      26.917  29.152  -4.302  0.00  0.00    -0.021 C 
HETATM   29  C   UNK N   1      27.390  29.090  -5.742  0.00  0.00     0.009 C 
HETATM   30  C   UNK N   1      26.446  30.556  -3.990  0.00  0.00     0.009 C 
ENDBRANCH  27  28
ENDBRANCH  26  27
ENDBRANCH  23  26
ENDBRANCH   1  22
TORSDOF 13
ENDMDL
MODEL 7
REMARK VINA RESULT:      -6.3      3.625      7.944
REMARK  13 active torsions:
REMARK  status: ('A' for Active; 'I' for Inactive)
REMARK    1  A    between atoms: C_1  and  O_3 
REMARK    2  A    between atoms: C_1  and  C_4 
REMARK    3  A    between atoms: C_4  and  C_5 
REMARK    4  A    between atoms: C_5  and  O_6 
REMARK    5  A    between atoms: C_5  and  C_7 
REMARK       I    between atoms: C_7  and  N_9 
REMARK    6  A    between atoms: C_10  and  N_9 
REMARK    7  A    between atoms: C_10  and  C_11 
REMARK    8  A    between atoms: C_10  and  C_19 
REMARK    9  A    between atoms: C_11  and  C_12 
REMARK   10  A    between atoms: C_12  and  C_13 
REMARK       I    between atoms: C_19  and  N_20 
REMARK   11  A    between atoms: N_20  and  C_21 
REMARK   12  A    between atoms: C_21  and  C_22 
REMARK   13  A    between atoms: C_22  and  C_23 
ROOT
HETATM    1  C   UNK N   1      36.340  13.830  11.747  0.00  0.00     0.177 C 
ENDROOT
BRANCH   1   2
HETATM    2  N   UNK N   1      35.451  14.560  10.866  0.00  0.00    -0.346 N 
HETATM    3  C   UNK N   1      35.587  15.856  10.492  0.00  0.00     0.247 C 
HETATM    4  O   UNK N   1      36.594  16.491  10.783  0.00  0.00    -0.271 OA
HETATM    5  H   UNK N   1      34.677  14.070  10.507  0.00  0.00     0.163 HD
BRANCH   3   6
HETATM    6  C   UNK N   1      34.433  16.515   9.785  0.00  0.00     0.219 C 
BRANCH   6   7
HETATM    7  C   UNK N   1      34.584  16.548   8.263  0.00  0.00     0.151 C 
BRANCH   7   8
HETATM    8  C   UNK N   1      34.580  17.945   7.698  0.00  0.00     0.142 C 
HETATM    9  O   UNK N   1      34.199  18.129   6.555  0.00  0.00    -0.650 OA
BRANCH   8  10
HETATM   10  O   UNK N   1      35.011  18.993   8.431  0.00  0.00    -0.776 OA
HETATM   11  H   UNK N   1      34.454  19.376   9.079  0.00  0.00     0.167 HD
ENDBRANCH   8  10
ENDBRANCH   7   8
ENDBRANCH   6   7
BRANCH   6  12
HETATM   12  O   UNK N   1      33.245  15.861  10.119  0.00  0.00    -0.386 OA
HETATM   13  H   UNK N   1      32.716  15.284  10.692  0.00  0.00     0.210 HD
ENDBRANCH   6  12
ENDBRANCH   3   6
ENDBRANCH   1   2
BRANCH   1  14
HETATM   14  C   UNK N   1      35.794  14.011  13.158  0.00  0.00     0.039 C 
BRANCH  14  15
HETATM   15  C   UNK N   1      36.756  13.461  14.198  0.00  0.00     0.041 C 
BRANCH  15  16
HETATM   16  C   UNK N   1      36.398  13.910  15.569  0.00  0.00    -0.058 A 
HETATM   17  C   UNK N   1      35.443  13.190  16.290  0.00  0.00     0.007 A 
HETATM   18  C   UNK N   1      35.113  13.574  17.593  0.00  0.00     0.001 A 
HETATM   19  C   UNK N   1      35.740  14.678  18.176  0.00  0.00     0.000 A 
HETATM   20  C   UNK N   1      36.698  15.401  17.456  0.00  0.00     0.001 A 
HETATM   21  C   UNK N   1      37.030  15.017  16.153  0.00  0.00     0.007 A 
ENDBRANCH  15  16
ENDBRANCH  14  15
ENDBRANCH   1  14
BRANCH   1  22
HETATM   22  C   UNK N   1      36.475  12.348  11.444  0.00  0.00     0.240 C 
HETATM   23  N   UNK N   1      35.350  11.584  11.424  0.00  0.00    -0.359 N 
HETATM   24  H   UNK N   1      34.487  12.007  11.634  0.00  0.00     0.162 HD
HETATM   25  O   UNK N   1      37.565  11.852  11.205  0.00  0.00    -0.271 OA
BRANCH  23  26
HETATM   26  C   UNK N   1      35.371  10.179  11.105  0.00  0.00     0.123 C 
BRANCH  26  27
HETATM   27  C   UNK N   1      34.327   9.444  11.926  0.00  0.00     0.023 C 
BRANCH  27  28
HETATM   28  C   UNK N   1      34.859   9.183  13.323  0.00  0.00    -0.021 C 
HETATM   29  C   UNK N   1      36.376   9.152  13.306  0.00  0.00     0.009 C 
HETATM   30  C   UNK N   1      34.393  10.277  14.260  0.00  0.00     0.009 C 
ENDBRANCH  27  28
ENDBRANCH  26  27
ENDBRANCH  23  26
ENDBRANCH   1  22
TORSDOF 13
ENDMDL
MODEL 8
REMARK VINA RESULT:      -6.3     13.618     18.002
REMARK  13 active torsions:
REMARK  status: ('A' for Active; 'I' for Inactive)
REMARK    1  A    between atoms: C_1  and  O_3 
REMARK    2  A    between atoms: C_1  and  C_4 
REMARK    3  A    between atoms: C_4  and  C_5 
REMARK    4  A    between atoms: C_5  and  O_6 
REMARK    5  A    between atoms: C_5  and  C_7 
REMARK       I    between atoms: C_7  and  N_9 
REMARK    6  A    between atoms: C_10  and  N_9 
REMARK    7  A    between atoms: C_10  and  C_11 
REMARK    8  A    between atoms: C_10  and  C_19 
REMARK    9  A    between atoms: C_11  and  C_12 
REMARK   10  A    between atoms: C_12  and  C_13 
REMARK       I    between atoms: C_19  and  N_20 
REMARK   11  A    between atoms: N_20  and  C_21 
REMARK   12  A    between atoms: C_21  and  C_22 
REMARK   13  A    between atoms: C_22  and  C_23 
ROOT
HETATM    1  C   UNK N   1      29.102  23.705  -4.746  0.00  0.00     0.177 C 
ENDROOT
BRANCH   1   2
HETATM    2  N   UNK N   1      30.258  23.112  -4.106  0.00  0.00    -0.346 N 
HETATM    3  C   UNK N   1      30.665  21.825  -4.229  0.00  0.00     0.247 C 
HETATM    4  O   UNK N   1      30.130  21.073  -5.036  0.00  0.00    -0.271 OA
HETATM    5  H   UNK N   1      30.797  23.698  -3.527  0.00  0.00     0.163 HD
BRANCH   3   6
HETATM    6  C   UNK N   1      31.730  21.324  -3.291  0.00  0.00     0.219 C 
BRANCH   6   7
HETATM    7  C   UNK N   1      33.135  21.335  -3.896  0.00  0.00     0.151 C 
BRANCH   7   8
HETATM    8  C   UNK N   1      33.779  19.973  -3.921  0.00  0.00     0.142 C 
HETATM    9  O   UNK N   1      34.991  19.885  -4.014  0.00  0.00    -0.650 OA
BRANCH   8  10
HETATM   10  O   UNK N   1      33.034  18.850  -3.861  0.00  0.00    -0.776 OA
HETATM   11  H   UNK N   1      32.674  18.481  -4.643  0.00  0.00     0.167 HD
ENDBRANCH   8  10
ENDBRANCH   7   8
ENDBRANCH   6   7
BRANCH   6  12
HETATM   12  O   UNK N   1      31.721  22.089  -2.123  0.00  0.00    -0.386 OA
HETATM   13  H   UNK N   1      31.683  22.938  -1.654  0.00  0.00     0.210 HD
ENDBRANCH   6  12
ENDBRANCH   3   6
ENDBRANCH   1   2
BRANCH   1  14
HETATM   14  C   UNK N   1      28.176  24.164  -3.626  0.00  0.00     0.039 C 
BRANCH  14  15
HETATM   15  C   UNK N   1      26.718  24.092  -4.050  0.00  0.00     0.041 C 
BRANCH  15  16
HETATM   16  C   UNK N   1      26.149  25.443  -4.289  0.00  0.00    -0.058 A 
HETATM   17  C   UNK N   1      26.376  26.452  -3.350  0.00  0.00     0.007 A 
HETATM   18  C   UNK N   1      25.877  27.739  -3.569  0.00  0.00     0.001 A 
HETATM   19  C   UNK N   1      25.152  28.018  -4.730  0.00  0.00     0.000 A 
HETATM   20  C   UNK N   1      24.923  27.010  -5.673  0.00  0.00     0.001 A 
HETATM   21  C   UNK N   1      25.423  25.723  -5.456  0.00  0.00     0.007 A 
ENDBRANCH  15  16
ENDBRANCH  14  15
ENDBRANCH   1  14
BRANCH   1  22
HETATM   22  C   UNK N   1      29.403  24.878  -5.664  0.00  0.00     0.240 C 
HETATM   23  N   UNK N   1      29.529  26.116  -5.116  0.00  0.00    -0.359 N 
HETATM   24  H   UNK N   1      29.392  26.221  -4.147  0.00  0.00     0.162 HD
HETATM   25  O   UNK N   1      29.549  24.715  -6.865  0.00  0.00    -0.271 OA
BRANCH  23  26
HETATM   26  C   UNK N   1      29.855  27.282  -5.897  0.00  0.00     0.123 C 
BRANCH  26  27
HETATM   27  C   UNK N   1      28.800  28.355  -5.696  0.00  0.00     0.023 C 
BRANCH  27  28
HETATM   28  C   UNK N   1      28.253  28.796  -7.040  0.00  0.00    -0.021 C 
HETATM   29  C   UNK N   1      29.336  29.495  -7.841  0.00  0.00     0.009 C 
HETATM   30  C   UNK N   1      27.759  27.592  -7.812  0.00  0.00     0.009 C 
ENDBRANCH  27  28
ENDBRANCH  26  27
ENDBRANCH  23  26
ENDBRANCH   1  22
TORSDOF 13
ENDMDL
MODEL 9
REMARK VINA RESULT:      -6.3      2.920      7.355
REMARK  13 active torsions:
REMARK  status: ('A' for Active; 'I' for Inactive)
REMARK    1  A    between atoms: C_1  and  O_3 
REMARK    2  A    between atoms: C_1  and  C_4 
REMARK    3  A    between atoms: C_4  and  C_5 
REMARK    4  A    between atoms: C_5  and  O_6 
REMARK    5  A    between atoms: C_5  and  C_7 
REMARK       I    between atoms: C_7  and  N_9 
REMARK    6  A    between atoms: C_10  and  N_9 
REMARK    7  A    between atoms: C_10  and  C_11 
REMARK    8  A    between atoms: C_10  and  C_19 
REMARK    9  A    between atoms: C_11  and  C_12 
REMARK   10  A    between atoms: C_12  and  C_13 
REMARK       I    between atoms: C_19  and  N_20 
REMARK   11  A    between atoms: N_20  and  C_21 
REMARK   12  A    between atoms: C_21  and  C_22 
REMARK   13  A    between atoms: C_22  and  C_23 
ROOT
HETATM    1  C   UNK N   1      36.138  14.387  11.449  0.00  0.00     0.177 C 
ENDROOT
BRANCH   1   2
HETATM    2  N   UNK N   1      35.332  15.014  10.421  0.00  0.00    -0.346 N 
HETATM    3  C   UNK N   1      35.266  16.343  10.160  0.00  0.00     0.247 C 
HETATM    4  O   UNK N   1      36.023  17.130  10.717  0.00  0.00    -0.271 OA
HETATM    5  H   UNK N   1      34.782  14.421   9.861  0.00  0.00     0.163 HD
BRANCH   3   6
HETATM    6  C   UNK N   1      34.186  16.832   9.233  0.00  0.00     0.219 C 
BRANCH   6   7
HETATM    7  C   UNK N   1      34.522  16.654   7.751  0.00  0.00     0.151 C 
BRANCH   7   8
HETATM    8  C   UNK N   1      33.612  17.438   6.840  0.00  0.00     0.142 C 
HETATM    9  O   UNK N   1      34.046  17.871   5.787  0.00  0.00    -0.650 OA
BRANCH   8  10
HETATM   10  O   UNK N   1      32.330  17.685   7.182  0.00  0.00    -0.776 OA
HETATM   11  H   UNK N   1      31.713  16.983   7.238  0.00  0.00     0.167 HD
ENDBRANCH   8  10
ENDBRANCH   7   8
ENDBRANCH   6   7
BRANCH   6  12
HETATM   12  O   UNK N   1      32.990  16.170   9.520  0.00  0.00    -0.386 OA
HETATM   13  H   UNK N   1      32.488  15.434   9.905  0.00  0.00     0.210 HD
ENDBRANCH   6  12
ENDBRANCH   3   6
ENDBRANCH   1   2
BRANCH   1  14
HETATM   14  C   UNK N   1      35.167  13.888  12.513  0.00  0.00     0.039 C 
BRANCH  14  15
HETATM   15  C   UNK N   1      35.835  13.806  13.876  0.00  0.00     0.041 C 
BRANCH  15  16
HETATM   16  C   UNK N   1      35.354  12.635  14.653  0.00  0.00    -0.058 A 
HETATM   17  C   UNK N   1      34.359  11.821  14.108  0.00  0.00     0.007 A 
HETATM   18  C   UNK N   1      33.912  10.696  14.807  0.00  0.00     0.001 A 
HETATM   19  C   UNK N   1      34.463  10.383  16.052  0.00  0.00     0.000 A 
HETATM   20  C   UNK N   1      35.462  11.196  16.600  0.00  0.00     0.001 A 
HETATM   21  C   UNK N   1      35.910  12.321  15.902  0.00  0.00     0.007 A 
ENDBRANCH  15  16
ENDBRANCH  14  15
ENDBRANCH   1  14
BRANCH   1  22
HETATM   22  C   UNK N   1      37.004  13.233  10.976  0.00  0.00     0.240 C 
HETATM   23  N   UNK N   1      36.457  11.989  10.919  0.00  0.00    -0.359 N 
HETATM   24  H   UNK N   1      35.525  11.869  11.213  0.00  0.00     0.162 HD
HETATM   25  O   UNK N   1      38.162  13.415  10.634  0.00  0.00    -0.271 OA
BRANCH  23  26
HETATM   26  C   UNK N   1      37.184  10.841  10.443  0.00  0.00     0.123 C 
BRANCH  26  27
HETATM   27  C   UNK N   1      37.985  10.227  11.578  0.00  0.00     0.023 C 
BRANCH  27  28
HETATM   28  C   UNK N   1      37.097  10.038  12.792  0.00  0.00    -0.021 C 
HETATM   29  C   UNK N   1      36.242   8.795  12.626  0.00  0.00     0.009 C 
HETATM   30  C   UNK N   1      37.952   9.893  14.033  0.00  0.00     0.009 C 
ENDBRANCH  27  28
ENDBRANCH  26  27
ENDBRANCH  23  26
ENDBRANCH   1  22
TORSDOF 13
ENDMDL
