MODEL 1
REMARK VINA RESULT:      -6.6      0.000      0.000
REMARK  4 active torsions:
REMARK  status: ('A' for Active; 'I' for Inactive)
REMARK    1  A    between atoms: C_7  and  C_1 
REMARK    2  A    between atoms: C_3  and  O_13 
REMARK    3  A    between atoms: C_4  and  O_19 
REMARK    4  A    between atoms: O_13  and  C_14 
ROOT
HETATM    1  C   UNK N   1      22.424  12.279   8.771  0.00  0.00    -0.049 A 
HETATM    2  C   UNK N   1      21.360  13.171   8.949  0.00  0.00     0.047 A 
HETATM    3  C   UNK N   1      20.716  13.771   7.862  0.00  0.00     0.103 A 
HETATM    4  C   UNK N   1      21.162  13.471   6.546  0.00  0.00     0.101 A 
HETATM    5  C   UNK N   1      22.214  12.552   6.373  0.00  0.00     0.040 A 
HETATM    6  C   UNK N   1      22.839  11.963   7.473  0.00  0.00     0.010 A 
ENDROOT
BRANCH   1   7
HETATM    7  C   UNK N   1      23.152  11.755   9.982  0.00  0.00     0.045 C 
HETATM    8  C   UNK N   1      22.487  12.026  11.344  0.00  0.00     0.113 C 
HETATM    9  C   UNK N   1      23.689  12.089  12.206  0.00  0.00     0.218 C 
HETATM   10  O   UNK N   1      23.652  12.051  13.422  0.00  0.00    -0.274 OA
HETATM   11  N   UNK N   1      24.833  12.218  11.529  0.00  0.00    -0.360 N 
HETATM   12  C   UNK N   1      24.598  12.265  10.117  0.00  0.00     0.132 C 
HETATM   13  H   UNK N   1      25.722  12.272  11.947  0.00  0.00     0.162 HD
ENDBRANCH   1   7
BRANCH   3  14
HETATM   14  O   UNK N   1      19.711  14.646   8.142  0.00  0.00    -0.343 OA
BRANCH  14  15
HETATM   15  C   UNK N   1      19.806  15.831   8.842  0.00  0.00     0.129 C 
HETATM   16  C   UNK N   1      18.430  16.323   9.216  0.00  0.00     0.032 C 
HETATM   17  C   UNK N   1      18.603  17.814   9.436  0.00  0.00     0.002 C 
HETATM   18  C   UNK N   1      19.885  18.205   8.713  0.00  0.00     0.002 C 
HETATM   19  C   UNK N   1      20.354  16.956   7.994  0.00  0.00     0.032 C 
ENDBRANCH  14  15
ENDBRANCH   3  14
BRANCH   4  20
HETATM   20  O   UNK N   1      20.595  14.073   5.471  0.00  0.00    -0.353 OA
HETATM   21  C   UNK N   1      19.422  13.646   4.889  0.00  0.00     0.210 C 
ENDBRANCH   4  20
TORSDOF 4
ENDMDL
MODEL 2
REMARK VINA RESULT:      -6.4      9.172     10.187
REMARK  4 active torsions:
REMARK  status: ('A' for Active; 'I' for Inactive)
REMARK    1  A    between atoms: C_7  and  C_1 
REMARK    2  A    between atoms: C_3  and  O_13 
REMARK    3  A    between atoms: C_4  and  O_19 
REMARK    4  A    between atoms: O_13  and  C_14 
ROOT
HETATM    1  C   UNK N   1      31.416  16.389   7.363  0.00  0.00    -0.049 A 
HETATM    2  C   UNK N   1      30.272  17.172   7.178  0.00  0.00     0.047 A 
HETATM    3  C   UNK N   1      29.257  16.791   6.293  0.00  0.00     0.103 A 
HETATM    4  C   UNK N   1      29.402  15.581   5.560  0.00  0.00     0.101 A 
HETATM    5  C   UNK N   1      30.543  14.785   5.772  0.00  0.00     0.040 A 
HETATM    6  C   UNK N   1      31.540  15.184   6.664  0.00  0.00     0.010 A 
ENDROOT
BRANCH   1   7
HETATM    7  C   UNK N   1      32.526  16.909   8.241  0.00  0.00     0.045 C 
HETATM    8  C   UNK N   1      33.078  18.302   7.884  0.00  0.00     0.113 C 
HETATM    9  C   UNK N   1      34.472  18.153   8.360  0.00  0.00     0.218 C 
HETATM   10  O   UNK N   1      35.241  19.085   8.505  0.00  0.00    -0.274 OA
HETATM   11  N   UNK N   1      34.830  16.888   8.595  0.00  0.00    -0.360 N 
HETATM   12  C   UNK N   1      33.753  15.985   8.320  0.00  0.00     0.132 C 
HETATM   13  H   UNK N   1      35.719  16.613   8.917  0.00  0.00     0.162 HD
ENDBRANCH   1   7
BRANCH   3  14
HETATM   14  O   UNK N   1      28.198  17.635   6.163  0.00  0.00    -0.343 OA
BRANCH  14  15
HETATM   15  C   UNK N   1      28.178  18.860   5.528  0.00  0.00     0.129 C 
HETATM   16  C   UNK N   1      27.581  19.905   6.435  0.00  0.00     0.032 C 
HETATM   17  C   UNK N   1      27.092  20.993   5.498  0.00  0.00     0.002 C 
HETATM   18  C   UNK N   1      26.956  20.344   4.127  0.00  0.00     0.002 C 
HETATM   19  C   UNK N   1      27.252  18.872   4.333  0.00  0.00     0.032 C 
ENDBRANCH  14  15
ENDBRANCH   3  14
BRANCH   4  20
HETATM   20  O   UNK N   1      28.464  15.206   4.657  0.00  0.00    -0.353 OA
HETATM   21  C   UNK N   1      28.526  15.522   3.318  0.00  0.00     0.210 C 
ENDBRANCH   4  20
TORSDOF 4
ENDMDL
MODEL 3
REMARK VINA RESULT:      -6.3     17.601     18.559
REMARK  4 active torsions:
REMARK  status: ('A' for Active; 'I' for Inactive)
REMARK    1  A    between atoms: C_7  and  C_1 
REMARK    2  A    between atoms: C_3  and  O_13 
REMARK    3  A    between atoms: C_4  and  O_19 
REMARK    4  A    between atoms: O_13  and  C_14 
ROOT
HETATM    1  C   UNK N   1      28.961  22.463  -5.801  0.00  0.00    -0.049 A 
HETATM    2  C   UNK N   1      28.058  23.360  -5.221  0.00  0.00     0.047 A 
HETATM    3  C   UNK N   1      26.823  23.646  -5.815  0.00  0.00     0.103 A 
HETATM    4  C   UNK N   1      26.487  23.013  -7.042  0.00  0.00     0.101 A 
HETATM    5  C   UNK N   1      27.389  22.090  -7.606  0.00  0.00     0.040 A 
HETATM    6  C   UNK N   1      28.613  21.818  -6.993  0.00  0.00     0.010 A 
ENDROOT
BRANCH   1   7
HETATM    7  C   UNK N   1      30.321  22.285  -5.176  0.00  0.00     0.045 C 
HETATM    8  C   UNK N   1      30.360  21.515  -3.843  0.00  0.00     0.113 C 
HETATM    9  C   UNK N   1      31.543  22.149  -3.218  0.00  0.00     0.218 C 
HETATM   10  O   UNK N   1      32.113  21.701  -2.239  0.00  0.00    -0.274 OA
HETATM   11  N   UNK N   1      31.925  23.283  -3.811  0.00  0.00    -0.360 N 
HETATM   12  C   UNK N   1      31.074  23.601  -4.918  0.00  0.00     0.132 C 
HETATM   13  H   UNK N   1      32.692  23.828  -3.524  0.00  0.00     0.162 HD
ENDBRANCH   1   7
BRANCH   3  14
HETATM   14  O   UNK N   1      26.028  24.554  -5.186  0.00  0.00    -0.343 OA
BRANCH  14  15
HETATM   15  C   UNK N   1      26.277  25.899  -5.004  0.00  0.00     0.129 C 
HETATM   16  C   UNK N   1      26.367  26.215  -3.533  0.00  0.00     0.032 C 
HETATM   17  C   UNK N   1      26.066  27.699  -3.440  0.00  0.00     0.002 C 
HETATM   18  C   UNK N   1      25.337  28.066  -4.726  0.00  0.00     0.002 C 
HETATM   19  C   UNK N   1      25.128  26.764  -5.472  0.00  0.00     0.032 C 
ENDBRANCH  14  15
ENDBRANCH   3  14
BRANCH   4  20
HETATM   20  O   UNK N   1      25.323  23.304  -7.672  0.00  0.00    -0.353 OA
HETATM   21  C   UNK N   1      25.245  24.066  -8.817  0.00  0.00     0.210 C 
ENDBRANCH   4  20
TORSDOF 4
ENDMDL
MODEL 4
REMARK VINA RESULT:      -6.2      1.599      2.073
REMARK  4 active torsions:
REMARK  status: ('A' for Active; 'I' for Inactive)
REMARK    1  A    between atoms: C_7  and  C_1 
REMARK    2  A    between atoms: C_3  and  O_13 
REMARK    3  A    between atoms: C_4  and  O_19 
REMARK    4  A    between atoms: O_13  and  C_14 
ROOT
HETATM    1  C   UNK N   1      21.570  13.929   8.896  0.00  0.00    -0.049 A 
HETATM    2  C   UNK N   1      20.499  14.824   9.002  0.00  0.00     0.047 A 
HETATM    3  C   UNK N   1      19.899  15.387   7.870  0.00  0.00     0.103 A 
HETATM    4  C   UNK N   1      20.398  15.045   6.584  0.00  0.00     0.101 A 
HETATM    5  C   UNK N   1      21.457  14.122   6.484  0.00  0.00     0.040 A 
HETATM    6  C   UNK N   1      22.037  13.571   7.627  0.00  0.00     0.010 A 
ENDROOT
BRANCH   1   7
HETATM    7  C   UNK N   1      22.249  13.447  10.152  0.00  0.00     0.045 C 
HETATM    8  C   UNK N   1      23.751  13.127  10.031  0.00  0.00     0.113 C 
HETATM    9  C   UNK N   1      23.871  12.074  11.065  0.00  0.00     0.218 C 
HETATM   10  O   UNK N   1      24.933  11.673  11.502  0.00  0.00    -0.274 OA
HETATM   11  N   UNK N   1      22.699  11.574  11.464  0.00  0.00    -0.360 N 
HETATM   12  C   UNK N   1      21.607  12.197  10.776  0.00  0.00     0.132 C 
HETATM   13  H   UNK N   1      22.598  10.870  12.145  0.00  0.00     0.162 HD
ENDBRANCH   1   7
BRANCH   3  14
HETATM   14  O   UNK N   1      18.883  16.268   8.080  0.00  0.00    -0.343 OA
BRANCH  14  15
HETATM   15  C   UNK N   1      18.534  16.873   9.271  0.00  0.00     0.129 C 
HETATM   16  C   UNK N   1      17.069  17.230   9.260  0.00  0.00     0.032 C 
HETATM   17  C   UNK N   1      16.938  18.340  10.286  0.00  0.00     0.002 C 
HETATM   18  C   UNK N   1      18.335  18.917  10.469  0.00  0.00     0.002 C 
HETATM   19  C   UNK N   1      19.213  18.210   9.456  0.00  0.00     0.032 C 
ENDBRANCH  14  15
ENDBRANCH   3  14
BRANCH   4  20
HETATM   20  O   UNK N   1      19.875  15.609   5.468  0.00  0.00    -0.353 OA
HETATM   21  C   UNK N   1      20.406  16.724   4.857  0.00  0.00     0.210 C 
ENDBRANCH   4  20
TORSDOF 4
ENDMDL
MODEL 5
REMARK VINA RESULT:      -6.1     17.570     19.883
REMARK  4 active torsions:
REMARK  status: ('A' for Active; 'I' for Inactive)
REMARK    1  A    between atoms: C_7  and  C_1 
REMARK    2  A    between atoms: C_3  and  O_13 
REMARK    3  A    between atoms: C_4  and  O_19 
REMARK    4  A    between atoms: O_13  and  C_14 
ROOT
HETATM    1  C   UNK N   1      26.192  26.580  -5.724  0.00  0.00    -0.049 A 
HETATM    2  C   UNK N   1      26.859  25.669  -4.897  0.00  0.00     0.047 A 
HETATM    3  C   UNK N   1      27.020  24.328  -5.262  0.00  0.00     0.103 A 
HETATM    4  C   UNK N   1      26.484  23.883  -6.501  0.00  0.00     0.101 A 
HETATM    5  C   UNK N   1      25.839  24.811  -7.341  0.00  0.00     0.040 A 
HETATM    6  C   UNK N   1      25.693  26.145  -6.956  0.00  0.00     0.010 A 
ENDROOT
BRANCH   1   7
HETATM    7  C   UNK N   1      25.948  27.981  -5.225  0.00  0.00     0.045 C 
HETATM    8  C   UNK N   1      27.081  28.995  -5.469  0.00  0.00     0.113 C 
HETATM    9  C   UNK N   1      26.873  29.893  -4.311  0.00  0.00     0.218 C 
HETATM   10  O   UNK N   1      27.388  30.991  -4.204  0.00  0.00    -0.274 OA
HETATM   11  N   UNK N   1      26.081  29.381  -3.366  0.00  0.00    -0.360 N 
HETATM   12  C   UNK N   1      25.629  28.069  -3.723  0.00  0.00     0.132 C 
HETATM   13  H   UNK N   1      25.837  29.845  -2.533  0.00  0.00     0.162 HD
ENDBRANCH   1   7
BRANCH   3  14
HETATM   14  O   UNK N   1      27.660  23.516  -4.376  0.00  0.00    -0.343 OA
BRANCH  14  15
HETATM   15  C   UNK N   1      28.978  23.591  -3.975  0.00  0.00     0.129 C 
HETATM   16  C   UNK N   1      29.799  22.554  -4.699  0.00  0.00     0.032 C 
HETATM   17  C   UNK N   1      31.012  22.339  -3.813  0.00  0.00     0.002 C 
HETATM   18  C   UNK N   1      30.622  22.840  -2.430  0.00  0.00     0.002 C 
HETATM   19  C   UNK N   1      29.158  23.218  -2.521  0.00  0.00     0.032 C 
ENDBRANCH  14  15
ENDBRANCH   3  14
BRANCH   4  20
HETATM   20  O   UNK N   1      26.577  22.580  -6.864  0.00  0.00    -0.353 OA
HETATM   21  C   UNK N   1      27.588  22.079  -7.654  0.00  0.00     0.210 C 
ENDBRANCH   4  20
TORSDOF 4
ENDMDL
MODEL 6
REMARK VINA RESULT:      -6.0     12.887     15.789
REMARK  4 active torsions:
REMARK  status: ('A' for Active; 'I' for Inactive)
REMARK    1  A    between atoms: C_7  and  C_1 
REMARK    2  A    between atoms: C_3  and  O_13 
REMARK    3  A    between atoms: C_4  and  O_19 
REMARK    4  A    between atoms: O_13  and  C_14 
ROOT
HETATM    1  C   UNK N   1      35.245  13.918  11.776  0.00  0.00    -0.049 A 
HETATM    2  C   UNK N   1      35.577  13.883  13.135  0.00  0.00     0.047 A 
HETATM    3  C   UNK N   1      36.172  12.757  13.716  0.00  0.00     0.103 A 
HETATM    4  C   UNK N   1      36.435  11.622  12.903  0.00  0.00     0.101 A 
HETATM    5  C   UNK N   1      36.124  11.674  11.530  0.00  0.00     0.040 A 
HETATM    6  C   UNK N   1      35.535  12.810  10.973  0.00  0.00     0.010 A 
ENDROOT
BRANCH   1   7
HETATM    7  C   UNK N   1      34.501  15.112  11.234  0.00  0.00     0.045 C 
HETATM    8  C   UNK N   1      33.814  14.921   9.869  0.00  0.00     0.113 C 
HETATM    9  C   UNK N   1      33.878  16.308   9.356  0.00  0.00     0.218 C 
HETATM   10  O   UNK N   1      33.243  16.704   8.395  0.00  0.00    -0.274 OA
HETATM   11  N   UNK N   1      34.722  17.095  10.028  0.00  0.00    -0.360 N 
HETATM   12  C   UNK N   1      35.361  16.380  11.092  0.00  0.00     0.132 C 
HETATM   13  H   UNK N   1      34.882  18.043   9.820  0.00  0.00     0.162 HD
ENDBRANCH   1   7
BRANCH   3  14
HETATM   14  O   UNK N   1      36.430  12.812  15.051  0.00  0.00    -0.343 OA
BRANCH  14  15
HETATM   15  C   UNK N   1      35.574  12.483  16.082  0.00  0.00     0.129 C 
HETATM   16  C   UNK N   1      35.558  13.584  17.113  0.00  0.00     0.032 C 
HETATM   17  C   UNK N   1      35.089  12.908  18.388  0.00  0.00     0.002 C 
HETATM   18  C   UNK N   1      35.338  11.418  18.195  0.00  0.00     0.002 C 
HETATM   19  C   UNK N   1      36.054  11.284  16.867  0.00  0.00     0.032 C 
ENDBRANCH  14  15
ENDBRANCH   3  14
BRANCH   4  20
HETATM   20  O   UNK N   1      36.963  10.495  13.442  0.00  0.00    -0.353 OA
HETATM   21  C   UNK N   1      36.240   9.344  13.662  0.00  0.00     0.210 C 
ENDBRANCH   4  20
TORSDOF 4
ENDMDL
MODEL 7
REMARK VINA RESULT:      -6.0     13.626     15.579
REMARK  4 active torsions:
REMARK  status: ('A' for Active; 'I' for Inactive)
REMARK    1  A    between atoms: C_7  and  C_1 
REMARK    2  A    between atoms: C_3  and  O_13 
REMARK    3  A    between atoms: C_4  and  O_19 
REMARK    4  A    between atoms: O_13  and  C_14 
ROOT
HETATM    1  C   UNK N   1      35.741  12.330  15.249  0.00  0.00    -0.049 A 
HETATM    2  C   UNK N   1      35.692  13.494  14.474  0.00  0.00     0.047 A 
HETATM    3  C   UNK N   1      36.382  13.599  13.262  0.00  0.00     0.103 A 
HETATM    4  C   UNK N   1      37.158  12.495  12.814  0.00  0.00     0.101 A 
HETATM    5  C   UNK N   1      37.181  11.316  13.585  0.00  0.00     0.040 A 
HETATM    6  C   UNK N   1      36.480  11.235  14.789  0.00  0.00     0.010 A 
ENDROOT
BRANCH   1   7
HETATM    7  C   UNK N   1      35.072  12.319  16.599  0.00  0.00     0.045 C 
HETATM    8  C   UNK N   1      35.213  13.604  17.437  0.00  0.00     0.113 C 
HETATM    9  C   UNK N   1      35.152  13.028  18.799  0.00  0.00     0.218 C 
HETATM   10  O   UNK N   1      34.986  13.690  19.807  0.00  0.00    -0.274 OA
HETATM   11  N   UNK N   1      35.324  11.704  18.834  0.00  0.00    -0.360 N 
HETATM   12  C   UNK N   1      35.527  11.173  17.519  0.00  0.00     0.132 C 
HETATM   13  H   UNK N   1      35.310  11.163  19.656  0.00  0.00     0.162 HD
ENDBRANCH   1   7
BRANCH   3  14
HETATM   14  O   UNK N   1      36.293  14.783  12.597  0.00  0.00    -0.343 OA
BRANCH  14  15
HETATM   15  C   UNK N   1      35.232  15.240  11.843  0.00  0.00     0.129 C 
HETATM   16  C   UNK N   1      34.732  14.144  10.935  0.00  0.00     0.032 C 
HETATM   17  C   UNK N   1      34.017  14.873   9.812  0.00  0.00     0.002 C 
HETATM   18  C   UNK N   1      34.547  16.300   9.827  0.00  0.00     0.002 C 
HETATM   19  C   UNK N   1      35.641  16.327  10.876  0.00  0.00     0.032 C 
ENDBRANCH  14  15
ENDBRANCH   3  14
BRANCH   4  20
HETATM   20  O   UNK N   1      37.881  12.578  11.670  0.00  0.00    -0.353 OA
HETATM   21  C   UNK N   1      37.740  11.705  10.614  0.00  0.00     0.210 C 
ENDBRANCH   4  20
TORSDOF 4
ENDMDL
MODEL 8
REMARK VINA RESULT:      -5.9     13.251     15.416
REMARK  4 active torsions:
REMARK  status: ('A' for Active; 'I' for Inactive)
REMARK    1  A    between atoms: C_7  and  C_1 
REMARK    2  A    between atoms: C_3  and  O_13 
REMARK    3  A    between atoms: C_4  and  O_19 
REMARK    4  A    between atoms: O_13  and  C_14 
ROOT
HETATM    1  C   UNK N   1      35.393  13.196  11.261  0.00  0.00    -0.049 A 
HETATM    2  C   UNK N   1      34.946  13.292  12.583  0.00  0.00     0.047 A 
HETATM    3  C   UNK N   1      34.874  12.170  13.417  0.00  0.00     0.103 A 
HETATM    4  C   UNK N   1      35.260  10.903  12.900  0.00  0.00     0.101 A 
HETATM    5  C   UNK N   1      35.735  10.818  11.577  0.00  0.00     0.040 A 
HETATM    6  C   UNK N   1      35.801  11.952  10.766  0.00  0.00     0.010 A 
ENDROOT
BRANCH   1   7
HETATM    7  C   UNK N   1      35.337  14.416  10.378  0.00  0.00     0.045 C 
HETATM    8  C   UNK N   1      36.137  15.641  10.861  0.00  0.00     0.113 C 
HETATM    9  C   UNK N   1      35.317  16.726  10.275  0.00  0.00     0.218 C 
HETATM   10  O   UNK N   1      35.687  17.882  10.190  0.00  0.00    -0.274 OA
HETATM   11  N   UNK N   1      34.110  16.330   9.865  0.00  0.00    -0.360 N 
HETATM   12  C   UNK N   1      33.914  14.931  10.103  0.00  0.00     0.132 C 
HETATM   13  H   UNK N   1      33.442  16.922   9.452  0.00  0.00     0.162 HD
ENDBRANCH   1   7
BRANCH   3  14
HETATM   14  O   UNK N   1      34.399  12.363  14.677  0.00  0.00    -0.343 OA
BRANCH  14  15
HETATM   15  C   UNK N   1      35.136  12.502  15.836  0.00  0.00     0.129 C 
HETATM   16  C   UNK N   1      35.047  11.244  16.661  0.00  0.00     0.032 C 
HETATM   17  C   UNK N   1      35.370  11.689  18.075  0.00  0.00     0.002 C 
HETATM   18  C   UNK N   1      35.134  13.193  18.112  0.00  0.00     0.002 C 
HETATM   19  C   UNK N   1      34.565  13.557  16.756  0.00  0.00     0.032 C 
ENDBRANCH  14  15
ENDBRANCH   3  14
BRANCH   4  20
HETATM   20  O   UNK N   1      35.156   9.787  13.662  0.00  0.00    -0.353 OA
HETATM   21  C   UNK N   1      35.686   8.567  13.304  0.00  0.00     0.210 C 
ENDBRANCH   4  20
TORSDOF 4
ENDMDL
MODEL 9
REMARK VINA RESULT:      -5.9     13.384     14.929
REMARK  4 active torsions:
REMARK  status: ('A' for Active; 'I' for Inactive)
REMARK    1  A    between atoms: C_7  and  C_1 
REMARK    2  A    between atoms: C_3  and  O_13 
REMARK    3  A    between atoms: C_4  and  O_19 
REMARK    4  A    between atoms: O_13  and  C_14 
ROOT
HETATM    1  C   UNK N   1      35.151  11.927  15.513  0.00  0.00    -0.049 A 
HETATM    2  C   UNK N   1      35.558  12.716  14.432  0.00  0.00     0.047 A 
HETATM    3  C   UNK N   1      35.204  12.396  13.116  0.00  0.00     0.103 A 
HETATM    4  C   UNK N   1      34.418  11.236  12.878  0.00  0.00     0.101 A 
HETATM    5  C   UNK N   1      33.989  10.462  13.973  0.00  0.00     0.040 A 
HETATM    6  C   UNK N   1      34.352  10.803  15.277  0.00  0.00     0.010 A 
ENDROOT
BRANCH   1   7
HETATM    7  C   UNK N   1      35.660  12.255  16.893  0.00  0.00     0.045 C 
HETATM    8  C   UNK N   1      35.415  11.190  17.979  0.00  0.00     0.113 C 
HETATM    9  C   UNK N   1      35.323  12.061  19.173  0.00  0.00     0.218 C 
HETATM   10  O   UNK N   1      35.368  11.647  20.317  0.00  0.00    -0.274 OA
HETATM   11  N   UNK N   1      35.158  13.354  18.887  0.00  0.00    -0.360 N 
HETATM   12  C   UNK N   1      35.110  13.571  17.472  0.00  0.00     0.132 C 
HETATM   13  H   UNK N   1      35.080  14.067  19.561  0.00  0.00     0.162 HD
ENDBRANCH   1   7
BRANCH   3  14
HETATM   14  O   UNK N   1      35.673  13.211  12.132  0.00  0.00    -0.343 OA
BRANCH  14  15
HETATM   15  C   UNK N   1      35.056  14.329  11.609  0.00  0.00     0.129 C 
HETATM   16  C   UNK N   1      35.010  14.239  10.105  0.00  0.00     0.032 C 
HETATM   17  C   UNK N   1      34.868  15.676   9.639  0.00  0.00     0.002 C 
HETATM   18  C   UNK N   1      35.338  16.547  10.797  0.00  0.00     0.002 C 
HETATM   19  C   UNK N   1      35.852  15.591  11.854  0.00  0.00     0.032 C 
ENDBRANCH  14  15
ENDBRANCH   3  14
BRANCH   4  20
HETATM   20  O   UNK N   1      34.099  10.867  11.613  0.00  0.00    -0.353 OA
HETATM   21  C   UNK N   1      33.383   9.731  11.307  0.00  0.00     0.210 C 
ENDBRANCH   4  20
TORSDOF 4
ENDMDL
