REMARK  4 active torsions:
REMARK  status: ('A' for Active; 'I' for Inactive)
REMARK    1  A    between atoms: C_7  and  C_1 
REMARK    2  A    between atoms: C_3  and  O_13 
REMARK    3  A    between atoms: C_4  and  O_19 
REMARK    4  A    between atoms: O_13  and  C_14 
ROOT
HETATM    1  C   UNK N   1       0.374  -1.748   0.131  0.00  0.00    -0.049 A 
HETATM    2  C   UNK N   1      -0.714  -0.873   0.223  0.00  0.00     0.047 A 
HETATM    3  C   UNK N   1      -0.546   0.515   0.165  0.00  0.00     0.103 A 
HETATM    4  C   UNK N   1       0.765   1.044   0.017  0.00  0.00     0.101 A 
HETATM    5  C   UNK N   1       1.852   0.157  -0.103  0.00  0.00     0.040 A 
HETATM    6  C   UNK N   1       1.659  -1.224  -0.046  0.00  0.00     0.010 A 
ENDROOT
BRANCH   1   7
HETATM    7  C   UNK N   1       0.144  -3.226   0.317  0.00  0.00     0.045 C 
HETATM    8  C   UNK N   1       1.397  -4.120   0.263  0.00  0.00     0.113 C 
HETATM    9  C   UNK N   1       0.796  -5.369  -0.258  0.00  0.00     0.218 C 
HETATM   10  O   UNK N   1       1.361  -6.447  -0.248  0.00  0.00    -0.274 OA
HETATM   11  N   UNK N   1      -0.426  -5.207  -0.771  0.00  0.00    -0.360 N 
HETATM   12  C   UNK N   1      -0.848  -3.841  -0.685  0.00  0.00     0.132 C 
HETATM   13  H   UNK N   1      -0.967  -5.933  -1.157  0.00  0.00     0.162 HD
ENDBRANCH   1   7
BRANCH   3  14
HETATM   14  O   UNK N   1      -1.664   1.281   0.292  0.00  0.00    -0.343 OA
BRANCH  14  15
HETATM   15  C   UNK N   1      -1.731   2.658   0.351  0.00  0.00     0.129 C 
HETATM   16  C   UNK N   1      -3.123   3.093   0.734  0.00  0.00     0.032 C 
HETATM   17  C   UNK N   1      -3.234   4.517   0.222  0.00  0.00     0.002 C 
HETATM   18  C   UNK N   1      -2.155   4.672  -0.841  0.00  0.00     0.002 C 
HETATM   19  C   UNK N   1      -1.530   3.301  -1.002  0.00  0.00     0.032 C 
ENDBRANCH  14  15
ENDBRANCH   3  14
BRANCH   4  20
HETATM   20  O   UNK N   1       0.971   2.384   0.008  0.00  0.00    -0.353 OA
HETATM   21  C   UNK N   1       2.219   2.963  -0.058  0.00  0.00     0.210 C 
ENDBRANCH   4  20
TORSDOF 4
