MODEL 1
REMARK VINA RESULT:      -5.3      0.000      0.000
REMARK  2 active torsions:
REMARK  status: ('A' for Active; 'I' for Inactive)
REMARK    1  A    between atoms: C_3  and  N_4 
REMARK    2  A    between atoms: C_5  and  N_4 
ROOT
HETATM    1  C   UNK N   1      18.776  17.502   9.063  0.00  0.00     0.014 C 
HETATM    2  C   UNK N   1      19.627  16.667   8.878  0.00  0.00    -0.098 C 
HETATM    3  C   UNK N   1      20.662  15.657   8.646  0.00  0.00     0.208 C 
ENDROOT
BRANCH   3   4
HETATM    4  N   UNK N   1      20.376  14.466   9.437  0.00  0.00    -0.403 N 
HETATM    5  H   UNK N   1      19.717  14.415  10.215  0.00  0.00     0.154 HD
BRANCH   4   6
HETATM    6  C   UNK N   1      21.184  13.357   8.936  0.00  0.00     0.111 A 
HETATM    7  C   UNK N   1      22.149  13.827   7.820  0.00  0.00     0.034 A 
HETATM    8  C   UNK N   1      23.587  13.441   8.225  0.00  0.00     0.041 A 
HETATM    9  C   UNK N   1      23.414  12.902   9.588  0.00  0.00    -0.050 A 
HETATM   10  C   UNK N   1      22.107  12.865   9.979  0.00  0.00    -0.030 A 
HETATM   11  C   UNK N   1      24.434  12.440  10.419  0.00  0.00     0.007 A 
HETATM   12  C   UNK N   1      21.743  12.363  11.233  0.00  0.00     0.010 A 
HETATM   13  C   UNK N   1      22.751  11.903  12.093  0.00  0.00     0.001 A 
HETATM   14  C   UNK N   1      24.096  11.938  11.686  0.00  0.00     0.001 A 
ENDBRANCH   4   6
ENDBRANCH   3   4
TORSDOF 2
ENDMDL
MODEL 2
REMARK VINA RESULT:      -5.1     19.598     21.461
REMARK  2 active torsions:
REMARK  status: ('A' for Active; 'I' for Inactive)
REMARK    1  A    between atoms: C_3  and  N_4 
REMARK    2  A    between atoms: C_5  and  N_4 
ROOT
HETATM    1  C   UNK N   1      28.140  23.558  -5.472  0.00  0.00     0.014 C 
HETATM    2  C   UNK N   1      27.239  24.232  -5.038  0.00  0.00    -0.098 C 
HETATM    3  C   UNK N   1      26.148  25.049  -4.502  0.00  0.00     0.208 C 
ENDROOT
BRANCH   3   4
HETATM    4  N   UNK N   1      25.131  25.247  -5.529  0.00  0.00    -0.403 N 
HETATM    5  H   UNK N   1      24.536  24.518  -5.923  0.00  0.00     0.154 HD
BRANCH   4   6
HETATM    6  C   UNK N   1      25.102  26.661  -5.902  0.00  0.00     0.111 A 
HETATM    7  C   UNK N   1      25.355  27.569  -4.674  0.00  0.00     0.034 A 
HETATM    8  C   UNK N   1      26.550  28.492  -4.989  0.00  0.00     0.041 A 
HETATM    9  C   UNK N   1      27.016  27.997  -6.299  0.00  0.00    -0.050 A 
HETATM   10  C   UNK N   1      26.233  26.993  -6.791  0.00  0.00    -0.030 A 
HETATM   11  C   UNK N   1      28.110  28.482  -7.014  0.00  0.00     0.007 A 
HETATM   12  C   UNK N   1      26.504  26.411  -8.035  0.00  0.00     0.010 A 
HETATM   13  C   UNK N   1      27.607  26.873  -8.769  0.00  0.00     0.001 A 
HETATM   14  C   UNK N   1      28.408  27.910  -8.261  0.00  0.00     0.001 A 
ENDBRANCH   4   6
ENDBRANCH   3   4
TORSDOF 2
ENDMDL
MODEL 3
REMARK VINA RESULT:      -5.1      9.133     10.332
REMARK  2 active torsions:
REMARK  status: ('A' for Active; 'I' for Inactive)
REMARK    1  A    between atoms: C_3  and  N_4 
REMARK    2  A    between atoms: C_5  and  N_4 
ROOT
HETATM    1  C   UNK N   1      27.503  20.929   6.068  0.00  0.00     0.014 C 
HETATM    2  C   UNK N   1      27.789  19.759   6.001  0.00  0.00    -0.098 C 
HETATM    3  C   UNK N   1      28.129  18.338   5.914  0.00  0.00     0.208 C 
ENDROOT
BRANCH   3   4
HETATM    4  N   UNK N   1      28.951  17.957   7.057  0.00  0.00    -0.403 N 
HETATM    5  H   UNK N   1      28.900  18.370   7.988  0.00  0.00     0.154 HD
BRANCH   4   6
HETATM    6  C   UNK N   1      29.859  16.885   6.653  0.00  0.00     0.111 A 
HETATM    7  C   UNK N   1      29.875  16.715   5.114  0.00  0.00     0.034 A 
HETATM    8  C   UNK N   1      31.333  16.841   4.625  0.00  0.00     0.041 A 
HETATM    9  C   UNK N   1      32.064  17.207   5.852  0.00  0.00    -0.050 A 
HETATM   10  C   UNK N   1      31.260  17.241   6.955  0.00  0.00    -0.030 A 
HETATM   11  C   UNK N   1      33.430  17.473   5.941  0.00  0.00     0.007 A 
HETATM   12  C   UNK N   1      31.780  17.547   8.217  0.00  0.00     0.010 A 
HETATM   13  C   UNK N   1      33.150  17.831   8.332  0.00  0.00     0.001 A 
HETATM   14  C   UNK N   1      33.976  17.790   7.195  0.00  0.00     0.001 A 
ENDBRANCH   4   6
ENDBRANCH   3   4
TORSDOF 2
ENDMDL
MODEL 4
REMARK VINA RESULT:      -5.1      8.979     10.772
REMARK  2 active torsions:
REMARK  status: ('A' for Active; 'I' for Inactive)
REMARK    1  A    between atoms: C_3  and  N_4 
REMARK    2  A    between atoms: C_5  and  N_4 
ROOT
HETATM    1  C   UNK N   1      34.642  18.462   8.161  0.00  0.00     0.014 C 
HETATM    2  C   UNK N   1      34.169  17.707   7.347  0.00  0.00    -0.098 C 
HETATM    3  C   UNK N   1      33.600  16.795   6.353  0.00  0.00     0.208 C 
ENDROOT
BRANCH   3   4
HETATM    4  N   UNK N   1      32.335  16.259   6.842  0.00  0.00    -0.403 N 
HETATM    5  H   UNK N   1      32.228  15.422   7.414  0.00  0.00     0.154 HD
BRANCH   4   6
HETATM    6  C   UNK N   1      31.246  17.118   6.381  0.00  0.00     0.111 A 
HETATM    7  C   UNK N   1      30.311  16.361   5.406  0.00  0.00     0.034 A 
HETATM    8  C   UNK N   1      28.870  16.442   5.952  0.00  0.00     0.041 A 
HETATM    9  C   UNK N   1      29.046  17.106   7.258  0.00  0.00    -0.050 A 
HETATM   10  C   UNK N   1      30.342  17.465   7.496  0.00  0.00    -0.030 A 
HETATM   11  C   UNK N   1      28.035  17.387   8.176  0.00  0.00     0.007 A 
HETATM   12  C   UNK N   1      30.701  18.128   8.674  0.00  0.00     0.010 A 
HETATM   13  C   UNK N   1      29.704  18.412   9.620  0.00  0.00     0.001 A 
HETATM   14  C   UNK N   1      28.370  18.045   9.369  0.00  0.00     0.001 A 
ENDBRANCH   4   6
ENDBRANCH   3   4
TORSDOF 2
ENDMDL
MODEL 5
REMARK VINA RESULT:      -5.0     18.854     20.394
REMARK  2 active torsions:
REMARK  status: ('A' for Active; 'I' for Inactive)
REMARK    1  A    between atoms: C_3  and  N_4 
REMARK    2  A    between atoms: C_5  and  N_4 
ROOT
HETATM    1  C   UNK N   1      28.403  29.136  -6.905  0.00  0.00     0.014 C 
HETATM    2  C   UNK N   1      27.815  29.271  -5.860  0.00  0.00    -0.098 C 
HETATM    3  C   UNK N   1      27.101  29.443  -4.594  0.00  0.00     0.208 C 
ENDROOT
BRANCH   3   4
HETATM    4  N   UNK N   1      27.396  28.325  -3.705  0.00  0.00    -0.403 N 
HETATM    5  H   UNK N   1      28.263  28.195  -3.183  0.00  0.00     0.154 HD
BRANCH   4   6
HETATM    6  C   UNK N   1      26.247  27.421  -3.683  0.00  0.00     0.111 A 
HETATM    7  C   UNK N   1      25.104  27.945  -4.585  0.00  0.00     0.034 A 
HETATM    8  C   UNK N   1      24.743  26.844  -5.604  0.00  0.00     0.041 A 
HETATM    9  C   UNK N   1      25.760  25.807  -5.346  0.00  0.00    -0.050 A 
HETATM   10  C   UNK N   1      26.586  26.126  -4.306  0.00  0.00    -0.030 A 
HETATM   11  C   UNK N   1      25.894  24.603  -6.037  0.00  0.00     0.007 A 
HETATM   12  C   UNK N   1      27.600  25.252  -3.898  0.00  0.00     0.010 A 
HETATM   13  C   UNK N   1      27.763  24.040  -4.584  0.00  0.00     0.001 A 
HETATM   14  C   UNK N   1      26.908  23.713  -5.651  0.00  0.00     0.001 A 
ENDBRANCH   4   6
ENDBRANCH   3   4
TORSDOF 2
ENDMDL
MODEL 6
REMARK VINA RESULT:      -5.0      1.757      3.403
REMARK  2 active torsions:
REMARK  status: ('A' for Active; 'I' for Inactive)
REMARK    1  A    between atoms: C_3  and  N_4 
REMARK    2  A    between atoms: C_5  and  N_4 
ROOT
HETATM    1  C   UNK N   1      20.891  11.045   5.909  0.00  0.00     0.014 C 
HETATM    2  C   UNK N   1      20.792  12.212   6.197  0.00  0.00    -0.098 C 
HETATM    3  C   UNK N   1      20.664  13.629   6.542  0.00  0.00     0.208 C 
ENDROOT
BRANCH   3   4
HETATM    4  N   UNK N   1      21.954  14.147   6.982  0.00  0.00    -0.403 N 
HETATM    5  H   UNK N   1      22.797  14.205   6.410  0.00  0.00     0.154 HD
BRANCH   4   6
HETATM    6  C   UNK N   1      21.845  14.572   8.377  0.00  0.00     0.111 A 
HETATM    7  C   UNK N   1      20.368  14.608   8.837  0.00  0.00     0.034 A 
HETATM    8  C   UNK N   1      20.227  13.721  10.091  0.00  0.00     0.041 A 
HETATM    9  C   UNK N   1      21.565  13.113  10.220  0.00  0.00    -0.050 A 
HETATM   10  C   UNK N   1      22.444  13.569   9.280  0.00  0.00    -0.030 A 
HETATM   11  C   UNK N   1      21.954  12.190  11.191  0.00  0.00     0.007 A 
HETATM   12  C   UNK N   1      23.770  13.123   9.257  0.00  0.00     0.010 A 
HETATM   13  C   UNK N   1      24.183  12.186  10.216  0.00  0.00     0.001 A 
HETATM   14  C   UNK N   1      23.277  11.722  11.185  0.00  0.00     0.001 A 
ENDBRANCH   4   6
ENDBRANCH   3   4
TORSDOF 2
ENDMDL
MODEL 7
REMARK VINA RESULT:      -4.9     14.127     15.783
REMARK  2 active torsions:
REMARK  status: ('A' for Active; 'I' for Inactive)
REMARK    1  A    between atoms: C_3  and  N_4 
REMARK    2  A    between atoms: C_5  and  N_4 
ROOT
HETATM    1  C   UNK N   1      35.363  13.191  11.860  0.00  0.00     0.014 C 
HETATM    2  C   UNK N   1      36.205  12.603  12.492  0.00  0.00    -0.098 C 
HETATM    3  C   UNK N   1      37.228  11.882  13.254  0.00  0.00     0.208 C 
ENDROOT
BRANCH   3   4
HETATM    4  N   UNK N   1      37.144  12.251  14.662  0.00  0.00    -0.403 N 
HETATM    5  H   UNK N   1      37.804  12.850  15.159  0.00  0.00     0.154 HD
BRANCH   4   6
HETATM    6  C   UNK N   1      35.962  11.622  15.248  0.00  0.00     0.111 A 
HETATM    7  C   UNK N   1      36.205  10.118  15.524  0.00  0.00     0.034 A 
HETATM    8  C   UNK N   1      35.917   9.843  17.014  0.00  0.00     0.041 A 
HETATM    9  C   UNK N   1      35.659  11.191  17.557  0.00  0.00    -0.050 A 
HETATM   10  C   UNK N   1      35.694  12.161  16.597  0.00  0.00    -0.030 A 
HETATM   11  C   UNK N   1      35.379  11.497  18.888  0.00  0.00     0.007 A 
HETATM   12  C   UNK N   1      35.450  13.501  16.917  0.00  0.00     0.010 A 
HETATM   13  C   UNK N   1      35.177  13.837  18.252  0.00  0.00     0.001 A 
HETATM   14  C   UNK N   1      35.138  12.835  19.237  0.00  0.00     0.001 A 
ENDBRANCH   4   6
ENDBRANCH   3   4
TORSDOF 2
ENDMDL
MODEL 8
REMARK VINA RESULT:      -4.9     10.196     11.587
REMARK  2 active torsions:
REMARK  status: ('A' for Active; 'I' for Inactive)
REMARK    1  A    between atoms: C_3  and  N_4 
REMARK    2  A    between atoms: C_5  and  N_4 
ROOT
HETATM    1  C   UNK N   1      29.739  18.613   9.616  0.00  0.00     0.014 C 
HETATM    2  C   UNK N   1      30.235  18.068   8.661  0.00  0.00    -0.098 C 
HETATM    3  C   UNK N   1      30.832  17.412   7.497  0.00  0.00     0.208 C 
ENDROOT
BRANCH   3   4
HETATM    4  N   UNK N   1      31.413  16.134   7.895  0.00  0.00    -0.403 N 
HETATM    5  H   UNK N   1      30.895  15.340   8.273  0.00  0.00     0.154 HD
BRANCH   4   6
HETATM    6  C   UNK N   1      32.855  16.175   7.663  0.00  0.00     0.111 A 
HETATM    7  C   UNK N   1      33.308  17.579   7.195  0.00  0.00     0.034 A 
HETATM    8  C   UNK N   1      34.409  18.080   8.152  0.00  0.00     0.041 A 
HETATM    9  C   UNK N   1      34.450  17.032   9.189  0.00  0.00    -0.050 A 
HETATM   10  C   UNK N   1      33.596  15.999   8.928  0.00  0.00    -0.030 A 
HETATM   11  C   UNK N   1      35.268  17.029  10.318  0.00  0.00     0.007 A 
HETATM   12  C   UNK N   1      33.511  14.899   9.789  0.00  0.00     0.010 A 
HETATM   13  C   UNK N   1      34.316  14.877  10.938  0.00  0.00     0.001 A 
HETATM   14  C   UNK N   1      35.197  15.941  11.201  0.00  0.00     0.001 A 
ENDBRANCH   4   6
ENDBRANCH   3   4
TORSDOF 2
ENDMDL
MODEL 9
REMARK VINA RESULT:      -4.8      8.962     10.383
REMARK  2 active torsions:
REMARK  status: ('A' for Active; 'I' for Inactive)
REMARK    1  A    between atoms: C_3  and  N_4 
REMARK    2  A    between atoms: C_5  and  N_4 
ROOT
HETATM    1  C   UNK N   1      28.694  15.307   2.373  0.00  0.00     0.014 C 
HETATM    2  C   UNK N   1      29.529  15.832   3.067  0.00  0.00    -0.098 C 
HETATM    3  C   UNK N   1      30.546  16.462   3.912  0.00  0.00     0.208 C 
ENDROOT
BRANCH   3   4
HETATM    4  N   UNK N   1      30.082  17.774   4.348  0.00  0.00    -0.403 N 
HETATM    5  H   UNK N   1      30.496  18.668   4.083  0.00  0.00     0.154 HD
BRANCH   4   6
HETATM    6  C   UNK N   1      28.925  17.601   5.225  0.00  0.00     0.111 A 
HETATM    7  C   UNK N   1      29.362  17.420   6.699  0.00  0.00     0.034 A 
HETATM    8  C   UNK N   1      28.651  18.490   7.553  0.00  0.00     0.041 A 
HETATM    9  C   UNK N   1      27.957  19.313   6.544  0.00  0.00    -0.050 A 
HETATM   10  C   UNK N   1      28.115  18.834   5.275  0.00  0.00    -0.030 A 
HETATM   11  C   UNK N   1      27.188  20.447   6.802  0.00  0.00     0.007 A 
HETATM   12  C   UNK N   1      27.509  19.470   4.185  0.00  0.00     0.010 A 
HETATM   13  C   UNK N   1      26.740  20.620   4.417  0.00  0.00     0.001 A 
HETATM   14  C   UNK N   1      26.576  21.107   5.725  0.00  0.00     0.001 A 
ENDBRANCH   4   6
ENDBRANCH   3   4
TORSDOF 2
ENDMDL
