REMARK  2 active torsions:
REMARK  status: ('A' for Active; 'I' for Inactive)
REMARK    1  A    between atoms: C_3  and  N_4 
REMARK    2  A    between atoms: C_5  and  N_4 
ROOT
HETATM    1  C   UNK N   1      -2.472   4.249  -0.096  0.00  0.00     0.014 C 
HETATM    2  C   UNK N   1      -2.419   3.046  -0.165  0.00  0.00    -0.098 C 
HETATM    3  C   UNK N   1      -2.362   1.585  -0.244  0.00  0.00     0.208 C 
ENDROOT
BRANCH   3   4
HETATM    4  N   UNK N   1      -1.003   1.161  -0.561  0.00  0.00    -0.403 N 
HETATM    5  H   UNK N   1      -0.390   1.600  -1.248  0.00  0.00     0.154 HD
BRANCH   4   6
HETATM    6  C   UNK N   1      -0.661   0.005   0.266  0.00  0.00     0.111 A 
HETATM    7  C   UNK N   1      -1.336  -1.283  -0.265  0.00  0.00     0.034 A 
HETATM    8  C   UNK N   1      -0.240  -2.339  -0.517  0.00  0.00     0.041 A 
HETATM    9  C   UNK N   1       1.006  -1.592  -0.260  0.00  0.00    -0.050 A 
HETATM   10  C   UNK N   1       0.777  -0.312   0.157  0.00  0.00    -0.030 A 
HETATM   11  C   UNK N   1       2.301  -2.094  -0.385  0.00  0.00     0.007 A 
HETATM   12  C   UNK N   1       1.838   0.544   0.472  0.00  0.00     0.010 A 
HETATM   13  C   UNK N   1       3.151   0.067   0.343  0.00  0.00     0.001 A 
HETATM   14  C   UNK N   1       3.383  -1.253  -0.082  0.00  0.00     0.001 A 
ENDBRANCH   4   6
ENDBRANCH   3   4
TORSDOF 2
