MODEL 1
REMARK VINA RESULT:      -8.8      0.000      0.000
REMARK  4 active torsions:
REMARK  status: ('A' for Active; 'I' for Inactive)
REMARK    1  A    between atoms: C_7  and  O_9 
REMARK    2  A    between atoms: C_19  and  S_22 
REMARK    3  A    between atoms: S_22  and  N_25 
REMARK    4  A    between atoms: C_28  and  O_29 
ROOT
HETATM    1  C   UNK N   1      26.378  18.350   4.609  0.00  0.00     0.013 A 
HETATM    2  C   UNK N   1      27.202  19.440   4.290  0.00  0.00     0.001 A 
HETATM    3  C   UNK N   1      26.678  20.545   3.586  0.00  0.00     0.002 A 
HETATM    4  C   UNK N   1      25.327  20.564   3.193  0.00  0.00     0.030 A 
HETATM    5  C   UNK N   1      24.535  19.469   3.522  0.00  0.00     0.042 A 
HETATM    6  C   UNK N   1      25.040  18.393   4.213  0.00  0.00     0.008 A 
HETATM    7  C   UNK N   1      23.983  17.364   4.460  0.00  0.00     0.126 A 
HETATM    8  C   UNK N   1      24.334  16.049   3.778  0.00  0.00     0.058 C 
HETATM    9  C   UNK N   1      22.798  18.068   3.799  0.00  0.00     0.065 A 
HETATM   10  N   UNK N   1      23.178  19.305   3.234  0.00  0.00    -0.355 N 
HETATM   11  C   UNK N   1      21.532  17.594   3.766  0.00  0.00     0.070 A 
HETATM   12  C   UNK N   1      20.329  18.177   3.143  0.00  0.00     0.259 A 
HETATM   13  O   UNK N   1      20.278  19.224   2.520  0.00  0.00    -0.267 OA
HETATM   14  N   UNK N   1      19.250  17.382   3.353  0.00  0.00    -0.322 N 
HETATM   15  C   UNK N   1      19.692  16.282   4.121  0.00  0.00     0.046 A 
HETATM   16  C   UNK N   1      21.038  16.372   4.384  0.00  0.00     0.010 A 
HETATM   17  C   UNK N   1      21.687  15.443   5.176  0.00  0.00     0.039 A 
HETATM   18  C   UNK N   1      20.958  14.387   5.714  0.00  0.00     0.075 A 
HETATM   19  C   UNK N   1      19.573  14.270   5.442  0.00  0.00     0.027 A 
HETATM   20  C   UNK N   1      18.925  15.229   4.629  0.00  0.00     0.032 A 
HETATM   21  H   UNK N   1      22.603  19.928   2.734  0.00  0.00     0.166 HD
HETATM   22  H   UNK N   1      18.334  17.539   3.030  0.00  0.00     0.169 HD
ENDROOT
BRANCH   7  23
HETATM   23  O   UNK N   1      23.792  17.191   5.831  0.00  0.00    -0.379 OA
HETATM   24  H   UNK N   1      23.604  17.625   6.678  0.00  0.00     0.211 HD
ENDBRANCH   7  23
BRANCH  18  25
HETATM   25  S   UNK N   1      21.813  13.277   6.823  0.00  0.00     0.243 S 
HETATM   26  O   UNK N   1      20.865  12.175   7.325  0.00  0.00    -0.206 OA
HETATM   27  O   UNK N   1      22.900  12.450   6.119  0.00  0.00    -0.206 OA
BRANCH  25  28
HETATM   28  N   UNK N   1      22.559  13.992   8.280  0.00  0.00    -0.206 NA
HETATM   29  C   UNK N   1      23.543  13.105   8.916  0.00  0.00     0.110 C 
HETATM   30  C   UNK N   1      22.880  11.989   9.718  0.00  0.00     0.047 C 
HETATM   31  C   UNK N   1      21.973  12.604  10.770  0.00  0.00     0.120 C 
HETATM   32  C   UNK N   1      20.907  13.434  10.075  0.00  0.00     0.047 C 
HETATM   33  C   UNK N   1      21.568  14.527   9.228  0.00  0.00     0.110 C 
BRANCH  31  34
HETATM   34  O   UNK N   1      21.371  11.594  11.519  0.00  0.00    -0.395 OA
HETATM   35  H   UNK N   1      21.259  10.633  11.447  0.00  0.00     0.210 HD
ENDBRANCH  31  34
ENDBRANCH  25  28
ENDBRANCH  18  25
TORSDOF 4
ENDMDL
MODEL 2
REMARK VINA RESULT:      -8.6      7.677     10.268
REMARK  4 active torsions:
REMARK  status: ('A' for Active; 'I' for Inactive)
REMARK    1  A    between atoms: C_7  and  O_9 
REMARK    2  A    between atoms: C_19  and  S_22 
REMARK    3  A    between atoms: S_22  and  N_25 
REMARK    4  A    between atoms: C_28  and  O_29 
ROOT
HETATM    1  C   UNK N   1      30.970  13.316   2.447  0.00  0.00     0.013 A 
HETATM    2  C   UNK N   1      30.327  12.677   1.376  0.00  0.00     0.001 A 
HETATM    3  C   UNK N   1      28.928  12.783   1.223  0.00  0.00     0.002 A 
HETATM    4  C   UNK N   1      28.165  13.524   2.144  0.00  0.00     0.030 A 
HETATM    5  C   UNK N   1      28.830  14.144   3.197  0.00  0.00     0.042 A 
HETATM    6  C   UNK N   1      30.194  14.048   3.345  0.00  0.00     0.008 A 
HETATM    7  C   UNK N   1      30.662  14.822   4.537  0.00  0.00     0.126 A 
HETATM    8  C   UNK N   1      31.308  13.900   5.563  0.00  0.00     0.058 C 
HETATM    9  C   UNK N   1      29.320  15.377   5.012  0.00  0.00     0.065 A 
HETATM   10  N   UNK N   1      28.256  14.928   4.199  0.00  0.00    -0.355 N 
HETATM   11  C   UNK N   1      29.152  16.210   6.063  0.00  0.00     0.070 A 
HETATM   12  C   UNK N   1      27.909  16.783   6.615  0.00  0.00     0.259 A 
HETATM   13  O   UNK N   1      26.780  16.584   6.202  0.00  0.00    -0.267 OA
HETATM   14  N   UNK N   1      28.184  17.586   7.674  0.00  0.00    -0.322 N 
HETATM   15  C   UNK N   1      29.587  17.584   7.840  0.00  0.00     0.046 A 
HETATM   16  C   UNK N   1      30.194  16.779   6.905  0.00  0.00     0.010 A 
HETATM   17  C   UNK N   1      31.569  16.668   6.826  0.00  0.00     0.039 A 
HETATM   18  C   UNK N   1      32.358  17.386   7.720  0.00  0.00     0.075 A 
HETATM   19  C   UNK N   1      31.749  18.209   8.700  0.00  0.00     0.027 A 
HETATM   20  C   UNK N   1      30.340  18.310   8.767  0.00  0.00     0.032 A 
HETATM   21  H   UNK N   1      27.299  15.126   4.316  0.00  0.00     0.166 HD
HETATM   22  H   UNK N   1      27.531  18.075   8.224  0.00  0.00     0.169 HD
ENDROOT
BRANCH   7  23
HETATM   23  O   UNK N   1      31.538  15.833   4.140  0.00  0.00    -0.379 OA
HETATM   24  H   UNK N   1      31.652  16.631   3.600  0.00  0.00     0.211 HD
ENDBRANCH   7  23
BRANCH  18  25
HETATM   25  S   UNK N   1      34.130  17.302   7.507  0.00  0.00     0.243 S 
HETATM   26  O   UNK N   1      34.485  16.985   6.045  0.00  0.00    -0.206 OA
HETATM   27  O   UNK N   1      34.820  18.660   7.704  0.00  0.00    -0.206 OA
BRANCH  25  28
HETATM   28  N   UNK N   1      35.016  16.113   8.502  0.00  0.00    -0.206 NA
HETATM   29  C   UNK N   1      35.272  14.850   7.797  0.00  0.00     0.110 C 
HETATM   30  C   UNK N   1      34.029  13.967   7.726  0.00  0.00     0.047 C 
HETATM   31  C   UNK N   1      33.535  13.689   9.135  0.00  0.00     0.120 C 
HETATM   32  C   UNK N   1      33.185  15.008   9.803  0.00  0.00     0.047 C 
HETATM   33  C   UNK N   1      34.417  15.919   9.834  0.00  0.00     0.110 C 
BRANCH  31  34
HETATM   34  O   UNK N   1      32.407  12.872   9.084  0.00  0.00    -0.395 OA
HETATM   35  H   UNK N   1      32.017  12.244   8.454  0.00  0.00     0.210 HD
ENDBRANCH  31  34
ENDBRANCH  25  28
ENDBRANCH  18  25
TORSDOF 4
ENDMDL
MODEL 3
REMARK VINA RESULT:      -8.6     14.151     15.674
REMARK  4 active torsions:
REMARK  status: ('A' for Active; 'I' for Inactive)
REMARK    1  A    between atoms: C_7  and  O_9 
REMARK    2  A    between atoms: C_19  and  S_22 
REMARK    3  A    between atoms: S_22  and  N_25 
REMARK    4  A    between atoms: C_28  and  O_29 
ROOT
HETATM    1  C   UNK N   1      27.579  27.072  -4.943  0.00  0.00     0.013 A 
HETATM    2  C   UNK N   1      26.716  28.076  -4.479  0.00  0.00     0.001 A 
HETATM    3  C   UNK N   1      25.328  27.986  -4.715  0.00  0.00     0.002 A 
HETATM    4  C   UNK N   1      24.796  26.892  -5.422  0.00  0.00     0.030 A 
HETATM    5  C   UNK N   1      25.676  25.912  -5.872  0.00  0.00     0.042 A 
HETATM    6  C   UNK N   1      27.028  25.994  -5.638  0.00  0.00     0.008 A 
HETATM    7  C   UNK N   1      27.746  24.809  -6.201  0.00  0.00     0.126 A 
HETATM    8  C   UNK N   1      28.736  25.234  -7.278  0.00  0.00     0.058 C 
HETATM    9  C   UNK N   1      26.551  24.047  -6.773  0.00  0.00     0.065 A 
HETATM   10  N   UNK N   1      25.343  24.753  -6.575  0.00  0.00    -0.355 N 
HETATM   11  C   UNK N   1      26.615  22.840  -7.378  0.00  0.00     0.070 A 
HETATM   12  C   UNK N   1      25.536  22.034  -7.979  0.00  0.00     0.259 A 
HETATM   13  O   UNK N   1      24.358  22.341  -8.039  0.00  0.00    -0.267 OA
HETATM   14  N   UNK N   1      26.028  20.870  -8.472  0.00  0.00    -0.322 N 
HETATM   15  C   UNK N   1      27.415  20.862  -8.203  0.00  0.00     0.046 A 
HETATM   16  C   UNK N   1      27.799  22.013  -7.557  0.00  0.00     0.010 A 
HETATM   17  C   UNK N   1      29.100  22.205  -7.130  0.00  0.00     0.039 A 
HETATM   18  C   UNK N   1      30.044  21.211  -7.366  0.00  0.00     0.075 A 
HETATM   19  C   UNK N   1      29.669  20.024  -8.044  0.00  0.00     0.027 A 
HETATM   20  C   UNK N   1      28.334  19.844  -8.474  0.00  0.00     0.032 A 
HETATM   21  H   UNK N   1      24.445  24.482  -6.875  0.00  0.00     0.166 HD
HETATM   22  H   UNK N   1      25.518  20.166  -8.933  0.00  0.00     0.169 HD
ENDROOT
BRANCH   7  23
HETATM   23  O   UNK N   1      28.380  24.100  -5.179  0.00  0.00    -0.379 OA
HETATM   24  H   UNK N   1      28.475  23.243  -4.735  0.00  0.00     0.211 HD
ENDBRANCH   7  23
BRANCH  18  25
HETATM   25  S   UNK N   1      31.682  21.454  -6.697  0.00  0.00     0.243 S 
HETATM   26  O   UNK N   1      32.753  21.108  -7.745  0.00  0.00    -0.206 OA
HETATM   27  O   UNK N   1      31.998  22.930  -6.412  0.00  0.00    -0.206 OA
BRANCH  25  28
HETATM   28  N   UNK N   1      32.110  20.532  -5.228  0.00  0.00    -0.206 NA
HETATM   29  C   UNK N   1      30.937  20.138  -4.436  0.00  0.00     0.110 C 
HETATM   30  C   UNK N   1      30.371  21.302  -3.625  0.00  0.00     0.047 C 
HETATM   31  C   UNK N   1      31.457  21.850  -2.716  0.00  0.00     0.120 C 
HETATM   32  C   UNK N   1      32.614  22.340  -3.571  0.00  0.00     0.047 C 
HETATM   33  C   UNK N   1      33.155  21.188  -4.424  0.00  0.00     0.110 C 
BRANCH  31  34
HETATM   34  O   UNK N   1      30.948  22.905  -1.960  0.00  0.00    -0.395 OA
HETATM   35  H   UNK N   1      30.086  23.330  -1.833  0.00  0.00     0.210 HD
ENDBRANCH  31  34
ENDBRANCH  25  28
ENDBRANCH  18  25
TORSDOF 4
ENDMDL
MODEL 4
REMARK VINA RESULT:      -8.6      3.594      4.797
REMARK  4 active torsions:
REMARK  status: ('A' for Active; 'I' for Inactive)
REMARK    1  A    between atoms: C_7  and  O_9 
REMARK    2  A    between atoms: C_19  and  S_22 
REMARK    3  A    between atoms: S_22  and  N_25 
REMARK    4  A    between atoms: C_28  and  O_29 
ROOT
HETATM    1  C   UNK N   1      26.745  16.578   5.771  0.00  0.00     0.013 A 
HETATM    2  C   UNK N   1      28.048  16.935   6.151  0.00  0.00     0.001 A 
HETATM    3  C   UNK N   1      28.536  18.230   5.881  0.00  0.00     0.002 A 
HETATM    4  C   UNK N   1      27.726  19.175   5.224  0.00  0.00     0.030 A 
HETATM    5  C   UNK N   1      26.439  18.792   4.858  0.00  0.00     0.042 A 
HETATM    6  C   UNK N   1      25.958  17.532   5.125  0.00  0.00     0.008 A 
HETATM    7  C   UNK N   1      24.547  17.382   4.653  0.00  0.00     0.126 A 
HETATM    8  C   UNK N   1      24.443  16.304   3.582  0.00  0.00     0.058 C 
HETATM    9  C   UNK N   1      24.325  18.786   4.093  0.00  0.00     0.065 A 
HETATM   10  N   UNK N   1      25.486  19.582   4.214  0.00  0.00    -0.355 N 
HETATM   11  C   UNK N   1      23.167  19.238   3.562  0.00  0.00     0.070 A 
HETATM   12  C   UNK N   1      22.855  20.557   2.978  0.00  0.00     0.259 A 
HETATM   13  O   UNK N   1      23.626  21.494   2.866  0.00  0.00    -0.267 OA
HETATM   14  N   UNK N   1      21.563  20.602   2.568  0.00  0.00    -0.322 N 
HETATM   15  C   UNK N   1      20.987  19.350   2.877  0.00  0.00     0.046 A 
HETATM   16  C   UNK N   1      21.907  18.515   3.465  0.00  0.00     0.010 A 
HETATM   17  C   UNK N   1      21.560  17.255   3.917  0.00  0.00     0.039 A 
HETATM   18  C   UNK N   1      20.247  16.821   3.766  0.00  0.00     0.075 A 
HETATM   19  C   UNK N   1      19.289  17.662   3.149  0.00  0.00     0.027 A 
HETATM   20  C   UNK N   1      19.661  18.948   2.692  0.00  0.00     0.032 A 
HETATM   21  H   UNK N   1      25.601  20.510   3.906  0.00  0.00     0.166 HD
HETATM   22  H   UNK N   1      21.111  21.362   2.135  0.00  0.00     0.169 HD
ENDROOT
BRANCH   7  23
HETATM   23  O   UNK N   1      23.705  17.109   5.732  0.00  0.00    -0.379 OA
HETATM   24  H   UNK N   1      22.810  16.854   6.009  0.00  0.00     0.211 HD
ENDBRANCH   7  23
BRANCH  18  25
HETATM   25  S   UNK N   1      19.819  15.234   4.467  0.00  0.00     0.243 S 
HETATM   26  O   UNK N   1      20.800  14.855   5.589  0.00  0.00    -0.206 OA
HETATM   27  O   UNK N   1      18.482  15.257   5.223  0.00  0.00    -0.206 OA
BRANCH  25  28
HETATM   28  N   UNK N   1      19.770  13.837   3.356  0.00  0.00    -0.206 NA
HETATM   29  C   UNK N   1      20.982  13.009   3.421  0.00  0.00     0.110 C 
HETATM   30  C   UNK N   1      22.155  13.645   2.680  0.00  0.00     0.047 C 
HETATM   31  C   UNK N   1      21.761  13.883   1.233  0.00  0.00     0.120 C 
HETATM   32  C   UNK N   1      20.566  14.822   1.197  0.00  0.00     0.047 C 
HETATM   33  C   UNK N   1      19.400  14.211   1.980  0.00  0.00     0.110 C 
BRANCH  31  34
HETATM   34  O   UNK N   1      22.829  14.452   0.542  0.00  0.00    -0.395 OA
HETATM   35  H   UNK N   1      23.180  14.426  -0.362  0.00  0.00     0.210 HD
ENDBRANCH  31  34
ENDBRANCH  25  28
ENDBRANCH  18  25
TORSDOF 4
ENDMDL
MODEL 5
REMARK VINA RESULT:      -8.4     15.256     15.842
REMARK  4 active torsions:
REMARK  status: ('A' for Active; 'I' for Inactive)
REMARK    1  A    between atoms: C_7  and  O_9 
REMARK    2  A    between atoms: C_19  and  S_22 
REMARK    3  A    between atoms: S_22  and  N_25 
REMARK    4  A    between atoms: C_28  and  O_29 
ROOT
HETATM    1  C   UNK N   1      27.322  26.937  -4.215  0.00  0.00     0.013 A 
HETATM    2  C   UNK N   1      26.441  27.990  -3.923  0.00  0.00     0.001 A 
HETATM    3  C   UNK N   1      25.182  28.057  -4.554  0.00  0.00     0.002 A 
HETATM    4  C   UNK N   1      24.797  27.075  -5.485  0.00  0.00     0.030 A 
HETATM    5  C   UNK N   1      25.692  26.044  -5.755  0.00  0.00     0.042 A 
HETATM    6  C   UNK N   1      26.918  25.972  -5.138  0.00  0.00     0.008 A 
HETATM    7  C   UNK N   1      27.676  24.761  -5.582  0.00  0.00     0.126 A 
HETATM    8  C   UNK N   1      28.968  25.156  -6.285  0.00  0.00     0.058 C 
HETATM    9  C   UNK N   1      26.646  24.166  -6.542  0.00  0.00     0.065 A 
HETATM   10  N   UNK N   1      25.492  24.975  -6.632  0.00  0.00    -0.355 N 
HETATM   11  C   UNK N   1      26.792  23.003  -7.215  0.00  0.00     0.070 A 
HETATM   12  C   UNK N   1      25.877  22.354  -8.174  0.00  0.00     0.259 A 
HETATM   13  O   UNK N   1      24.797  22.783  -8.539  0.00  0.00    -0.267 OA
HETATM   14  N   UNK N   1      26.402  21.183  -8.614  0.00  0.00    -0.322 N 
HETATM   15  C   UNK N   1      27.643  21.014  -7.961  0.00  0.00     0.046 A 
HETATM   16  C   UNK N   1      27.909  22.073  -7.126  0.00  0.00     0.010 A 
HETATM   17  C   UNK N   1      29.038  22.103  -6.329  0.00  0.00     0.039 A 
HETATM   18  C   UNK N   1      29.929  21.036  -6.379  0.00  0.00     0.075 A 
HETATM   19  C   UNK N   1      29.679  19.943  -7.245  0.00  0.00     0.027 A 
HETATM   20  C   UNK N   1      28.519  19.929  -8.054  0.00  0.00     0.032 A 
HETATM   21  H   UNK N   1      24.704  24.819  -7.200  0.00  0.00     0.166 HD
HETATM   22  H   UNK N   1      25.996  20.567  -9.266  0.00  0.00     0.169 HD
ENDROOT
BRANCH   7  23
HETATM   23  O   UNK N   1      27.925  23.923  -4.494  0.00  0.00    -0.379 OA
HETATM   24  H   UNK N   1      27.853  23.811  -3.533  0.00  0.00     0.211 HD
ENDBRANCH   7  23
BRANCH  18  25
HETATM   25  S   UNK N   1      31.312  21.065  -5.248  0.00  0.00     0.243 S 
HETATM   26  O   UNK N   1      31.043  22.037  -4.087  0.00  0.00    -0.206 OA
HETATM   27  O   UNK N   1      31.499  19.737  -4.499  0.00  0.00    -0.206 OA
BRANCH  25  28
HETATM   28  N   UNK N   1      32.905  21.519  -5.917  0.00  0.00    -0.206 NA
HETATM   29  C   UNK N   1      33.454  20.507  -6.830  0.00  0.00     0.110 C 
HETATM   30  C   UNK N   1      34.032  19.309  -6.082  0.00  0.00     0.047 C 
HETATM   31  C   UNK N   1      35.109  19.790  -5.126  0.00  0.00     0.120 C 
HETATM   32  C   UNK N   1      34.489  20.759  -4.134  0.00  0.00     0.047 C 
HETATM   33  C   UNK N   1      33.863  21.942  -4.881  0.00  0.00     0.110 C 
BRANCH  31  34
HETATM   34  O   UNK N   1      35.655  18.703  -4.447  0.00  0.00    -0.395 OA
HETATM   35  H   UNK N   1      36.413  18.543  -3.864  0.00  0.00     0.210 HD
ENDBRANCH  31  34
ENDBRANCH  25  28
ENDBRANCH  18  25
TORSDOF 4
ENDMDL
MODEL 6
REMARK VINA RESULT:      -8.4     10.301     12.699
REMARK  4 active torsions:
REMARK  status: ('A' for Active; 'I' for Inactive)
REMARK    1  A    between atoms: C_7  and  O_9 
REMARK    2  A    between atoms: C_19  and  S_22 
REMARK    3  A    between atoms: S_22  and  N_25 
REMARK    4  A    between atoms: C_28  and  O_29 
ROOT
HETATM    1  C   UNK N   1      30.128  18.078   9.199  0.00  0.00     0.013 A 
HETATM    2  C   UNK N   1      28.836  18.609   9.062  0.00  0.00     0.001 A 
HETATM    3  C   UNK N   1      28.187  18.583   7.810  0.00  0.00     0.002 A 
HETATM    4  C   UNK N   1      28.828  18.031   6.686  0.00  0.00     0.030 A 
HETATM    5  C   UNK N   1      30.110  17.514   6.852  0.00  0.00     0.042 A 
HETATM    6  C   UNK N   1      30.743  17.532   8.072  0.00  0.00     0.008 A 
HETATM    7  C   UNK N   1      32.095  16.897   7.988  0.00  0.00     0.126 A 
HETATM    8  C   UNK N   1      33.189  17.901   8.324  0.00  0.00     0.058 C 
HETATM    9  C   UNK N   1      32.092  16.509   6.510  0.00  0.00     0.065 A 
HETATM   10  N   UNK N   1      30.901  16.917   5.869  0.00  0.00    -0.355 N 
HETATM   11  C   UNK N   1      33.083  15.841   5.880  0.00  0.00     0.070 A 
HETATM   12  C   UNK N   1      33.190  15.438   4.464  0.00  0.00     0.259 A 
HETATM   13  O   UNK N   1      32.369  15.658   3.591  0.00  0.00    -0.267 OA
HETATM   14  N   UNK N   1      34.350  14.769   4.245  0.00  0.00    -0.322 N 
HETATM   15  C   UNK N   1      35.024  14.694   5.485  0.00  0.00     0.046 A 
HETATM   16  C   UNK N   1      34.305  15.319   6.476  0.00  0.00     0.010 A 
HETATM   17  C   UNK N   1      34.731  15.320   7.791  0.00  0.00     0.039 A 
HETATM   18  C   UNK N   1      35.921  14.677   8.116  0.00  0.00     0.075 A 
HETATM   19  C   UNK N   1      36.682  14.040   7.105  0.00  0.00     0.027 A 
HETATM   20  C   UNK N   1      36.232  14.049   5.765  0.00  0.00     0.032 A 
HETATM   21  H   UNK N   1      30.674  16.805   4.917  0.00  0.00     0.166 HD
HETATM   22  H   UNK N   1      34.665  14.407   3.386  0.00  0.00     0.169 HD
ENDROOT
BRANCH   7  23
HETATM   23  O   UNK N   1      32.155  15.781   8.824  0.00  0.00    -0.379 OA
HETATM   24  H   UNK N   1      32.724  15.097   9.211  0.00  0.00     0.211 HD
ENDBRANCH   7  23
BRANCH  18  25
HETATM   25  S   UNK N   1      36.373  14.605   9.843  0.00  0.00     0.243 S 
HETATM   26  O   UNK N   1      37.829  14.137  10.003  0.00  0.00    -0.206 OA
HETATM   27  O   UNK N   1      36.422  15.991  10.505  0.00  0.00    -0.206 OA
BRANCH  25  28
HETATM   28  N   UNK N   1      35.393  13.552  10.902  0.00  0.00    -0.206 NA
HETATM   29  C   UNK N   1      34.935  14.231  12.122  0.00  0.00     0.110 C 
HETATM   30  C   UNK N   1      36.046  14.359  13.161  0.00  0.00     0.047 C 
HETATM   31  C   UNK N   1      36.575  12.975  13.498  0.00  0.00     0.120 C 
HETATM   32  C   UNK N   1      37.131  12.340  12.234  0.00  0.00     0.047 C 
HETATM   33  C   UNK N   1      36.033  12.253  11.169  0.00  0.00     0.110 C 
BRANCH  31  34
HETATM   34  O   UNK N   1      37.581  13.078  14.457  0.00  0.00    -0.395 OA
HETATM   35  H   UNK N   1      38.235  13.743  14.726  0.00  0.00     0.210 HD
ENDBRANCH  31  34
ENDBRANCH  25  28
ENDBRANCH  18  25
TORSDOF 4
ENDMDL
MODEL 7
REMARK VINA RESULT:      -8.4      1.601      1.969
REMARK  4 active torsions:
REMARK  status: ('A' for Active; 'I' for Inactive)
REMARK    1  A    between atoms: C_7  and  O_9 
REMARK    2  A    between atoms: C_19  and  S_22 
REMARK    3  A    between atoms: S_22  and  N_25 
REMARK    4  A    between atoms: C_28  and  O_29 
ROOT
HETATM    1  C   UNK N   1      27.101  18.048   5.282  0.00  0.00     0.013 A 
HETATM    2  C   UNK N   1      28.233  18.870   5.406  0.00  0.00     0.001 A 
HETATM    3  C   UNK N   1      28.188  20.210   4.968  0.00  0.00     0.002 A 
HETATM    4  C   UNK N   1      27.014  20.736   4.399  0.00  0.00     0.030 A 
HETATM    5  C   UNK N   1      25.909  19.897   4.288  0.00  0.00     0.042 A 
HETATM    6  C   UNK N   1      25.946  18.592   4.719  0.00  0.00     0.008 A 
HETATM    7  C   UNK N   1      24.628  17.917   4.510  0.00  0.00     0.126 A 
HETATM    8  C   UNK N   1      24.766  16.743   3.548  0.00  0.00     0.058 C 
HETATM    9  C   UNK N   1      23.849  19.082   3.902  0.00  0.00     0.065 A 
HETATM   10  N   UNK N   1      24.658  20.233   3.767  0.00  0.00    -0.355 N 
HETATM   11  C   UNK N   1      22.545  19.046   3.550  0.00  0.00     0.070 A 
HETATM   12  C   UNK N   1      21.708  20.098   2.941  0.00  0.00     0.259 A 
HETATM   13  O   UNK N   1      22.074  21.219   2.634  0.00  0.00    -0.267 OA
HETATM   14  N   UNK N   1      20.440  19.653   2.759  0.00  0.00    -0.322 N 
HETATM   15  C   UNK N   1      20.393  18.328   3.247  0.00  0.00     0.046 A 
HETATM   16  C   UNK N   1      21.622  17.934   3.722  0.00  0.00     0.010 A 
HETATM   17  C   UNK N   1      21.809  16.697   4.311  0.00  0.00     0.039 A 
HETATM   18  C   UNK N   1      20.727  15.829   4.420  0.00  0.00     0.075 A 
HETATM   19  C   UNK N   1      19.458  16.213   3.922  0.00  0.00     0.027 A 
HETATM   20  C   UNK N   1      19.284  17.482   3.322  0.00  0.00     0.032 A 
HETATM   21  H   UNK N   1      24.393  21.099   3.381  0.00  0.00     0.166 HD
HETATM   22  H   UNK N   1      19.693  20.155   2.360  0.00  0.00     0.169 HD
ENDROOT
BRANCH   7  23
HETATM   23  O   UNK N   1      24.096  17.510   5.734  0.00  0.00    -0.379 OA
HETATM   24  H   UNK N   1      24.285  17.295   6.661  0.00  0.00     0.211 HD
ENDBRANCH   7  23
BRANCH  18  25
HETATM   25  S   UNK N   1      20.990  14.291   5.290  0.00  0.00     0.243 S 
HETATM   26  O   UNK N   1      19.675  13.787   5.909  0.00  0.00    -0.206 OA
HETATM   27  O   UNK N   1      21.352  13.129   4.352  0.00  0.00    -0.206 OA
BRANCH  25  28
HETATM   28  N   UNK N   1      22.192  14.294   6.611  0.00  0.00    -0.206 NA
HETATM   29  C   UNK N   1      22.427  12.959   7.177  0.00  0.00     0.110 C 
HETATM   30  C   UNK N   1      21.300  12.522   8.110  0.00  0.00     0.047 C 
HETATM   31  C   UNK N   1      21.151  13.545   9.223  0.00  0.00     0.120 C 
HETATM   32  C   UNK N   1      20.811  14.893   8.611  0.00  0.00     0.047 C 
HETATM   33  C   UNK N   1      21.915  15.315   7.635  0.00  0.00     0.110 C 
BRANCH  31  34
HETATM   34  O   UNK N   1      20.134  13.150  10.090  0.00  0.00    -0.395 OA
HETATM   35  H   UNK N   1      19.600  13.563  10.787  0.00  0.00     0.210 HD
ENDBRANCH  31  34
ENDBRANCH  25  28
ENDBRANCH  18  25
TORSDOF 4
ENDMDL
MODEL 8
REMARK VINA RESULT:      -8.3      3.277      5.281
REMARK  4 active torsions:
REMARK  status: ('A' for Active; 'I' for Inactive)
REMARK    1  A    between atoms: C_7  and  O_9 
REMARK    2  A    between atoms: C_19  and  S_22 
REMARK    3  A    between atoms: S_22  and  N_25 
REMARK    4  A    between atoms: C_28  and  O_29 
ROOT
HETATM    1  C   UNK N   1      28.508  15.714   5.687  0.00  0.00     0.013 A 
HETATM    2  C   UNK N   1      29.907  15.727   5.799  0.00  0.00     0.001 A 
HETATM    3  C   UNK N   1      30.652  16.795   5.258  0.00  0.00     0.002 A 
HETATM    4  C   UNK N   1      30.004  17.854   4.596  0.00  0.00     0.030 A 
HETATM    5  C   UNK N   1      28.617  17.813   4.499  0.00  0.00     0.042 A 
HETATM    6  C   UNK N   1      27.886  16.777   5.030  0.00  0.00     0.008 A 
HETATM    7  C   UNK N   1      26.420  16.983   4.813  0.00  0.00     0.126 A 
HETATM    8  C   UNK N   1      25.837  15.870   3.952  0.00  0.00     0.058 C 
HETATM    9  C   UNK N   1      26.467  18.324   4.082  0.00  0.00     0.065 A 
HETATM   10  N   UNK N   1      27.795  18.768   3.896  0.00  0.00    -0.355 N 
HETATM   11  C   UNK N   1      25.386  19.025   3.674  0.00  0.00     0.070 A 
HETATM   12  C   UNK N   1      25.320  20.308   2.948  0.00  0.00     0.259 A 
HETATM   13  O   UNK N   1      26.271  20.971   2.573  0.00  0.00    -0.267 OA
HETATM   14  N   UNK N   1      24.029  20.673   2.741  0.00  0.00    -0.322 N 
HETATM   15  C   UNK N   1      23.219  19.675   3.328  0.00  0.00     0.046 A 
HETATM   16  C   UNK N   1      23.988  18.682   3.888  0.00  0.00     0.010 A 
HETATM   17  C   UNK N   1      23.419  17.628   4.579  0.00  0.00     0.039 A 
HETATM   18  C   UNK N   1      22.035  17.569   4.704  0.00  0.00     0.075 A 
HETATM   19  C   UNK N   1      21.227  18.575   4.120  0.00  0.00     0.027 A 
HETATM   20  C   UNK N   1      21.825  19.647   3.416  0.00  0.00     0.032 A 
HETATM   21  H   UNK N   1      28.085  19.586   3.433  0.00  0.00     0.166 HD
HETATM   22  H   UNK N   1      23.716  21.479   2.271  0.00  0.00     0.169 HD
ENDROOT
BRANCH   7  23
HETATM   23  O   UNK N   1      25.760  17.076   6.039  0.00  0.00    -0.379 OA
HETATM   24  H   UNK N   1      25.713  17.532   6.894  0.00  0.00     0.211 HD
ENDBRANCH   7  23
BRANCH  18  25
HETATM   25  S   UNK N   1      21.353  16.252   5.701  0.00  0.00     0.243 S 
HETATM   26  O   UNK N   1      22.323  15.871   6.832  0.00  0.00    -0.206 OA
HETATM   27  O   UNK N   1      20.112  16.687   6.495  0.00  0.00    -0.206 OA
BRANCH  25  28
HETATM   28  N   UNK N   1      20.938  14.728   4.868  0.00  0.00    -0.206 NA
HETATM   29  C   UNK N   1      22.067  14.153   4.126  0.00  0.00     0.110 C 
HETATM   30  C   UNK N   1      22.324  14.883   2.810  0.00  0.00     0.047 C 
HETATM   31  C   UNK N   1      21.064  14.840   1.963  0.00  0.00     0.120 C 
HETATM   32  C   UNK N   1      19.940  15.530   2.717  0.00  0.00     0.047 C 
HETATM   33  C   UNK N   1      19.710  14.832   4.062  0.00  0.00     0.110 C 
BRANCH  31  34
HETATM   34  O   UNK N   1      21.290  15.492   0.752  0.00  0.00    -0.395 OA
HETATM   35  H   UNK N   1      21.867  15.370  -0.019  0.00  0.00     0.210 HD
ENDBRANCH  31  34
ENDBRANCH  25  28
ENDBRANCH  18  25
TORSDOF 4
ENDMDL
MODEL 9
REMARK VINA RESULT:      -8.2     13.589     16.371
REMARK  4 active torsions:
REMARK  status: ('A' for Active; 'I' for Inactive)
REMARK    1  A    between atoms: C_7  and  O_9 
REMARK    2  A    between atoms: C_19  and  S_22 
REMARK    3  A    between atoms: S_22  and  N_25 
REMARK    4  A    between atoms: C_28  and  O_29 
ROOT
HETATM    1  C   UNK N   1      32.778  19.921  -6.732  0.00  0.00     0.013 A 
HETATM    2  C   UNK N   1      33.934  19.174  -6.457  0.00  0.00     0.001 A 
HETATM    3  C   UNK N   1      34.471  19.152  -5.152  0.00  0.00     0.002 A 
HETATM    4  C   UNK N   1      33.858  19.881  -4.117  0.00  0.00     0.030 A 
HETATM    5  C   UNK N   1      32.714  20.614  -4.421  0.00  0.00     0.042 A 
HETATM    6  C   UNK N   1      32.185  20.633  -5.689  0.00  0.00     0.008 A 
HETATM    7  C   UNK N   1      30.947  21.471  -5.745  0.00  0.00     0.126 A 
HETATM    8  C   UNK N   1      31.133  22.652  -6.689  0.00  0.00     0.058 C 
HETATM    9  C   UNK N   1      30.875  21.900  -4.280  0.00  0.00     0.065 A 
HETATM   10  N   UNK N   1      31.960  21.386  -3.535  0.00  0.00    -0.355 N 
HETATM   11  C   UNK N   1      29.896  22.658  -3.739  0.00  0.00     0.070 A 
HETATM   12  C   UNK N   1      29.742  23.143  -2.354  0.00  0.00     0.259 A 
HETATM   13  O   UNK N   1      30.512  22.938  -1.432  0.00  0.00    -0.267 OA
HETATM   14  N   UNK N   1      28.603  23.868  -2.227  0.00  0.00    -0.322 N 
HETATM   15  C   UNK N   1      27.971  23.870  -3.490  0.00  0.00     0.046 A 
HETATM   16  C   UNK N   1      28.708  23.165  -4.411  0.00  0.00     0.010 A 
HETATM   17  C   UNK N   1      28.260  22.972  -5.705  0.00  0.00     0.039 A 
HETATM   18  C   UNK N   1      27.034  23.511  -6.083  0.00  0.00     0.075 A 
HETATM   19  C   UNK N   1      26.268  24.253  -5.151  0.00  0.00     0.027 A 
HETATM   20  C   UNK N   1      26.742  24.442  -3.832  0.00  0.00     0.032 A 
HETATM   21  H   UNK N   1      32.148  21.542  -2.582  0.00  0.00     0.166 HD
HETATM   22  H   UNK N   1      28.278  24.311  -1.410  0.00  0.00     0.169 HD
ENDROOT
BRANCH   7  23
HETATM   23  O   UNK N   1      29.853  20.690  -6.118  0.00  0.00    -0.379 OA
HETATM   24  H   UNK N   1      29.496  19.791  -6.195  0.00  0.00     0.211 HD
ENDBRANCH   7  23
BRANCH  18  25
HETATM   25  S   UNK N   1      26.444  23.139  -7.728  0.00  0.00     0.243 S 
HETATM   26  O   UNK N   1      27.007  21.793  -8.215  0.00  0.00    -0.206 OA
HETATM   27  O   UNK N   1      24.931  22.873  -7.773  0.00  0.00    -0.206 OA
BRANCH  25  28
HETATM   28  N   UNK N   1      26.806  24.324  -9.014  0.00  0.00    -0.206 NA
HETATM   29  C   UNK N   1      28.183  24.835  -8.953  0.00  0.00     0.110 C 
HETATM   30  C   UNK N   1      28.364  25.873  -7.848  0.00  0.00     0.047 C 
HETATM   31  C   UNK N   1      27.390  27.017  -8.076  0.00  0.00     0.120 C 
HETATM   32  C   UNK N   1      25.973  26.472  -8.035  0.00  0.00     0.047 C 
HETATM   33  C   UNK N   1      25.798  25.393  -9.109  0.00  0.00     0.110 C 
BRANCH  31  34
HETATM   34  O   UNK N   1      27.556  27.979  -7.081  0.00  0.00    -0.395 OA
HETATM   35  H   UNK N   1      27.949  28.017  -6.195  0.00  0.00     0.210 HD
ENDBRANCH  31  34
ENDBRANCH  25  28
ENDBRANCH  18  25
TORSDOF 4
ENDMDL
