REMARK  4 active torsions:
REMARK  status: ('A' for Active; 'I' for Inactive)
REMARK    1  A    between atoms: C_7  and  O_9 
REMARK    2  A    between atoms: C_19  and  S_22 
REMARK    3  A    between atoms: S_22  and  N_25 
REMARK    4  A    between atoms: C_28  and  O_29 
ROOT
HETATM    1  C   UNK N   1      -2.282  -3.639  -0.090  0.00  0.00     0.013 A 
HETATM    2  C   UNK N   1      -3.290  -4.611  -0.186  0.00  0.00     0.001 A 
HETATM    3  C   UNK N   1      -4.647  -4.227  -0.203  0.00  0.00     0.002 A 
HETATM    4  C   UNK N   1      -5.005  -2.869  -0.119  0.00  0.00     0.030 A 
HETATM    5  C   UNK N   1      -3.984  -1.928  -0.023  0.00  0.00     0.042 A 
HETATM    6  C   UNK N   1      -2.660  -2.298  -0.012  0.00  0.00     0.008 A 
HETATM    7  C   UNK N   1      -1.766  -1.102   0.074  0.00  0.00     0.126 A 
HETATM    8  C   UNK N   1      -0.938  -1.133   1.352  0.00  0.00     0.058 C 
HETATM    9  C   UNK N   1      -2.828  -0.003   0.092  0.00  0.00     0.065 A 
HETATM   10  N   UNK N   1      -4.133  -0.542   0.057  0.00  0.00    -0.355 N 
HETATM   11  C   UNK N   1      -2.573   1.324   0.117  0.00  0.00     0.070 A 
HETATM   12  C   UNK N   1      -3.515   2.459   0.157  0.00  0.00     0.259 A 
HETATM   13  O   UNK N   1      -4.731   2.383   0.184  0.00  0.00    -0.267 OA
HETATM   14  N   UNK N   1      -2.842   3.637   0.160  0.00  0.00    -0.322 N 
HETATM   15  C   UNK N   1      -1.465   3.326   0.104  0.00  0.00     0.046 A 
HETATM   16  C   UNK N   1      -1.267   1.966   0.079  0.00  0.00     0.010 A 
HETATM   17  C   UNK N   1      -0.003   1.419  -0.041  0.00  0.00     0.039 A 
HETATM   18  C   UNK N   1       1.095   2.268  -0.133  0.00  0.00     0.075 A 
HETATM   19  C   UNK N   1       0.911   3.672  -0.094  0.00  0.00     0.027 A 
HETATM   20  C   UNK N   1      -0.389   4.215   0.030  0.00  0.00     0.032 A 
HETATM   21  H   UNK N   1      -4.980  -0.041   0.085  0.00  0.00     0.166 HD
HETATM   22  H   UNK N   1      -3.237   4.538   0.196  0.00  0.00     0.169 HD
ENDROOT
BRANCH   7  23
HETATM   23  O   UNK N   1      -0.952  -1.027  -1.057  0.00  0.00    -0.379 OA
HETATM   24  H   UNK N   1      -0.625  -1.491  -1.844  0.00  0.00     0.211 HD
ENDBRANCH   7  23
BRANCH  18  25
HETATM   25  S   UNK N   1       2.695   1.519  -0.402  0.00  0.00     0.243 S 
HETATM   26  O   UNK N   1       2.652   0.568  -1.610  0.00  0.00    -0.206 OA
HETATM   27  O   UNK N   1       3.761   2.532  -0.847  0.00  0.00    -0.206 OA
BRANCH  25  28
HETATM   28  N   UNK N   1       3.394   0.579   0.946  0.00  0.00    -0.206 NA
HETATM   29  C   UNK N   1       4.841   0.783   1.099  0.00  0.00     0.110 C 
HETATM   30  C   UNK N   1       5.645   0.014   0.054  0.00  0.00     0.047 C 
HETATM   31  C   UNK N   1       5.311  -1.464   0.157  0.00  0.00     0.120 C 
HETATM   32  C   UNK N   1       3.826  -1.652  -0.104  0.00  0.00     0.047 C 
HETATM   33  C   UNK N   1       3.012  -0.843   0.912  0.00  0.00     0.110 C 
BRANCH  31  34
HETATM   34  O   UNK N   1       6.050  -2.179  -0.784  0.00  0.00    -0.395 OA
HETATM   35  H   UNK N   1       5.876  -2.874  -1.438  0.00  0.00     0.210 HD
ENDBRANCH  31  34
ENDBRANCH  25  28
ENDBRANCH  18  25
TORSDOF 4
