MODEL 1
REMARK VINA RESULT:      -5.3      0.000      0.000
REMARK  21 active torsions:
REMARK  status: ('A' for Active; 'I' for Inactive)
REMARK    1  A    between atoms: C_2  and  N_1 
REMARK    2  A    between atoms: C_2  and  C_3 
REMARK    3  A    between atoms: C_2  and  C_5 
REMARK    4  A    between atoms: C_3  and  O_7 
REMARK    5  A    between atoms: C_5  and  O_6 
REMARK    6  A    between atoms: O_6  and  S_24 
REMARK    7  A    between atoms: C_8  and  C_9 
REMARK    8  A    between atoms: C_8  and  S_24 
REMARK    9  A    between atoms: C_9  and  C_10 
REMARK   10  A    between atoms: C_10  and  C_11 
REMARK   11  A    between atoms: C_11  and  C_12 
REMARK   12  A    between atoms: C_12  and  C_13 
REMARK   13  A    between atoms: C_13  and  C_14 
REMARK   14  A    between atoms: C_14  and  C_15 
REMARK   15  A    between atoms: C_15  and  C_16 
REMARK   16  A    between atoms: C_16  and  C_17 
REMARK   17  A    between atoms: C_17  and  C_18 
REMARK   18  A    between atoms: C_18  and  C_19 
REMARK   19  A    between atoms: C_19  and  C_20 
REMARK   20  A    between atoms: C_20  and  C_21 
REMARK   21  A    between atoms: C_21  and  C_22 
ROOT
HETATM    1  C   UNK N   1      35.825  14.795  12.435  0.00  0.00     0.017 C 
ENDROOT
BRANCH   1   2
HETATM    2  C   UNK N   1      36.248  14.430  11.000  0.00  0.00     0.171 C 
BRANCH   2   3
HETATM    3  S   UNK N   1      35.762  15.723   9.789  0.00  0.00     0.265 S 
HETATM    4  O   UNK N   1      34.437  15.304  10.441  0.00  0.00    -0.199 OA
HETATM    5  O   UNK N   1      35.588  17.080  10.483  0.00  0.00    -0.199 OA
BRANCH   3   6
HETATM    6  O   UNK N   1      34.668  15.779   8.472  0.00  0.00    -0.273 OA
BRANCH   6   7
HETATM    7  C   UNK N   1      33.411  16.134   8.957  0.00  0.00     0.225 C 
BRANCH   7   8
HETATM    8  C   UNK N   1      32.845  17.210   8.036  0.00  0.00     0.198 C 
BRANCH   8   9
HETATM    9  N   UNK N   1      31.895  18.029   8.773  0.00  0.00    -0.416 N 
HETATM   10  H   UNK N   1      31.514  18.974   8.720  0.00  0.00     0.150 HD
HETATM   11  H   UNK N   1      31.502  17.516   9.561  0.00  0.00     0.150 HD
ENDBRANCH   8   9
BRANCH   8  12
HETATM   12  C   UNK N   1      33.958  18.059   7.469  0.00  0.00     0.165 C 
HETATM   13  O   UNK N   1      34.228  18.021   6.281  0.00  0.00    -0.648 OA
BRANCH  12  14
HETATM   14  O   UNK N   1      34.671  18.864   8.285  0.00  0.00    -0.775 OA
HETATM   15  H   UNK N   1      34.652  19.766   8.537  0.00  0.00     0.167 HD
ENDBRANCH  12  14
ENDBRANCH   8  12
ENDBRANCH   7   8
ENDBRANCH   6   7
ENDBRANCH   3   6
ENDBRANCH   2   3
ENDBRANCH   1   2
BRANCH   1  16
HETATM   16  C   UNK N   1      35.497  13.570  13.277  0.00  0.00     0.001 C 
BRANCH  16  17
HETATM   17  C   UNK N   1      36.739  12.764  13.623  0.00  0.00     0.000 C 
BRANCH  17  18
HETATM   18  C   UNK N   1      37.208  13.047  15.036  0.00  0.00     0.000 C 
BRANCH  18  19
HETATM   19  C   UNK N   1      36.019  13.527  15.847  0.00  0.00     0.000 C 
BRANCH  19  20
HETATM   20  C   UNK N   1      36.429  14.643  16.788  0.00  0.00     0.000 C 
BRANCH  20  21
HETATM   21  C   UNK N   1      35.686  14.531  18.115  0.00  0.00     0.000 C 
BRANCH  21  22
HETATM   22  C   UNK N   1      34.919  13.221  18.249  0.00  0.00     0.000 C 
BRANCH  22  23
HETATM   23  C   UNK N   1      35.349  12.478  19.502  0.00  0.00     0.000 C 
BRANCH  23  24
HETATM   24  C   UNK N   1      35.209  10.981  19.308  0.00  0.00     0.000 C 
BRANCH  24  25
HETATM   25  C   UNK N   1      36.028  10.550  18.105  0.00  0.00     0.000 C 
BRANCH  25  26
HETATM   26  C   UNK N   1      35.149   9.797  17.129  0.00  0.00     0.000 C 
BRANCH  26  27
HETATM   27  C   UNK N   1      35.802   9.803  15.762  0.00  0.00    -0.000 C 
BRANCH  27  28
HETATM   28  C   UNK N   1      34.739   9.742  14.687  0.00  0.00    -0.005 C 
HETATM   29  C   UNK N   1      33.723  10.841  14.922  0.00  0.00     0.005 C 
ENDBRANCH  27  28
ENDBRANCH  26  27
ENDBRANCH  25  26
ENDBRANCH  24  25
ENDBRANCH  23  24
ENDBRANCH  22  23
ENDBRANCH  21  22
ENDBRANCH  20  21
ENDBRANCH  19  20
ENDBRANCH  18  19
ENDBRANCH  17  18
ENDBRANCH  16  17
ENDBRANCH   1  16
TORSDOF 21
ENDMDL
MODEL 2
REMARK VINA RESULT:      -4.9     18.951     23.466
REMARK  21 active torsions:
REMARK  status: ('A' for Active; 'I' for Inactive)
REMARK    1  A    between atoms: C_2  and  N_1 
REMARK    2  A    between atoms: C_2  and  C_3 
REMARK    3  A    between atoms: C_2  and  C_5 
REMARK    4  A    between atoms: C_3  and  O_7 
REMARK    5  A    between atoms: C_5  and  O_6 
REMARK    6  A    between atoms: O_6  and  S_24 
REMARK    7  A    between atoms: C_8  and  C_9 
REMARK    8  A    between atoms: C_8  and  S_24 
REMARK    9  A    between atoms: C_9  and  C_10 
REMARK   10  A    between atoms: C_10  and  C_11 
REMARK   11  A    between atoms: C_11  and  C_12 
REMARK   12  A    between atoms: C_12  and  C_13 
REMARK   13  A    between atoms: C_13  and  C_14 
REMARK   14  A    between atoms: C_14  and  C_15 
REMARK   15  A    between atoms: C_15  and  C_16 
REMARK   16  A    between atoms: C_16  and  C_17 
REMARK   17  A    between atoms: C_17  and  C_18 
REMARK   18  A    between atoms: C_18  and  C_19 
REMARK   19  A    between atoms: C_19  and  C_20 
REMARK   20  A    between atoms: C_20  and  C_21 
REMARK   21  A    between atoms: C_21  and  C_22 
ROOT
HETATM    1  C   UNK N   1      27.797  24.386  -3.535  0.00  0.00     0.017 C 
ENDROOT
BRANCH   1   2
HETATM    2  C   UNK N   1      28.185  23.535  -2.312  0.00  0.00     0.171 C 
BRANCH   2   3
HETATM    3  S   UNK N   1      29.715  22.563  -2.607  0.00  0.00     0.265 S 
HETATM    4  O   UNK N   1      30.011  23.929  -3.243  0.00  0.00    -0.199 OA
HETATM    5  O   UNK N   1      30.784  22.902  -1.562  0.00  0.00    -0.199 OA
BRANCH   3   6
HETATM    6  O   UNK N   1      30.610  22.134  -4.003  0.00  0.00    -0.273 OA
BRANCH   6   7
HETATM    7  C   UNK N   1      31.071  20.828  -3.848  0.00  0.00     0.225 C 
BRANCH   7   8
HETATM    8  C   UNK N   1      32.595  20.866  -3.877  0.00  0.00     0.198 C 
BRANCH   8   9
HETATM    9  N   UNK N   1      33.104  20.976  -2.519  0.00  0.00    -0.416 N 
HETATM   10  H   UNK N   1      33.598  20.386  -1.849  0.00  0.00     0.150 HD
HETATM   11  H   UNK N   1      32.915  21.898  -2.129  0.00  0.00     0.150 HD
ENDBRANCH   8   9
BRANCH   8  12
HETATM   12  C   UNK N   1      33.141  19.633  -4.557  0.00  0.00     0.165 C 
HETATM   13  O   UNK N   1      33.474  19.663  -5.730  0.00  0.00    -0.648 OA
BRANCH  12  14
HETATM   14  O   UNK N   1      33.257  18.480  -3.865  0.00  0.00    -0.775 OA
HETATM   15  H   UNK N   1      33.398  18.234  -2.972  0.00  0.00     0.167 HD
ENDBRANCH  12  14
ENDBRANCH   8  12
ENDBRANCH   7   8
ENDBRANCH   6   7
ENDBRANCH   3   6
ENDBRANCH   2   3
ENDBRANCH   1   2
BRANCH   1  16
HETATM   16  C   UNK N   1      26.357  24.154  -3.974  0.00  0.00     0.001 C 
BRANCH  16  17
HETATM   17  C   UNK N   1      26.255  23.839  -5.458  0.00  0.00     0.000 C 
BRANCH  17  18
HETATM   18  C   UNK N   1      27.621  23.606  -6.072  0.00  0.00     0.000 C 
BRANCH  18  19
HETATM   19  C   UNK N   1      27.511  22.457  -7.058  0.00  0.00     0.000 C 
BRANCH  19  20
HETATM   20  C   UNK N   1      26.063  22.210  -7.431  0.00  0.00     0.000 C 
BRANCH  20  21
HETATM   21  C   UNK N   1      25.779  22.698  -8.848  0.00  0.00     0.000 C 
BRANCH  21  22
HETATM   22  C   UNK N   1      25.187  24.101  -8.876  0.00  0.00     0.000 C 
BRANCH  22  23
HETATM   23  C   UNK N   1      25.669  24.858 -10.102  0.00  0.00     0.000 C 
BRANCH  23  24
HETATM   24  C   UNK N   1      26.433  26.102  -9.693  0.00  0.00     0.000 C 
BRANCH  24  25
HETATM   25  C   UNK N   1      26.250  26.341  -8.206  0.00  0.00     0.000 C 
BRANCH  25  26
HETATM   26  C   UNK N   1      27.410  27.152  -7.670  0.00  0.00     0.000 C 
BRANCH  26  27
HETATM   27  C   UNK N   1      27.118  27.554  -6.239  0.00  0.00    -0.000 C 
BRANCH  27  28
HETATM   28  C   UNK N   1      25.649  27.344  -5.939  0.00  0.00    -0.005 C 
HETATM   29  C   UNK N   1      25.362  27.764  -4.513  0.00  0.00     0.005 C 
ENDBRANCH  27  28
ENDBRANCH  26  27
ENDBRANCH  25  26
ENDBRANCH  24  25
ENDBRANCH  23  24
ENDBRANCH  22  23
ENDBRANCH  21  22
ENDBRANCH  20  21
ENDBRANCH  19  20
ENDBRANCH  18  19
ENDBRANCH  17  18
ENDBRANCH  16  17
ENDBRANCH   1  16
TORSDOF 21
ENDMDL
MODEL 3
REMARK VINA RESULT:      -4.8     13.440     15.797
REMARK  21 active torsions:
REMARK  status: ('A' for Active; 'I' for Inactive)
REMARK    1  A    between atoms: C_2  and  N_1 
REMARK    2  A    between atoms: C_2  and  C_3 
REMARK    3  A    between atoms: C_2  and  C_5 
REMARK    4  A    between atoms: C_3  and  O_7 
REMARK    5  A    between atoms: C_5  and  O_6 
REMARK    6  A    between atoms: O_6  and  S_24 
REMARK    7  A    between atoms: C_8  and  C_9 
REMARK    8  A    between atoms: C_8  and  S_24 
REMARK    9  A    between atoms: C_9  and  C_10 
REMARK   10  A    between atoms: C_10  and  C_11 
REMARK   11  A    between atoms: C_11  and  C_12 
REMARK   12  A    between atoms: C_12  and  C_13 
REMARK   13  A    between atoms: C_13  and  C_14 
REMARK   14  A    between atoms: C_14  and  C_15 
REMARK   15  A    between atoms: C_15  and  C_16 
REMARK   16  A    between atoms: C_16  and  C_17 
REMARK   17  A    between atoms: C_17  and  C_18 
REMARK   18  A    between atoms: C_18  and  C_19 
REMARK   19  A    between atoms: C_19  and  C_20 
REMARK   20  A    between atoms: C_20  and  C_21 
REMARK   21  A    between atoms: C_21  and  C_22 
ROOT
HETATM    1  C   UNK N   1      19.675  15.678   5.775  0.00  0.00     0.017 C 
ENDROOT
BRANCH   1   2
HETATM    2  C   UNK N   1      20.423  15.356   4.469  0.00  0.00     0.171 C 
BRANCH   2   3
HETATM    3  S   UNK N   1      20.389  16.765   3.291  0.00  0.00     0.265 S 
HETATM    4  O   UNK N   1      21.836  16.255   3.223  0.00  0.00    -0.199 OA
HETATM    5  O   UNK N   1      20.225  16.265   1.850  0.00  0.00    -0.199 OA
BRANCH   3   6
HETATM    6  O   UNK N   1      21.286  18.217   3.134  0.00  0.00    -0.273 OA
BRANCH   6   7
HETATM    7  C   UNK N   1      20.396  19.289   3.161  0.00  0.00     0.225 C 
BRANCH   7   8
HETATM    8  C   UNK N   1      21.009  20.422   2.343  0.00  0.00     0.198 C 
BRANCH   8   9
HETATM    9  N   UNK N   1      22.406  20.586   2.710  0.00  0.00    -0.416 N 
HETATM   10  H   UNK N   1      23.237  20.000   2.796  0.00  0.00     0.150 HD
HETATM   11  H   UNK N   1      22.612  21.555   2.950  0.00  0.00     0.150 HD
ENDBRANCH   8   9
BRANCH   8  12
HETATM   12  C   UNK N   1      20.872  20.138   0.866  0.00  0.00     0.165 C 
HETATM   13  O   UNK N   1      21.194  20.974   0.038  0.00  0.00    -0.648 OA
BRANCH  12  14
HETATM   14  O   UNK N   1      20.382  18.951   0.452  0.00  0.00    -0.775 OA
HETATM   15  H   UNK N   1      20.683  18.064   0.423  0.00  0.00     0.167 HD
ENDBRANCH  12  14
ENDBRANCH   8  12
ENDBRANCH   7   8
ENDBRANCH   6   7
ENDBRANCH   3   6
ENDBRANCH   2   3
ENDBRANCH   1   2
BRANCH   1  16
HETATM   16  C   UNK N   1      20.609  16.148   6.882  0.00  0.00     0.001 C 
BRANCH  16  17
HETATM   17  C   UNK N   1      20.032  15.892   8.266  0.00  0.00     0.000 C 
BRANCH  17  18
HETATM   18  C   UNK N   1      20.970  15.055   9.113  0.00  0.00     0.000 C 
BRANCH  18  19
HETATM   19  C   UNK N   1      20.164  13.944   9.760  0.00  0.00     0.000 C 
BRANCH  19  20
HETATM   20  C   UNK N   1      21.083  12.901  10.365  0.00  0.00     0.000 C 
BRANCH  20  21
HETATM   21  C   UNK N   1      22.545  13.286  10.163  0.00  0.00     0.000 C 
BRANCH  21  22
HETATM   22  C   UNK N   1      23.486  12.094  10.276  0.00  0.00     0.000 C 
BRANCH  22  23
HETATM   23  C   UNK N   1      24.146  11.807   8.938  0.00  0.00     0.000 C 
BRANCH  23  24
HETATM   24  C   UNK N   1      23.254  10.929   8.082  0.00  0.00     0.000 C 
BRANCH  24  25
HETATM   25  C   UNK N   1      23.275  11.433   6.651  0.00  0.00     0.000 C 
BRANCH  25  26
HETATM   26  C   UNK N   1      22.684  12.825   6.588  0.00  0.00     0.000 C 
BRANCH  26  27
HETATM   27  C   UNK N   1      23.625  13.732   5.824  0.00  0.00    -0.000 C 
BRANCH  27  28
HETATM   28  C   UNK N   1      23.970  14.939   6.670  0.00  0.00    -0.005 C 
HETATM   29  C   UNK N   1      24.177  16.140   5.772  0.00  0.00     0.005 C 
ENDBRANCH  27  28
ENDBRANCH  26  27
ENDBRANCH  25  26
ENDBRANCH  24  25
ENDBRANCH  23  24
ENDBRANCH  22  23
ENDBRANCH  21  22
ENDBRANCH  20  21
ENDBRANCH  19  20
ENDBRANCH  18  19
ENDBRANCH  17  18
ENDBRANCH  16  17
ENDBRANCH   1  16
TORSDOF 21
ENDMDL
MODEL 4
REMARK VINA RESULT:      -4.7      9.879     12.888
REMARK  21 active torsions:
REMARK  status: ('A' for Active; 'I' for Inactive)
REMARK    1  A    between atoms: C_2  and  N_1 
REMARK    2  A    between atoms: C_2  and  C_3 
REMARK    3  A    between atoms: C_2  and  C_5 
REMARK    4  A    between atoms: C_3  and  O_7 
REMARK    5  A    between atoms: C_5  and  O_6 
REMARK    6  A    between atoms: O_6  and  S_24 
REMARK    7  A    between atoms: C_8  and  C_9 
REMARK    8  A    between atoms: C_8  and  S_24 
REMARK    9  A    between atoms: C_9  and  C_10 
REMARK   10  A    between atoms: C_10  and  C_11 
REMARK   11  A    between atoms: C_11  and  C_12 
REMARK   12  A    between atoms: C_12  and  C_13 
REMARK   13  A    between atoms: C_13  and  C_14 
REMARK   14  A    between atoms: C_14  and  C_15 
REMARK   15  A    between atoms: C_15  and  C_16 
REMARK   16  A    between atoms: C_16  and  C_17 
REMARK   17  A    between atoms: C_17  and  C_18 
REMARK   18  A    between atoms: C_18  and  C_19 
REMARK   19  A    between atoms: C_19  and  C_20 
REMARK   20  A    between atoms: C_20  and  C_21 
REMARK   21  A    between atoms: C_21  and  C_22 
ROOT
HETATM    1  C   UNK N   1      26.991  19.772   5.535  0.00  0.00     0.017 C 
ENDROOT
BRANCH   1   2
HETATM    2  C   UNK N   1      27.034  20.277   4.082  0.00  0.00     0.171 C 
BRANCH   2   3
HETATM    3  S   UNK N   1      25.603  19.674   3.101  0.00  0.00     0.265 S 
HETATM    4  O   UNK N   1      24.970  20.225   4.386  0.00  0.00    -0.199 OA
HETATM    5  O   UNK N   1      24.925  20.833   2.360  0.00  0.00    -0.199 OA
BRANCH   3   6
HETATM    6  O   UNK N   1      24.334  18.561   3.395  0.00  0.00    -0.273 OA
BRANCH   6   7
HETATM    7  C   UNK N   1      23.345  19.204   4.136  0.00  0.00     0.225 C 
BRANCH   7   8
HETATM    8  C   UNK N   1      22.040  19.109   3.353  0.00  0.00     0.198 C 
BRANCH   8   9
HETATM    9  N   UNK N   1      21.160  18.144   3.992  0.00  0.00    -0.416 N 
HETATM   10  H   UNK N   1      20.156  17.977   4.074  0.00  0.00     0.150 HD
HETATM   11  H   UNK N   1      21.693  17.440   4.501  0.00  0.00     0.150 HD
ENDBRANCH   8   9
BRANCH   8  12
HETATM   12  C   UNK N   1      21.378  20.463   3.263  0.00  0.00     0.165 C 
HETATM   13  O   UNK N   1      20.246  20.632   3.682  0.00  0.00    -0.648 OA
BRANCH  12  14
HETATM   14  O   UNK N   1      22.040  21.499   2.706  0.00  0.00    -0.775 OA
HETATM   15  H   UNK N   1      22.220  21.803   1.838  0.00  0.00     0.167 HD
ENDBRANCH  12  14
ENDBRANCH   8  12
ENDBRANCH   7   8
ENDBRANCH   6   7
ENDBRANCH   3   6
ENDBRANCH   2   3
ENDBRANCH   1   2
BRANCH   1  16
HETATM   16  C   UNK N   1      27.735  18.456   5.718  0.00  0.00     0.001 C 
BRANCH  16  17
HETATM   17  C   UNK N   1      28.856  18.286   4.705  0.00  0.00     0.000 C 
BRANCH  17  18
HETATM   18  C   UNK N   1      28.956  16.852   4.224  0.00  0.00     0.000 C 
BRANCH  18  19
HETATM   19  C   UNK N   1      30.425  16.479   4.139  0.00  0.00     0.000 C 
BRANCH  19  20
HETATM   20  C   UNK N   1      31.299  17.692   4.389  0.00  0.00     0.000 C 
BRANCH  20  21
HETATM   21  C   UNK N   1      32.750  17.396   4.023  0.00  0.00     0.000 C 
BRANCH  21  22
HETATM   22  C   UNK N   1      33.533  16.785   5.178  0.00  0.00     0.000 C 
BRANCH  22  23
HETATM   23  C   UNK N   1      33.388  17.635   6.429  0.00  0.00     0.000 C 
BRANCH  23  24
HETATM   24  C   UNK N   1      33.114  16.761   7.638  0.00  0.00     0.000 C 
BRANCH  24  25
HETATM   25  C   UNK N   1      31.691  16.238   7.570  0.00  0.00     0.000 C 
BRANCH  25  26
HETATM   26  C   UNK N   1      30.899  16.750   8.754  0.00  0.00     0.000 C 
BRANCH  26  27
HETATM   27  C   UNK N   1      30.395  18.146   8.451  0.00  0.00    -0.000 C 
BRANCH  27  28
HETATM   28  C   UNK N   1      29.311  18.523   9.438  0.00  0.00    -0.005 C 
HETATM   29  C   UNK N   1      28.121  17.606   9.252  0.00  0.00     0.005 C 
ENDBRANCH  27  28
ENDBRANCH  26  27
ENDBRANCH  25  26
ENDBRANCH  24  25
ENDBRANCH  23  24
ENDBRANCH  22  23
ENDBRANCH  21  22
ENDBRANCH  20  21
ENDBRANCH  19  20
ENDBRANCH  18  19
ENDBRANCH  17  18
ENDBRANCH  16  17
ENDBRANCH   1  16
TORSDOF 21
ENDMDL
MODEL 5
REMARK VINA RESULT:      -4.7     11.584     14.549
REMARK  21 active torsions:
REMARK  status: ('A' for Active; 'I' for Inactive)
REMARK    1  A    between atoms: C_2  and  N_1 
REMARK    2  A    between atoms: C_2  and  C_3 
REMARK    3  A    between atoms: C_2  and  C_5 
REMARK    4  A    between atoms: C_3  and  O_7 
REMARK    5  A    between atoms: C_5  and  O_6 
REMARK    6  A    between atoms: O_6  and  S_24 
REMARK    7  A    between atoms: C_8  and  C_9 
REMARK    8  A    between atoms: C_8  and  S_24 
REMARK    9  A    between atoms: C_9  and  C_10 
REMARK   10  A    between atoms: C_10  and  C_11 
REMARK   11  A    between atoms: C_11  and  C_12 
REMARK   12  A    between atoms: C_12  and  C_13 
REMARK   13  A    between atoms: C_13  and  C_14 
REMARK   14  A    between atoms: C_14  and  C_15 
REMARK   15  A    between atoms: C_15  and  C_16 
REMARK   16  A    between atoms: C_16  and  C_17 
REMARK   17  A    between atoms: C_17  and  C_18 
REMARK   18  A    between atoms: C_18  and  C_19 
REMARK   19  A    between atoms: C_19  and  C_20 
REMARK   20  A    between atoms: C_20  and  C_21 
REMARK   21  A    between atoms: C_21  and  C_22 
ROOT
HETATM    1  C   UNK N   1      23.977  18.136   4.856  0.00  0.00     0.017 C 
ENDROOT
BRANCH   1   2
HETATM    2  C   UNK N   1      22.578  17.985   4.233  0.00  0.00     0.171 C 
BRANCH   2   3
HETATM    3  S   UNK N   1      21.285  17.697   5.506  0.00  0.00     0.265 S 
HETATM    4  O   UNK N   1      22.491  16.890   6.008  0.00  0.00    -0.199 OA
HETATM    5  O   UNK N   1      21.496  18.620   6.713  0.00  0.00    -0.199 OA
BRANCH   3   6
HETATM    6  O   UNK N   1      20.546  16.300   6.167  0.00  0.00    -0.273 OA
BRANCH   6   7
HETATM    7  C   UNK N   1      21.336  15.837   7.217  0.00  0.00     0.225 C 
BRANCH   7   8
HETATM    8  C   UNK N   1      20.403  15.308   8.302  0.00  0.00     0.198 C 
BRANCH   8   9
HETATM    9  N   UNK N   1      21.190  14.728   9.378  0.00  0.00    -0.416 N 
HETATM   10  H   UNK N   1      22.149  14.782   9.726  0.00  0.00     0.150 HD
HETATM   11  H   UNK N   1      20.630  14.090   9.942  0.00  0.00     0.150 HD
ENDBRANCH   8   9
BRANCH   8  12
HETATM   12  C   UNK N   1      19.517  16.415   8.821  0.00  0.00     0.165 C 
HETATM   13  O   UNK N   1      18.355  16.195   9.120  0.00  0.00    -0.648 OA
BRANCH  12  14
HETATM   14  O   UNK N   1      20.008  17.665   8.950  0.00  0.00    -0.775 OA
HETATM   15  H   UNK N   1      19.994  18.456   8.449  0.00  0.00     0.167 HD
ENDBRANCH  12  14
ENDBRANCH   8  12
ENDBRANCH   7   8
ENDBRANCH   6   7
ENDBRANCH   3   6
ENDBRANCH   2   3
ENDBRANCH   1   2
BRANCH   1  16
HETATM   16  C   UNK N   1      24.799  19.231   4.187  0.00  0.00     0.001 C 
BRANCH  16  17
HETATM   17  C   UNK N   1      26.140  18.717   3.689  0.00  0.00     0.000 C 
BRANCH  17  18
HETATM   18  C   UNK N   1      27.215  19.781   3.787  0.00  0.00     0.000 C 
BRANCH  18  19
HETATM   19  C   UNK N   1      26.762  20.824   4.792  0.00  0.00     0.000 C 
BRANCH  19  20
HETATM   20  C   UNK N   1      27.745  20.919   5.943  0.00  0.00     0.000 C 
BRANCH  20  21
HETATM   21  C   UNK N   1      27.325  20.003   7.088  0.00  0.00     0.000 C 
BRANCH  21  22
HETATM   22  C   UNK N   1      28.290  18.842   7.294  0.00  0.00     0.000 C 
BRANCH  22  23
HETATM   23  C   UNK N   1      27.664  17.539   6.826  0.00  0.00     0.000 C 
BRANCH  23  24
HETATM   24  C   UNK N   1      28.638  16.758   5.966  0.00  0.00     0.000 C 
BRANCH  24  25
HETATM   25  C   UNK N   1      29.860  17.613   5.686  0.00  0.00     0.000 C 
BRANCH  25  26
HETATM   26  C   UNK N   1      31.096  16.941   6.247  0.00  0.00     0.000 C 
BRANCH  26  27
HETATM   27  C   UNK N   1      32.273  17.219   5.336  0.00  0.00    -0.000 C 
BRANCH  27  28
HETATM   28  C   UNK N   1      32.267  16.241   4.181  0.00  0.00    -0.005 C 
HETATM   29  C   UNK N   1      32.290  17.005   2.874  0.00  0.00     0.005 C 
ENDBRANCH  27  28
ENDBRANCH  26  27
ENDBRANCH  25  26
ENDBRANCH  24  25
ENDBRANCH  23  24
ENDBRANCH  22  23
ENDBRANCH  21  22
ENDBRANCH  20  21
ENDBRANCH  19  20
ENDBRANCH  18  19
ENDBRANCH  17  18
ENDBRANCH  16  17
ENDBRANCH   1  16
TORSDOF 21
ENDMDL
MODEL 6
REMARK VINA RESULT:      -4.7      3.033      4.925
REMARK  21 active torsions:
REMARK  status: ('A' for Active; 'I' for Inactive)
REMARK    1  A    between atoms: C_2  and  N_1 
REMARK    2  A    between atoms: C_2  and  C_3 
REMARK    3  A    between atoms: C_2  and  C_5 
REMARK    4  A    between atoms: C_3  and  O_7 
REMARK    5  A    between atoms: C_5  and  O_6 
REMARK    6  A    between atoms: O_6  and  S_24 
REMARK    7  A    between atoms: C_8  and  C_9 
REMARK    8  A    between atoms: C_8  and  S_24 
REMARK    9  A    between atoms: C_9  and  C_10 
REMARK   10  A    between atoms: C_10  and  C_11 
REMARK   11  A    between atoms: C_11  and  C_12 
REMARK   12  A    between atoms: C_12  and  C_13 
REMARK   13  A    between atoms: C_13  and  C_14 
REMARK   14  A    between atoms: C_14  and  C_15 
REMARK   15  A    between atoms: C_15  and  C_16 
REMARK   16  A    between atoms: C_16  and  C_17 
REMARK   17  A    between atoms: C_17  and  C_18 
REMARK   18  A    between atoms: C_18  and  C_19 
REMARK   19  A    between atoms: C_19  and  C_20 
REMARK   20  A    between atoms: C_20  and  C_21 
REMARK   21  A    between atoms: C_21  and  C_22 
ROOT
HETATM    1  C   UNK N   1      35.628  10.194  15.293  0.00  0.00     0.017 C 
ENDROOT
BRANCH   1   2
HETATM    2  C   UNK N   1      35.720   9.900  13.785  0.00  0.00     0.171 C 
BRANCH   2   3
HETATM    3  S   UNK N   1      34.492  10.868  12.819  0.00  0.00     0.265 S 
HETATM    4  O   UNK N   1      35.613  10.572  11.811  0.00  0.00    -0.199 OA
HETATM    5  O   UNK N   1      33.602   9.937  11.986  0.00  0.00    -0.199 OA
BRANCH   3   6
HETATM    6  O   UNK N   1      34.560  12.316  11.906  0.00  0.00    -0.273 OA
BRANCH   6   7
HETATM    7  C   UNK N   1      35.701  13.021  12.283  0.00  0.00     0.225 C 
BRANCH   7   8
HETATM    8  C   UNK N   1      35.424  14.505  12.064  0.00  0.00     0.198 C 
BRANCH   8   9
HETATM    9  N   UNK N   1      36.676  15.201  11.811  0.00  0.00    -0.416 N 
HETATM   10  H   UNK N   1      37.461  15.130  11.163  0.00  0.00     0.150 HD
HETATM   11  H   UNK N   1      36.805  15.974  12.463  0.00  0.00     0.150 HD
ENDBRANCH   8   9
BRANCH   8  12
HETATM   12  C   UNK N   1      34.462  14.698  10.916  0.00  0.00     0.165 C 
HETATM   13  O   UNK N   1      34.854  14.671   9.762  0.00  0.00    -0.648 OA
BRANCH  12  14
HETATM   14  O   UNK N   1      33.152  14.911  11.165  0.00  0.00    -0.775 OA
HETATM   15  H   UNK N   1      32.479  15.471  10.832  0.00  0.00     0.167 HD
ENDBRANCH  12  14
ENDBRANCH   8  12
ENDBRANCH   7   8
ENDBRANCH   6   7
ENDBRANCH   3   6
ENDBRANCH   2   3
ENDBRANCH   1   2
BRANCH   1  16
HETATM   16  C   UNK N   1      36.682  11.190  15.759  0.00  0.00     0.001 C 
BRANCH  16  17
HETATM   17  C   UNK N   1      36.121  12.597  15.890  0.00  0.00     0.000 C 
BRANCH  17  18
HETATM   18  C   UNK N   1      34.900  12.628  16.786  0.00  0.00     0.000 C 
BRANCH  18  19
HETATM   19  C   UNK N   1      35.145  13.636  17.894  0.00  0.00     0.000 C 
BRANCH  19  20
HETATM   20  C   UNK N   1      35.331  12.933  19.224  0.00  0.00     0.000 C 
BRANCH  20  21
HETATM   21  C   UNK N   1      34.973  11.455  19.109  0.00  0.00     0.000 C 
BRANCH  21  22
HETATM   22  C   UNK N   1      36.125  10.541  19.504  0.00  0.00     0.000 C 
BRANCH  22  23
HETATM   23  C   UNK N   1      35.892   9.134  18.980  0.00  0.00     0.000 C 
BRANCH  23  24
HETATM   24  C   UNK N   1      34.444   8.951  18.571  0.00  0.00     0.000 C 
BRANCH  24  25
HETATM   25  C   UNK N   1      33.724   8.125  19.620  0.00  0.00     0.000 C 
BRANCH  25  26
HETATM   26  C   UNK N   1      32.255   8.491  19.642  0.00  0.00     0.000 C 
BRANCH  26  27
HETATM   27  C   UNK N   1      31.858   8.877  21.052  0.00  0.00    -0.000 C 
BRANCH  27  28
HETATM   28  C   UNK N   1      33.079   9.342  21.817  0.00  0.00    -0.005 C 
HETATM   29  C   UNK N   1      32.911  10.799  22.194  0.00  0.00     0.005 C 
ENDBRANCH  27  28
ENDBRANCH  26  27
ENDBRANCH  25  26
ENDBRANCH  24  25
ENDBRANCH  23  24
ENDBRANCH  22  23
ENDBRANCH  21  22
ENDBRANCH  20  21
ENDBRANCH  19  20
ENDBRANCH  18  19
ENDBRANCH  17  18
ENDBRANCH  16  17
ENDBRANCH   1  16
TORSDOF 21
ENDMDL
MODEL 7
REMARK VINA RESULT:      -4.6     11.412     15.982
REMARK  21 active torsions:
REMARK  status: ('A' for Active; 'I' for Inactive)
REMARK    1  A    between atoms: C_2  and  N_1 
REMARK    2  A    between atoms: C_2  and  C_3 
REMARK    3  A    between atoms: C_2  and  C_5 
REMARK    4  A    between atoms: C_3  and  O_7 
REMARK    5  A    between atoms: C_5  and  O_6 
REMARK    6  A    between atoms: O_6  and  S_24 
REMARK    7  A    between atoms: C_8  and  C_9 
REMARK    8  A    between atoms: C_8  and  S_24 
REMARK    9  A    between atoms: C_9  and  C_10 
REMARK   10  A    between atoms: C_10  and  C_11 
REMARK   11  A    between atoms: C_11  and  C_12 
REMARK   12  A    between atoms: C_12  and  C_13 
REMARK   13  A    between atoms: C_13  and  C_14 
REMARK   14  A    between atoms: C_14  and  C_15 
REMARK   15  A    between atoms: C_15  and  C_16 
REMARK   16  A    between atoms: C_16  and  C_17 
REMARK   17  A    between atoms: C_17  and  C_18 
REMARK   18  A    between atoms: C_18  and  C_19 
REMARK   19  A    between atoms: C_19  and  C_20 
REMARK   20  A    between atoms: C_20  and  C_21 
REMARK   21  A    between atoms: C_21  and  C_22 
ROOT
HETATM    1  C   UNK N   1      21.806  15.874   6.517  0.00  0.00     0.017 C 
ENDROOT
BRANCH   1   2
HETATM    2  C   UNK N   1      21.100  15.243   7.731  0.00  0.00     0.171 C 
BRANCH   2   3
HETATM    3  S   UNK N   1      21.972  13.741   8.331  0.00  0.00     0.265 S 
HETATM    4  O   UNK N   1      21.491  14.433   9.614  0.00  0.00    -0.199 OA
HETATM    5  O   UNK N   1      20.971  12.623   8.649  0.00  0.00    -0.199 OA
BRANCH   3   6
HETATM    6  O   UNK N   1      23.273  13.463   9.409  0.00  0.00    -0.273 OA
BRANCH   6   7
HETATM    7  C   UNK N   1      23.486  12.089   9.498  0.00  0.00     0.225 C 
BRANCH   7   8
HETATM    8  C   UNK N   1      24.019  11.791  10.896  0.00  0.00     0.198 C 
BRANCH   8   9
HETATM    9  N   UNK N   1      25.117  12.693  11.200  0.00  0.00    -0.416 N 
HETATM   10  H   UNK N   1      25.239  13.631  11.584  0.00  0.00     0.150 HD
HETATM   11  H   UNK N   1      26.015  12.273  10.964  0.00  0.00     0.150 HD
ENDBRANCH   8   9
BRANCH   8  12
HETATM   12  C   UNK N   1      22.916  11.923  11.920  0.00  0.00     0.165 C 
HETATM   13  O   UNK N   1      23.173  11.960  13.111  0.00  0.00    -0.648 OA
BRANCH  12  14
HETATM   14  O   UNK N   1      21.630  11.993  11.516  0.00  0.00    -0.775 OA
HETATM   15  H   UNK N   1      20.856  11.475  11.620  0.00  0.00     0.167 HD
ENDBRANCH  12  14
ENDBRANCH   8  12
ENDBRANCH   7   8
ENDBRANCH   6   7
ENDBRANCH   3   6
ENDBRANCH   2   3
ENDBRANCH   1   2
BRANCH   1  16
HETATM   16  C   UNK N   1      20.862  16.708   5.661  0.00  0.00     0.001 C 
BRANCH  16  17
HETATM   17  C   UNK N   1      21.413  16.944   4.264  0.00  0.00     0.000 C 
BRANCH  17  18
HETATM   18  C   UNK N   1      20.821  18.190   3.637  0.00  0.00     0.000 C 
BRANCH  18  19
HETATM   19  C   UNK N   1      21.748  19.356   3.927  0.00  0.00     0.000 C 
BRANCH  19  20
HETATM   20  C   UNK N   1      23.128  19.097   3.357  0.00  0.00     0.000 C 
BRANCH  20  21
HETATM   21  C   UNK N   1      24.027  20.315   3.542  0.00  0.00     0.000 C 
BRANCH  21  22
HETATM   22  C   UNK N   1      25.214  20.319   2.587  0.00  0.00     0.000 C 
BRANCH  22  23
HETATM   23  C   UNK N   1      26.520  20.355   3.361  0.00  0.00     0.000 C 
BRANCH  23  24
HETATM   24  C   UNK N   1      26.262  20.211   4.848  0.00  0.00     0.000 C 
BRANCH  24  25
HETATM   25  C   UNK N   1      27.019  21.290   5.598  0.00  0.00     0.000 C 
BRANCH  25  26
HETATM   26  C   UNK N   1      27.746  20.682   6.778  0.00  0.00     0.000 C 
BRANCH  26  27
HETATM   27  C   UNK N   1      27.631  19.174   6.712  0.00  0.00    -0.000 C 
BRANCH  27  28
HETATM   28  C   UNK N   1      28.709  18.541   7.565  0.00  0.00    -0.005 C 
HETATM   29  C   UNK N   1      28.113  18.109   8.889  0.00  0.00     0.005 C 
ENDBRANCH  27  28
ENDBRANCH  26  27
ENDBRANCH  25  26
ENDBRANCH  24  25
ENDBRANCH  23  24
ENDBRANCH  22  23
ENDBRANCH  21  22
ENDBRANCH  20  21
ENDBRANCH  19  20
ENDBRANCH  18  19
ENDBRANCH  17  18
ENDBRANCH  16  17
ENDBRANCH   1  16
TORSDOF 21
ENDMDL
MODEL 8
REMARK VINA RESULT:      -4.6     13.291     15.657
REMARK  21 active torsions:
REMARK  status: ('A' for Active; 'I' for Inactive)
REMARK    1  A    between atoms: C_2  and  N_1 
REMARK    2  A    between atoms: C_2  and  C_3 
REMARK    3  A    between atoms: C_2  and  C_5 
REMARK    4  A    between atoms: C_3  and  O_7 
REMARK    5  A    between atoms: C_5  and  O_6 
REMARK    6  A    between atoms: O_6  and  S_24 
REMARK    7  A    between atoms: C_8  and  C_9 
REMARK    8  A    between atoms: C_8  and  S_24 
REMARK    9  A    between atoms: C_9  and  C_10 
REMARK   10  A    between atoms: C_10  and  C_11 
REMARK   11  A    between atoms: C_11  and  C_12 
REMARK   12  A    between atoms: C_12  and  C_13 
REMARK   13  A    between atoms: C_13  and  C_14 
REMARK   14  A    between atoms: C_14  and  C_15 
REMARK   15  A    between atoms: C_15  and  C_16 
REMARK   16  A    between atoms: C_16  and  C_17 
REMARK   17  A    between atoms: C_17  and  C_18 
REMARK   18  A    between atoms: C_18  and  C_19 
REMARK   19  A    between atoms: C_19  and  C_20 
REMARK   20  A    between atoms: C_20  and  C_21 
REMARK   21  A    between atoms: C_21  and  C_22 
ROOT
HETATM    1  C   UNK N   1      21.405  14.831   6.342  0.00  0.00     0.017 C 
ENDROOT
BRANCH   1   2
HETATM    2  C   UNK N   1      22.217  16.042   6.834  0.00  0.00     0.171 C 
BRANCH   2   3
HETATM    3  S   UNK N   1      22.001  17.505   5.745  0.00  0.00     0.265 S 
HETATM    4  O   UNK N   1      20.624  16.825   5.736  0.00  0.00    -0.199 OA
HETATM    5  O   UNK N   1      21.342  18.659   6.510  0.00  0.00    -0.199 OA
BRANCH   3   6
HETATM    6  O   UNK N   1      21.490  17.726   4.124  0.00  0.00    -0.273 OA
BRANCH   6   7
HETATM    7  C   UNK N   1      21.080  19.049   3.968  0.00  0.00     0.225 C 
BRANCH   7   8
HETATM    8  C   UNK N   1      20.611  19.222   2.527  0.00  0.00     0.198 C 
BRANCH   8   9
HETATM    9  N   UNK N   1      19.158  19.267   2.491  0.00  0.00    -0.416 N 
HETATM   10  H   UNK N   1      18.404  18.845   1.948  0.00  0.00     0.150 HD
HETATM   11  H   UNK N   1      18.791  19.893   3.206  0.00  0.00     0.150 HD
ENDBRANCH   8   9
BRANCH   8  12
HETATM   12  C   UNK N   1      21.201  20.477   1.927  0.00  0.00     0.165 C 
HETATM   13  O   UNK N   1      21.345  20.583   0.721  0.00  0.00    -0.648 OA
BRANCH  12  14
HETATM   14  O   UNK N   1      21.583  21.490   2.732  0.00  0.00    -0.775 OA
HETATM   15  H   UNK N   1      21.582  22.427   2.693  0.00  0.00     0.167 HD
ENDBRANCH  12  14
ENDBRANCH   8  12
ENDBRANCH   7   8
ENDBRANCH   6   7
ENDBRANCH   3   6
ENDBRANCH   2   3
ENDBRANCH   1   2
BRANCH   1  16
HETATM   16  C   UNK N   1      20.774  14.046   7.485  0.00  0.00     0.001 C 
BRANCH  16  17
HETATM   17  C   UNK N   1      21.235  14.547   8.845  0.00  0.00     0.000 C 
BRANCH  17  18
HETATM   18  C   UNK N   1      20.676  13.696   9.968  0.00  0.00     0.000 C 
BRANCH  18  19
HETATM   19  C   UNK N   1      21.488  12.416  10.046  0.00  0.00     0.000 C 
BRANCH  19  20
HETATM   20  C   UNK N   1      22.787  12.652  10.791  0.00  0.00     0.000 C 
BRANCH  20  21
HETATM   21  C   UNK N   1      23.974  12.133   9.985  0.00  0.00     0.000 C 
BRANCH  21  22
HETATM   22  C   UNK N   1      23.564  11.588   8.623  0.00  0.00     0.000 C 
BRANCH  22  23
HETATM   23  C   UNK N   1      24.123  12.458   7.510  0.00  0.00     0.000 C 
BRANCH  23  24
HETATM   24  C   UNK N   1      23.846  11.834   6.156  0.00  0.00     0.000 C 
BRANCH  24  25
HETATM   25  C   UNK N   1      23.018  10.576   6.340  0.00  0.00     0.000 C 
BRANCH  25  26
HETATM   26  C   UNK N   1      21.973  10.484   5.249  0.00  0.00     0.000 C 
BRANCH  26  27
HETATM   27  C   UNK N   1      20.613  10.810   5.831  0.00  0.00    -0.000 C 
BRANCH  27  28
HETATM   28  C   UNK N   1      19.828  11.657   4.852  0.00  0.00    -0.005 C 
HETATM   29  C   UNK N   1      20.180  11.248   3.438  0.00  0.00     0.005 C 
ENDBRANCH  27  28
ENDBRANCH  26  27
ENDBRANCH  25  26
ENDBRANCH  24  25
ENDBRANCH  23  24
ENDBRANCH  22  23
ENDBRANCH  21  22
ENDBRANCH  20  21
ENDBRANCH  19  20
ENDBRANCH  18  19
ENDBRANCH  17  18
ENDBRANCH  16  17
ENDBRANCH   1  16
TORSDOF 21
ENDMDL
MODEL 9
REMARK VINA RESULT:      -4.5     18.567     23.163
REMARK  21 active torsions:
REMARK  status: ('A' for Active; 'I' for Inactive)
REMARK    1  A    between atoms: C_2  and  N_1 
REMARK    2  A    between atoms: C_2  and  C_3 
REMARK    3  A    between atoms: C_2  and  C_5 
REMARK    4  A    between atoms: C_3  and  O_7 
REMARK    5  A    between atoms: C_5  and  O_6 
REMARK    6  A    between atoms: O_6  and  S_24 
REMARK    7  A    between atoms: C_8  and  C_9 
REMARK    8  A    between atoms: C_8  and  S_24 
REMARK    9  A    between atoms: C_9  and  C_10 
REMARK   10  A    between atoms: C_10  and  C_11 
REMARK   11  A    between atoms: C_11  and  C_12 
REMARK   12  A    between atoms: C_12  and  C_13 
REMARK   13  A    between atoms: C_13  and  C_14 
REMARK   14  A    between atoms: C_14  and  C_15 
REMARK   15  A    between atoms: C_15  and  C_16 
REMARK   16  A    between atoms: C_16  and  C_17 
REMARK   17  A    between atoms: C_17  and  C_18 
REMARK   18  A    between atoms: C_18  and  C_19 
REMARK   19  A    between atoms: C_19  and  C_20 
REMARK   20  A    between atoms: C_20  and  C_21 
REMARK   21  A    between atoms: C_21  and  C_22 
ROOT
HETATM    1  C   UNK N   1      29.606  24.938  -4.469  0.00  0.00     0.017 C 
ENDROOT
BRANCH   1   2
HETATM    2  C   UNK N   1      30.472  24.631  -3.235  0.00  0.00     0.171 C 
BRANCH   2   3
HETATM    3  S   UNK N   1      30.862  22.841  -3.095  0.00  0.00     0.265 S 
HETATM    4  O   UNK N   1      30.602  23.282  -1.647  0.00  0.00    -0.199 OA
HETATM    5  O   UNK N   1      29.577  22.011  -2.993  0.00  0.00    -0.199 OA
BRANCH   3   6
HETATM    6  O   UNK N   1      32.022  21.934  -2.219  0.00  0.00    -0.273 OA
BRANCH   6   7
HETATM    7  C   UNK N   1      32.790  21.208  -3.126  0.00  0.00     0.225 C 
BRANCH   7   8
HETATM    8  C   UNK N   1      32.736  21.933  -4.467  0.00  0.00     0.198 C 
BRANCH   8   9
HETATM    9  N   UNK N   1      34.069  22.389  -4.827  0.00  0.00    -0.416 N 
HETATM   10  H   UNK N   1      34.498  23.223  -5.230  0.00  0.00     0.150 HD
HETATM   11  H   UNK N   1      34.769  21.677  -4.620  0.00  0.00     0.150 HD
ENDBRANCH   8   9
BRANCH   8  12
HETATM   12  C   UNK N   1      32.171  21.027  -5.535  0.00  0.00     0.165 C 
HETATM   13  O   UNK N   1      32.289  21.306  -6.716  0.00  0.00    -0.648 OA
BRANCH  12  14
HETATM   14  O   UNK N   1      31.522  19.898  -5.182  0.00  0.00    -0.775 OA
HETATM   15  H   UNK N   1      31.753  19.065  -4.820  0.00  0.00     0.167 HD
ENDBRANCH  12  14
ENDBRANCH   8  12
ENDBRANCH   7   8
ENDBRANCH   6   7
ENDBRANCH   3   6
ENDBRANCH   2   3
ENDBRANCH   1   2
BRANCH   1  16
HETATM   16  C   UNK N   1      28.298  25.630  -4.108  0.00  0.00     0.001 C 
BRANCH  16  17
HETATM   17  C   UNK N   1      27.329  24.692  -3.405  0.00  0.00     0.000 C 
BRANCH  17  18
HETATM   18  C   UNK N   1      26.301  24.132  -4.368  0.00  0.00     0.000 C 
BRANCH  18  19
HETATM   19  C   UNK N   1      25.759  25.275  -5.206  0.00  0.00     0.000 C 
BRANCH  19  20
HETATM   20  C   UNK N   1      25.770  24.910  -6.677  0.00  0.00     0.000 C 
BRANCH  20  21
HETATM   21  C   UNK N   1      26.241  26.090  -7.522  0.00  0.00     0.000 C 
BRANCH  21  22
HETATM   22  C   UNK N   1      27.646  25.890  -8.076  0.00  0.00     0.000 C 
BRANCH  22  23
HETATM   23  C   UNK N   1      28.586  26.958  -7.543  0.00  0.00     0.000 C 
BRANCH  23  24
HETATM   24  C   UNK N   1      27.829  28.240  -7.259  0.00  0.00     0.000 C 
BRANCH  24  25
HETATM   25  C   UNK N   1      28.668  29.135  -6.366  0.00  0.00     0.000 C 
BRANCH  25  26
HETATM   26  C   UNK N   1      27.817  29.680  -5.240  0.00  0.00     0.000 C 
BRANCH  26  27
HETATM   27  C   UNK N   1      26.619  28.776  -5.037  0.00  0.00    -0.000 C 
BRANCH  27  28
HETATM   28  C   UNK N   1      26.198  28.803  -3.584  0.00  0.00    -0.005 C 
HETATM   29  C   UNK N   1      27.424  28.948  -2.707  0.00  0.00     0.005 C 
ENDBRANCH  27  28
ENDBRANCH  26  27
ENDBRANCH  25  26
ENDBRANCH  24  25
ENDBRANCH  23  24
ENDBRANCH  22  23
ENDBRANCH  21  22
ENDBRANCH  20  21
ENDBRANCH  19  20
ENDBRANCH  18  19
ENDBRANCH  17  18
ENDBRANCH  16  17
ENDBRANCH   1  16
TORSDOF 21
ENDMDL
