MODEL 1
REMARK VINA RESULT:      -7.3      0.000      0.000
REMARK  5 active torsions:
REMARK  status: ('A' for Active; 'I' for Inactive)
REMARK    1  A    between atoms: C_2  and  C_11 
REMARK    2  A    between atoms: C_3  and  C_4 
REMARK    3  A    between atoms: C_5  and  N_17 
REMARK    4  A    between atoms: C_8  and  S_27 
REMARK    5  A    between atoms: N_20  and  S_27 
ROOT
HETATM    1  C   UNK N   1      36.148  11.399  12.933  0.00  0.00     0.068 A 
HETATM    2  C   UNK N   1      36.433  12.189  11.830  0.00  0.00     0.069 A 
HETATM    3  C   UNK N   1      35.013  11.969  13.476  0.00  0.00     0.135 A 
HETATM    4  N   UNK N   1      35.503  13.190  11.757  0.00  0.00    -0.255 N 
HETATM    5  N   UNK N   1      34.638  13.035  12.749  0.00  0.00    -0.289 N 
ATOM      6  HN  UNK N   1      33.825  13.625  12.931  1.00  0.00     0.187 HD
ENDROOT
BRANCH   4   7
HETATM    7  C   UNK N   1      35.382  14.298  10.836  0.00  0.00     0.057 A 
HETATM    8  C   UNK N   1      35.033  14.098   9.497  0.00  0.00     0.033 A 
HETATM    9  C   UNK N   1      34.807  15.173   8.645  0.00  0.00     0.027 A 
HETATM   10  C   UNK N   1      34.965  16.474   9.113  0.00  0.00     0.079 A 
HETATM   11  C   UNK N   1      35.391  16.697  10.427  0.00  0.00     0.027 A 
HETATM   12  C   UNK N   1      35.624  15.610  11.280  0.00  0.00     0.033 A 
BRANCH  10  13
HETATM   13  S   UNK N   1      34.292  17.811   8.146  0.00  0.00     0.256 S 
HETATM   14  O   UNK N   1      35.132  19.039   8.515  0.00  0.00    -0.201 OA
HETATM   15  O   UNK N   1      34.530  17.755   6.629  0.00  0.00    -0.201 OA
BRANCH  13  16
HETATM   16  N   UNK N   1      32.647  18.396   8.406  0.00  0.00    -0.324 N 
HETATM   17  H   UNK N   1      31.762  18.133   7.973  0.00  0.00     0.169 HD
HETATM   18  H   UNK N   1      32.568  19.125   9.116  0.00  0.00     0.169 HD
ENDBRANCH  13  16
ENDBRANCH  10  13
ENDBRANCH   4   7
BRANCH   2  19
HETATM   19  C   UNK N   1      37.555  11.872  10.890  0.00  0.00    -0.007 A 
HETATM   20  C   UNK N   1      37.716  10.557  10.420  0.00  0.00     0.015 A 
HETATM   21  C   UNK N   1      38.764  10.233   9.550  0.00  0.00     0.020 A 
HETATM   22  C   UNK N   1      39.651  11.224   9.122  0.00  0.00     0.011 A 
HETATM   23  C   UNK N   1      39.476  12.540   9.544  0.00  0.00     0.020 A 
HETATM   24 Br   UNK N   1      41.109  10.786   7.977  0.00  0.00    -0.051 Br
HETATM   25  C   UNK N   1      38.431  12.857  10.411  0.00  0.00     0.015 A 
ENDBRANCH   2  19
BRANCH   3  26
HETATM   26  C   UNK N   1      34.300  11.492  14.701  0.00  0.00     0.434 C 
HETATM   27  F   UNK N   1      35.132  10.669  15.436  0.00  0.00    -0.165 F 
HETATM   28  F   UNK N   1      33.163  10.786  14.348  0.00  0.00    -0.165 F 
HETATM   29  F   UNK N   1      33.934  12.579  15.472  0.00  0.00    -0.165 F 
ENDBRANCH   3  26
TORSDOF 5
ENDMDL
MODEL 2
REMARK VINA RESULT:      -7.3      9.005     11.563
REMARK  5 active torsions:
REMARK  status: ('A' for Active; 'I' for Inactive)
REMARK    1  A    between atoms: C_2  and  C_11 
REMARK    2  A    between atoms: C_3  and  C_4 
REMARK    3  A    between atoms: C_5  and  N_17 
REMARK    4  A    between atoms: C_8  and  S_27 
REMARK    5  A    between atoms: N_20  and  S_27 
ROOT
HETATM    1  C   UNK N   1      26.784  17.948   3.497  0.00  0.00     0.068 A 
HETATM    2  C   UNK N   1      27.857  17.122   3.793  0.00  0.00     0.069 A 
HETATM    3  C   UNK N   1      27.154  19.180   4.001  0.00  0.00     0.135 A 
HETATM    4  N   UNK N   1      28.801  17.853   4.463  0.00  0.00    -0.255 N 
HETATM    5  N   UNK N   1      28.371  19.102   4.567  0.00  0.00    -0.289 N 
ATOM      6  HN  UNK N   1      28.877  19.873   5.002  1.00  0.00     0.187 HD
ENDROOT
BRANCH   4   7
HETATM    7  C   UNK N   1      30.067  17.456   5.035  0.00  0.00     0.057 A 
HETATM    8  C   UNK N   1      31.262  17.581   4.318  0.00  0.00     0.033 A 
HETATM    9  C   UNK N   1      32.488  17.306   4.913  0.00  0.00     0.027 A 
HETATM   10  C   UNK N   1      32.536  16.862   6.230  0.00  0.00     0.079 A 
HETATM   11  C   UNK N   1      31.349  16.652   6.941  0.00  0.00     0.027 A 
HETATM   12  C   UNK N   1      30.115  16.924   6.335  0.00  0.00     0.033 A 
BRANCH  10  13
HETATM   13  S   UNK N   1      34.100  16.904   7.083  0.00  0.00     0.256 S 
HETATM   14  O   UNK N   1      35.113  16.308   6.098  0.00  0.00    -0.201 OA
HETATM   15  O   UNK N   1      34.722  18.288   7.320  0.00  0.00    -0.201 OA
BRANCH  13  16
HETATM   16  N   UNK N   1      34.382  15.937   8.534  0.00  0.00    -0.324 N 
HETATM   17  H   UNK N   1      35.058  16.040   9.290  0.00  0.00     0.169 HD
HETATM   18  H   UNK N   1      33.758  15.136   8.632  0.00  0.00     0.169 HD
ENDBRANCH  13  16
ENDBRANCH  10  13
ENDBRANCH   4   7
BRANCH   2  19
HETATM   19  C   UNK N   1      27.912  15.694   3.344  0.00  0.00    -0.007 A 
HETATM   20  C   UNK N   1      28.778  15.327   2.300  0.00  0.00     0.015 A 
HETATM   21  C   UNK N   1      28.840  14.001   1.854  0.00  0.00     0.020 A 
HETATM   22  C   UNK N   1      28.050  13.022   2.463  0.00  0.00     0.011 A 
HETATM   23  C   UNK N   1      27.221  13.363   3.528  0.00  0.00     0.020 A 
HETATM   24 Br   UNK N   1      28.090  11.224   1.834  0.00  0.00    -0.051 Br
HETATM   25  C   UNK N   1      27.164  14.685   3.967  0.00  0.00     0.015 A 
ENDBRANCH   2  19
BRANCH   3  26
HETATM   26  C   UNK N   1      26.329  20.426   3.948  0.00  0.00     0.434 C 
HETATM   27  F   UNK N   1      26.795  21.335   4.880  0.00  0.00    -0.165 F 
HETATM   28  F   UNK N   1      25.005  20.136   4.224  0.00  0.00    -0.165 F 
HETATM   29  F   UNK N   1      26.416  20.981   2.685  0.00  0.00    -0.165 F 
ENDBRANCH   3  26
TORSDOF 5
ENDMDL
MODEL 3
REMARK VINA RESULT:      -7.1      1.330      1.796
REMARK  5 active torsions:
REMARK  status: ('A' for Active; 'I' for Inactive)
REMARK    1  A    between atoms: C_2  and  C_11 
REMARK    2  A    between atoms: C_3  and  C_4 
REMARK    3  A    between atoms: C_5  and  N_17 
REMARK    4  A    between atoms: C_8  and  S_27 
REMARK    5  A    between atoms: N_20  and  S_27 
ROOT
HETATM    1  C   UNK N   1      37.070  12.535  13.495  0.00  0.00     0.068 A 
HETATM    2  C   UNK N   1      36.863  12.984  12.199  0.00  0.00     0.069 A 
HETATM    3  C   UNK N   1      36.130  13.215  14.245  0.00  0.00     0.135 A 
HETATM    4  N   UNK N   1      35.851  13.906  12.213  0.00  0.00    -0.255 N 
HETATM    5  N   UNK N   1      35.403  14.023  13.454  0.00  0.00    -0.289 N 
ATOM      6  HN  UNK N   1      34.638  14.625  13.759  1.00  0.00     0.187 HD
ENDROOT
BRANCH   4   7
HETATM    7  C   UNK N   1      35.290  14.703  11.145  0.00  0.00     0.057 A 
HETATM    8  C   UNK N   1      35.543  16.075  11.050  0.00  0.00     0.033 A 
HETATM    9  C   UNK N   1      35.096  16.814   9.960  0.00  0.00     0.027 A 
HETATM   10  C   UNK N   1      34.352  16.195   8.961  0.00  0.00     0.079 A 
HETATM   11  C   UNK N   1      34.019  14.840   9.075  0.00  0.00     0.027 A 
HETATM   12  C   UNK N   1      34.465  14.102  10.179  0.00  0.00     0.033 A 
BRANCH  10  13
HETATM   13  S   UNK N   1      34.142  17.046   7.409  0.00  0.00     0.256 S 
HETATM   14  O   UNK N   1      34.777  18.426   7.616  0.00  0.00    -0.201 OA
HETATM   15  O   UNK N   1      34.970  16.533   6.221  0.00  0.00    -0.201 OA
BRANCH  13  16
HETATM   16  N   UNK N   1      32.539  17.464   6.800  0.00  0.00    -0.324 N 
HETATM   17  H   UNK N   1      31.635  17.004   6.911  0.00  0.00     0.169 HD
HETATM   18  H   UNK N   1      32.511  18.316   6.240  0.00  0.00     0.169 HD
ENDBRANCH  13  16
ENDBRANCH  10  13
ENDBRANCH   4   7
BRANCH   2  19
HETATM   19  C   UNK N   1      37.625  12.434  11.033  0.00  0.00    -0.007 A 
HETATM   20  C   UNK N   1      37.243  11.203  10.474  0.00  0.00     0.015 A 
HETATM   21  C   UNK N   1      37.946  10.661   9.390  0.00  0.00     0.020 A 
HETATM   22  C   UNK N   1      39.026  11.356   8.840  0.00  0.00     0.011 A 
HETATM   23  C   UNK N   1      39.387  12.598   9.356  0.00  0.00     0.020 A 
HETATM   24 Br   UNK N   1      40.020  10.607   7.397  0.00  0.00    -0.051 Br
HETATM   25  C   UNK N   1      38.683  13.131  10.435  0.00  0.00     0.015 A 
ENDBRANCH   2  19
BRANCH   3  26
HETATM   26  C   UNK N   1      35.942  13.093  15.724  0.00  0.00     0.434 C 
HETATM   27  F   UNK N   1      36.512  14.181  16.358  0.00  0.00    -0.165 F 
HETATM   28  F   UNK N   1      36.540  11.935  16.188  0.00  0.00    -0.165 F 
HETATM   29  F   UNK N   1      34.591  13.051  16.013  0.00  0.00    -0.165 F 
ENDBRANCH   3  26
TORSDOF 5
ENDMDL
MODEL 4
REMARK VINA RESULT:      -7.1      5.448      7.730
REMARK  5 active torsions:
REMARK  status: ('A' for Active; 'I' for Inactive)
REMARK    1  A    between atoms: C_2  and  C_11 
REMARK    2  A    between atoms: C_3  and  C_4 
REMARK    3  A    between atoms: C_5  and  N_17 
REMARK    4  A    between atoms: C_8  and  S_27 
REMARK    5  A    between atoms: N_20  and  S_27 
ROOT
HETATM    1  C   UNK N   1      30.267  17.090   7.054  0.00  0.00     0.068 A 
HETATM    2  C   UNK N   1      31.483  16.428   7.125  0.00  0.00     0.069 A 
HETATM    3  C   UNK N   1      30.045  17.534   8.343  0.00  0.00     0.135 A 
HETATM    4  N   UNK N   1      31.931  16.475   8.417  0.00  0.00    -0.255 N 
HETATM    5  N   UNK N   1      31.061  17.163   9.142  0.00  0.00    -0.289 N 
ATOM      6  HN  UNK N   1      31.146  17.375  10.136  1.00  0.00     0.187 HD
ENDROOT
BRANCH   4   7
HETATM    7  C   UNK N   1      33.108  15.898   9.026  0.00  0.00     0.057 A 
HETATM    8  C   UNK N   1      33.203  14.524   9.272  0.00  0.00     0.033 A 
HETATM    9  C   UNK N   1      34.380  13.959   9.752  0.00  0.00     0.027 A 
HETATM   10  C   UNK N   1      35.474  14.770  10.031  0.00  0.00     0.079 A 
HETATM   11  C   UNK N   1      35.376  16.157   9.869  0.00  0.00     0.027 A 
HETATM   12  C   UNK N   1      34.186  16.722   9.392  0.00  0.00     0.033 A 
BRANCH  10  13
HETATM   13  S   UNK N   1      37.066  14.000  10.251  0.00  0.00     0.256 S 
HETATM   14  O   UNK N   1      37.026  12.735   9.386  0.00  0.00    -0.201 OA
HETATM   15  O   UNK N   1      38.275  14.722   9.636  0.00  0.00    -0.201 OA
BRANCH  13  16
HETATM   16  N   UNK N   1      37.568  13.361  11.818  0.00  0.00    -0.324 N 
HETATM   17  H   UNK N   1      37.305  12.509  12.314  0.00  0.00     0.169 HD
HETATM   18  H   UNK N   1      38.240  13.946  12.315  0.00  0.00     0.169 HD
ENDBRANCH  13  16
ENDBRANCH  10  13
ENDBRANCH   4   7
BRANCH   2  19
HETATM   19  C   UNK N   1      32.150  15.853   5.913  0.00  0.00    -0.007 A 
HETATM   20  C   UNK N   1      32.126  14.464   5.703  0.00  0.00     0.015 A 
HETATM   21  C   UNK N   1      32.752  13.900   4.584  0.00  0.00     0.020 A 
HETATM   22  C   UNK N   1      33.391  14.721   3.652  0.00  0.00     0.011 A 
HETATM   23  C   UNK N   1      33.383  16.103   3.825  0.00  0.00     0.020 A 
HETATM   24 Br   UNK N   1      34.286  13.962   2.152  0.00  0.00    -0.051 Br
HETATM   25  C   UNK N   1      32.759  16.658   4.941  0.00  0.00     0.015 A 
ENDBRANCH   2  19
BRANCH   3  26
HETATM   26  C   UNK N   1      28.850  18.305   8.806  0.00  0.00     0.434 C 
HETATM   27  F   UNK N   1      28.500  19.243   7.852  0.00  0.00    -0.165 F 
HETATM   28  F   UNK N   1      29.129  18.953   9.996  0.00  0.00    -0.165 F 
HETATM   29  F   UNK N   1      27.792  17.437   9.002  0.00  0.00    -0.165 F 
ENDBRANCH   3  26
TORSDOF 5
ENDMDL
MODEL 5
REMARK VINA RESULT:      -7.0     18.941     21.766
REMARK  5 active torsions:
REMARK  status: ('A' for Active; 'I' for Inactive)
REMARK    1  A    between atoms: C_2  and  C_11 
REMARK    2  A    between atoms: C_3  and  C_4 
REMARK    3  A    between atoms: C_5  and  N_17 
REMARK    4  A    between atoms: C_8  and  S_27 
REMARK    5  A    between atoms: N_20  and  S_27 
ROOT
HETATM    1  C   UNK N   1      26.652  27.176  -5.302  0.00  0.00     0.068 A 
HETATM    2  C   UNK N   1      27.308  25.955  -5.277  0.00  0.00     0.069 A 
HETATM    3  C   UNK N   1      27.376  27.969  -4.433  0.00  0.00     0.135 A 
HETATM    4  N   UNK N   1      28.360  26.041  -4.406  0.00  0.00    -0.255 N 
HETATM    5  N   UNK N   1      28.401  27.271  -3.915  0.00  0.00    -0.289 N 
ATOM      6  HN  UNK N   1      29.093  27.628  -3.256  1.00  0.00     0.187 HD
ENDROOT
BRANCH   4   7
HETATM    7  C   UNK N   1      29.315  25.042  -3.983  0.00  0.00     0.057 A 
HETATM    8  C   UNK N   1      28.918  23.916  -3.255  0.00  0.00     0.033 A 
HETATM    9  C   UNK N   1      29.822  22.903  -2.949  0.00  0.00     0.027 A 
HETATM   10  C   UNK N   1      31.152  23.020  -3.338  0.00  0.00     0.079 A 
HETATM   11  C   UNK N   1      31.589  24.175  -3.997  0.00  0.00     0.027 A 
HETATM   12  C   UNK N   1      30.677  25.196  -4.296  0.00  0.00     0.033 A 
BRANCH  10  13
HETATM   13  S   UNK N   1      32.179  21.564  -3.296  0.00  0.00     0.256 S 
HETATM   14  O   UNK N   1      33.373  21.887  -4.203  0.00  0.00    -0.201 OA
HETATM   15  O   UNK N   1      32.904  21.267  -1.975  0.00  0.00    -0.201 OA
BRANCH  13  16
HETATM   16  N   UNK N   1      31.618  20.026  -3.955  0.00  0.00    -0.324 N 
HETATM   17  H   UNK N   1      30.683  19.695  -4.191  0.00  0.00     0.169 HD
HETATM   18  H   UNK N   1      32.361  19.349  -4.131  0.00  0.00     0.169 HD
ENDBRANCH  13  16
ENDBRANCH  10  13
ENDBRANCH   4   7
BRANCH   2  19
HETATM   19  C   UNK N   1      26.897  24.811  -6.154  0.00  0.00    -0.007 A 
HETATM   20  C   UNK N   1      26.055  23.811  -5.639  0.00  0.00     0.015 A 
HETATM   21  C   UNK N   1      25.666  22.725  -6.434  0.00  0.00     0.020 A 
HETATM   22  C   UNK N   1      26.099  22.639  -7.759  0.00  0.00     0.011 A 
HETATM   23  C   UNK N   1      26.897  23.646  -8.295  0.00  0.00     0.020 A 
HETATM   24 Br   UNK N   1      25.616  21.143  -8.836  0.00  0.00    -0.051 Br
HETATM   25  C   UNK N   1      27.281  24.724  -7.499  0.00  0.00     0.015 A 
ENDBRANCH   2  19
BRANCH   3  26
HETATM   26  C   UNK N   1      27.071  29.393  -4.094  0.00  0.00     0.434 C 
HETATM   27  F   UNK N   1      25.780  29.492  -3.610  0.00  0.00    -0.165 F 
HETATM   28  F   UNK N   1      27.194  30.189  -5.219  0.00  0.00    -0.165 F 
HETATM   29  F   UNK N   1      27.956  29.835  -3.129  0.00  0.00    -0.165 F 
ENDBRANCH   3  26
TORSDOF 5
ENDMDL
MODEL 6
REMARK VINA RESULT:      -7.0     19.048     21.972
REMARK  5 active torsions:
REMARK  status: ('A' for Active; 'I' for Inactive)
REMARK    1  A    between atoms: C_2  and  C_11 
REMARK    2  A    between atoms: C_3  and  C_4 
REMARK    3  A    between atoms: C_5  and  N_17 
REMARK    4  A    between atoms: C_8  and  S_27 
REMARK    5  A    between atoms: N_20  and  S_27 
ROOT
HETATM    1  C   UNK N   1      25.624  25.887  -5.946  0.00  0.00     0.068 A 
HETATM    2  C   UNK N   1      26.425  24.761  -6.052  0.00  0.00     0.069 A 
HETATM    3  C   UNK N   1      26.109  26.546  -4.833  0.00  0.00     0.135 A 
HETATM    4  N   UNK N   1      27.325  24.765  -5.021  0.00  0.00    -0.255 N 
HETATM    5  N   UNK N   1      27.135  25.861  -4.300  0.00  0.00    -0.289 N 
ATOM      6  HN  UNK N   1      27.675  26.138  -3.480  1.00  0.00     0.187 HD
ENDROOT
BRANCH   4   7
HETATM    7  C   UNK N   1      28.335  23.800  -4.648  0.00  0.00     0.057 A 
HETATM    8  C   UNK N   1      29.015  23.049  -5.612  0.00  0.00     0.033 A 
HETATM    9  C   UNK N   1      30.064  22.207  -5.258  0.00  0.00     0.027 A 
HETATM   10  C   UNK N   1      30.425  22.075  -3.921  0.00  0.00     0.079 A 
HETATM   11  C   UNK N   1      29.707  22.756  -2.932  0.00  0.00     0.027 A 
HETATM   12  C   UNK N   1      28.646  23.597  -3.293  0.00  0.00     0.033 A 
BRANCH  10  13
HETATM   13  S   UNK N   1      31.996  21.325  -3.537  0.00  0.00     0.256 S 
HETATM   14  O   UNK N   1      33.033  22.137  -4.322  0.00  0.00    -0.201 OA
HETATM   15  O   UNK N   1      32.520  21.512  -2.106  0.00  0.00    -0.201 OA
BRANCH  13  16
HETATM   16  N   UNK N   1      32.369  19.672  -4.031  0.00  0.00    -0.324 N 
HETATM   17  H   UNK N   1      32.557  19.269  -4.949  0.00  0.00     0.169 HD
HETATM   18  H   UNK N   1      32.404  19.002  -3.262  0.00  0.00     0.169 HD
ENDBRANCH  13  16
ENDBRANCH  10  13
ENDBRANCH   4   7
BRANCH   2  19
HETATM   19  C   UNK N   1      26.296  23.793  -7.189  0.00  0.00    -0.007 A 
HETATM   20  C   UNK N   1      26.868  24.106  -8.434  0.00  0.00     0.015 A 
HETATM   21  C   UNK N   1      26.751  23.225  -9.516  0.00  0.00     0.020 A 
HETATM   22  C   UNK N   1      26.080  22.010  -9.358  0.00  0.00     0.011 A 
HETATM   23  C   UNK N   1      25.547  21.667  -8.118  0.00  0.00     0.020 A 
HETATM   24 Br   UNK N   1      25.873  20.824 -10.835  0.00  0.00    -0.051 Br
HETATM   25  C   UNK N   1      25.666  22.550  -7.045  0.00  0.00     0.015 A 
ENDBRANCH   2  19
BRANCH   3  26
HETATM   26  C   UNK N   1      25.575  27.828  -4.279  0.00  0.00     0.434 C 
HETATM   27  F   UNK N   1      26.497  28.840  -4.469  0.00  0.00    -0.165 F 
HETATM   28  F   UNK N   1      25.322  27.696  -2.925  0.00  0.00    -0.165 F 
HETATM   29  F   UNK N   1      24.398  28.155  -4.927  0.00  0.00    -0.165 F 
ENDBRANCH   3  26
TORSDOF 5
ENDMDL
MODEL 7
REMARK VINA RESULT:      -7.0     18.814     20.962
REMARK  5 active torsions:
REMARK  status: ('A' for Active; 'I' for Inactive)
REMARK    1  A    between atoms: C_2  and  C_11 
REMARK    2  A    between atoms: C_3  and  C_4 
REMARK    3  A    between atoms: C_5  and  N_17 
REMARK    4  A    between atoms: C_8  and  S_27 
REMARK    5  A    between atoms: N_20  and  S_27 
ROOT
HETATM    1  C   UNK N   1      30.732  26.514  -3.480  0.00  0.00     0.068 A 
HETATM    2  C   UNK N   1      30.286  25.303  -3.986  0.00  0.00     0.069 A 
HETATM    3  C   UNK N   1      29.662  27.370  -3.654  0.00  0.00     0.135 A 
HETATM    4  N   UNK N   1      29.011  25.467  -4.453  0.00  0.00    -0.255 N 
HETATM    5  N   UNK N   1      28.637  26.719  -4.230  0.00  0.00    -0.289 N 
ATOM      6  HN  UNK N   1      27.727  27.120  -4.457  1.00  0.00     0.187 HD
ENDROOT
BRANCH   4   7
HETATM    7  C   UNK N   1      28.125  24.537  -5.118  0.00  0.00     0.057 A 
HETATM    8  C   UNK N   1      26.779  24.427  -4.755  0.00  0.00     0.033 A 
HETATM    9  C   UNK N   1      25.906  23.616  -5.472  0.00  0.00     0.027 A 
HETATM   10  C   UNK N   1      26.378  22.869  -6.546  0.00  0.00     0.079 A 
HETATM   11  C   UNK N   1      27.737  22.901  -6.877  0.00  0.00     0.027 A 
HETATM   12  C   UNK N   1      28.615  23.715  -6.147  0.00  0.00     0.033 A 
BRANCH  10  13
HETATM   13  S   UNK N   1      25.193  22.167  -7.677  0.00  0.00     0.256 S 
HETATM   14  O   UNK N   1      24.065  21.622  -6.793  0.00  0.00    -0.201 OA
HETATM   15  O   UNK N   1      24.408  23.154  -8.555  0.00  0.00    -0.201 OA
BRANCH  13  16
HETATM   16  N   UNK N   1      25.592  20.766  -8.674  0.00  0.00    -0.324 N 
HETATM   17  H   UNK N   1      24.999  20.062  -9.114  0.00  0.00     0.169 HD
HETATM   18  H   UNK N   1      26.591  20.639  -8.839  0.00  0.00     0.169 HD
ENDBRANCH  13  16
ENDBRANCH  10  13
ENDBRANCH   4   7
BRANCH   2  19
HETATM   19  C   UNK N   1      31.116  24.057  -3.918  0.00  0.00    -0.007 A 
HETATM   20  C   UNK N   1      32.200  23.897  -4.798  0.00  0.00     0.015 A 
HETATM   21  C   UNK N   1      32.983  22.737  -4.764  0.00  0.00     0.020 A 
HETATM   22  C   UNK N   1      32.704  21.732  -3.834  0.00  0.00     0.011 A 
HETATM   23  C   UNK N   1      31.661  21.898  -2.926  0.00  0.00     0.020 A 
HETATM   24 Br   UNK N   1      33.733  20.129  -3.809  0.00  0.00    -0.051 Br
HETATM   25  C   UNK N   1      30.885  23.055  -2.966  0.00  0.00     0.015 A 
ENDBRANCH   2  19
BRANCH   3  26
HETATM   26  C   UNK N   1      29.634  28.817  -3.277  0.00  0.00     0.434 C 
HETATM   27  F   UNK N   1      28.577  29.055  -2.417  0.00  0.00    -0.165 F 
HETATM   28  F   UNK N   1      29.484  29.603  -4.406  0.00  0.00    -0.165 F 
HETATM   29  F   UNK N   1      30.818  29.152  -2.649  0.00  0.00    -0.165 F 
ENDBRANCH   3  26
TORSDOF 5
ENDMDL
MODEL 8
REMARK VINA RESULT:      -6.8      2.134      2.729
REMARK  5 active torsions:
REMARK  status: ('A' for Active; 'I' for Inactive)
REMARK    1  A    between atoms: C_2  and  C_11 
REMARK    2  A    between atoms: C_3  and  C_4 
REMARK    3  A    between atoms: C_5  and  N_17 
REMARK    4  A    between atoms: C_8  and  S_27 
REMARK    5  A    between atoms: N_20  and  S_27 
ROOT
HETATM    1  C   UNK N   1      35.506  11.841  13.610  0.00  0.00     0.068 A 
HETATM    2  C   UNK N   1      35.346  12.289  12.308  0.00  0.00     0.069 A 
HETATM    3  C   UNK N   1      35.516  12.996  14.368  0.00  0.00     0.135 A 
HETATM    4  N   UNK N   1      35.289  13.656  12.319  0.00  0.00    -0.255 N 
HETATM    5  N   UNK N   1      35.375  14.071  13.574  0.00  0.00    -0.289 N 
ATOM      6  HN  UNK N   1      35.340  15.042  13.886  1.00  0.00     0.187 HD
ENDROOT
BRANCH   4   7
HETATM    7  C   UNK N   1      35.184  14.603  11.232  0.00  0.00     0.057 A 
HETATM    8  C   UNK N   1      34.560  14.262  10.027  0.00  0.00     0.033 A 
HETATM    9  C   UNK N   1      34.361  15.210   9.029  0.00  0.00     0.027 A 
HETATM   10  C   UNK N   1      34.819  16.511   9.206  0.00  0.00     0.079 A 
HETATM   11  C   UNK N   1      35.517  16.854  10.371  0.00  0.00     0.027 A 
HETATM   12  C   UNK N   1      35.722  15.894  11.370  0.00  0.00     0.033 A 
BRANCH  10  13
HETATM   13  S   UNK N   1      34.209  17.782   8.116  0.00  0.00     0.256 S 
HETATM   14  O   UNK N   1      35.028  19.033   8.456  0.00  0.00    -0.201 OA
HETATM   15  O   UNK N   1      34.539  17.629   6.624  0.00  0.00    -0.201 OA
BRANCH  13  16
HETATM   16  N   UNK N   1      32.553  18.380   8.238  0.00  0.00    -0.324 N 
HETATM   17  H   UNK N   1      31.673  18.003   7.886  0.00  0.00     0.169 HD
HETATM   18  H   UNK N   1      32.459  19.257   8.751  0.00  0.00     0.169 HD
ENDBRANCH  13  16
ENDBRANCH  10  13
ENDBRANCH   4   7
BRANCH   2  19
HETATM   19  C   UNK N   1      35.198  11.346  11.153  0.00  0.00    -0.007 A 
HETATM   20  C   UNK N   1      36.303  11.084  10.325  0.00  0.00     0.015 A 
HETATM   21  C   UNK N   1      36.188  10.216   9.232  0.00  0.00     0.020 A 
HETATM   22  C   UNK N   1      34.970   9.583   8.967  0.00  0.00     0.011 A 
HETATM   23  C   UNK N   1      33.880   9.799   9.805  0.00  0.00     0.020 A 
HETATM   24 Br   UNK N   1      34.788   8.438   7.456  0.00  0.00    -0.051 Br
HETATM   25  C   UNK N   1      34.001  10.665  10.891  0.00  0.00     0.015 A 
ENDBRANCH   2  19
BRANCH   3  26
HETATM   26  C   UNK N   1      35.676  13.061  15.854  0.00  0.00     0.434 C 
HETATM   27  F   UNK N   1      36.532  14.094  16.187  0.00  0.00    -0.165 F 
HETATM   28  F   UNK N   1      36.195  11.871  16.332  0.00  0.00    -0.165 F 
HETATM   29  F   UNK N   1      34.443  13.283  16.439  0.00  0.00    -0.165 F 
ENDBRANCH   3  26
TORSDOF 5
ENDMDL
MODEL 9
REMARK VINA RESULT:      -6.8      4.109      5.275
REMARK  5 active torsions:
REMARK  status: ('A' for Active; 'I' for Inactive)
REMARK    1  A    between atoms: C_2  and  C_11 
REMARK    2  A    between atoms: C_3  and  C_4 
REMARK    3  A    between atoms: C_5  and  N_17 
REMARK    4  A    between atoms: C_8  and  S_27 
REMARK    5  A    between atoms: N_20  and  S_27 
ROOT
HETATM    1  C   UNK N   1      36.054  10.436  17.738  0.00  0.00     0.068 A 
HETATM    2  C   UNK N   1      36.163  10.731  16.387  0.00  0.00     0.069 A 
HETATM    3  C   UNK N   1      35.558  11.596  18.301  0.00  0.00     0.135 A 
HETATM    4  N   UNK N   1      35.762  12.025  16.189  0.00  0.00    -0.255 N 
HETATM    5  N   UNK N   1      35.381  12.532  17.352  0.00  0.00    -0.289 N 
ATOM      6  HN  UNK N   1      35.016  13.472  17.503  1.00  0.00     0.187 HD
ENDROOT
BRANCH   4   7
HETATM    7  C   UNK N   1      35.735  12.828  14.987  0.00  0.00     0.057 A 
HETATM    8  C   UNK N   1      36.434  14.036  14.902  0.00  0.00     0.033 A 
HETATM    9  C   UNK N   1      36.497  14.747  13.708  0.00  0.00     0.027 A 
HETATM   10  C   UNK N   1      35.828  14.275  12.584  0.00  0.00     0.079 A 
HETATM   11  C   UNK N   1      35.057  13.109  12.667  0.00  0.00     0.027 A 
HETATM   12  C   UNK N   1      34.990  12.401  13.874  0.00  0.00     0.033 A 
BRANCH  10  13
HETATM   13  S   UNK N   1      36.245  14.966  10.995  0.00  0.00     0.256 S 
HETATM   14  O   UNK N   1      35.193  14.414  10.026  0.00  0.00    -0.201 OA
HETATM   15  O   UNK N   1      36.023  16.475  10.818  0.00  0.00    -0.201 OA
BRANCH  13  16
HETATM   16  N   UNK N   1      37.754  14.549  10.180  0.00  0.00    -0.324 N 
HETATM   17  H   UNK N   1      38.040  13.707   9.680  0.00  0.00     0.169 HD
HETATM   18  H   UNK N   1      38.466  15.280  10.214  0.00  0.00     0.169 HD
ENDBRANCH  13  16
ENDBRANCH  10  13
ENDBRANCH   4   7
BRANCH   2  19
HETATM   19  C   UNK N   1      36.591   9.709  15.379  0.00  0.00    -0.007 A 
HETATM   20  C   UNK N   1      37.932   9.667  14.960  0.00  0.00     0.015 A 
HETATM   21  C   UNK N   1      38.354   8.729  14.010  0.00  0.00     0.020 A 
HETATM   22  C   UNK N   1      37.445   7.808  13.485  0.00  0.00     0.011 A 
HETATM   23  C   UNK N   1      36.124   7.809  13.925  0.00  0.00     0.020 A 
HETATM   24 Br   UNK N   1      37.998   6.558  12.157  0.00  0.00    -0.051 Br
HETATM   25  C   UNK N   1      35.709   8.746  14.870  0.00  0.00     0.015 A 
ENDBRANCH   2  19
BRANCH   3  26
HETATM   26  C   UNK N   1      35.267  11.804  19.753  0.00  0.00     0.434 C 
HETATM   27  F   UNK N   1      34.354  10.861  20.187  0.00  0.00    -0.165 F 
HETATM   28  F   UNK N   1      34.744  13.068  19.960  0.00  0.00    -0.165 F 
HETATM   29  F   UNK N   1      36.437  11.675  20.478  0.00  0.00    -0.165 F 
ENDBRANCH   3  26
TORSDOF 5
ENDMDL
