MODEL 1
REMARK VINA RESULT:      -6.8      0.000      0.000
REMARK  4 active torsions:
REMARK  status: ('A' for Active; 'I' for Inactive)
REMARK    1  A    between atoms: C_6  and  C_19 
REMARK       I    between atoms: C_11  and  N_16 
REMARK    2  A    between atoms: C_14  and  C_18 
REMARK    3  A    between atoms: N_17  and  C_23 
REMARK    4  A    between atoms: C_23  and  C_24 
ROOT
HETATM    1  N   UNK N   1      29.310  17.822   7.605  0.00  0.00    -0.339 N 
HETATM    2  C   UNK N   1      28.871  17.863   6.326  0.00  0.00     0.090 A 
HETATM    3  C   UNK N   1      27.810  18.791   6.286  0.00  0.00     0.072 A 
HETATM    4  N   UNK N   1      27.639  19.286   7.533  0.00  0.00    -0.350 N 
ATOM      5  HN  UNK N   1      26.948  19.975   7.826  1.00  0.00     0.166 HD
HETATM    6  C   UNK N   1      28.562  18.688   8.311  0.00  0.00     0.184 A 
ENDROOT
BRANCH   2   7
HETATM    7  C   UNK N   1      29.449  17.013   5.231  0.00  0.00     0.079 A 
HETATM    8  N   UNK N   1      30.408  17.488   4.400  0.00  0.00    -0.190 N 
HETATM    9  C   UNK N   1      30.926  16.737   3.394  0.00  0.00     0.676 A 
ATOM     10  HN  UNK N   1      30.753  18.438   4.536  1.00  0.00     0.184 HD
HETATM   11  N   UNK N   1      30.476  15.472   3.191  0.00  0.00    -0.202 N 
HETATM   12  N   UNK N   1      31.926  17.271   2.561  0.00  0.00    -0.234 N 
HETATM   13  C   UNK N   1      29.520  14.943   3.995  0.00  0.00     0.108 A 
ATOM     14  HN  UNK N   1      30.859  14.914   2.427  1.00  0.00     0.183 HD
HETATM   15  C   UNK N   1      28.992  15.703   5.038  0.00  0.00     0.050 A 
HETATM   16  H   UNK N   1      32.188  18.217   2.630  0.00  0.00     0.174 HD
HETATM   17  H   UNK N   1      32.369  16.691   1.901  0.00  0.00     0.174 HD
ENDBRANCH   2   7
BRANCH   1  18
HETATM   18  C   UNK N   1      30.407  17.042   8.167  0.00  0.00     0.134 C 
BRANCH  18  19
HETATM   19  C   UNK N   1      31.653  17.900   8.305  0.00  0.00     0.004 A 
HETATM   20  C   UNK N   1      32.655  17.536   7.231  0.00  0.00     0.007 A 
HETATM   21  C   UNK N   1      32.826  17.006   8.641  0.00  0.00     0.007 A 
ENDBRANCH  18  19
ENDBRANCH   1  18
BRANCH   3  22
HETATM   22  C   UNK N   1      26.897  19.215   5.182  0.00  0.00    -0.007 A 
HETATM   23  C   UNK N   1      27.372  20.124   4.221  0.00  0.00     0.017 A 
HETATM   24  C   UNK N   1      26.538  20.579   3.194  0.00  0.00     0.043 A 
HETATM   25  C   UNK N   1      25.220  20.126   3.111  0.00  0.00     0.116 A 
HETATM   26  F   UNK N   1      24.407  20.566   2.122  0.00  0.00    -0.206 F 
HETATM   27  C   UNK N   1      24.740  19.218   4.055  0.00  0.00     0.043 A 
HETATM   28  C   UNK N   1      25.574  18.776   5.080  0.00  0.00     0.017 A 
ENDBRANCH   3  22
TORSDOF 4
ENDMDL
MODEL 2
REMARK VINA RESULT:      -6.5      3.151      6.203
REMARK  4 active torsions:
REMARK  status: ('A' for Active; 'I' for Inactive)
REMARK    1  A    between atoms: C_6  and  C_19 
REMARK       I    between atoms: C_11  and  N_16 
REMARK    2  A    between atoms: C_14  and  C_18 
REMARK    3  A    between atoms: N_17  and  C_23 
REMARK    4  A    between atoms: C_23  and  C_24 
ROOT
HETATM    1  N   UNK N   1      28.642  18.262   6.824  0.00  0.00    -0.339 N 
HETATM    2  C   UNK N   1      29.754  17.496   6.743  0.00  0.00     0.090 A 
HETATM    3  C   UNK N   1      30.440  17.638   7.967  0.00  0.00     0.072 A 
HETATM    4  N   UNK N   1      29.728  18.478   8.751  0.00  0.00    -0.350 N 
ATOM      5  HN  UNK N   1      29.967  18.781   9.695  1.00  0.00     0.166 HD
HETATM    6  C   UNK N   1      28.643  18.837   8.039  0.00  0.00     0.184 A 
ENDROOT
BRANCH   2   7
HETATM    7  C   UNK N   1      30.119  16.705   5.520  0.00  0.00     0.079 A 
HETATM    8  N   UNK N   1      30.823  17.261   4.504  0.00  0.00    -0.190 N 
HETATM    9  C   UNK N   1      31.143  16.562   3.383  0.00  0.00     0.676 A 
ATOM     10  HN  UNK N   1      31.123  18.232   4.584  1.00  0.00     0.184 HD
HETATM   11  N   UNK N   1      30.747  15.270   3.253  0.00  0.00    -0.202 N 
HETATM   12  N   UNK N   1      31.881  17.180   2.357  0.00  0.00    -0.234 N 
HETATM   13  C   UNK N   1      30.044  14.662   4.241  0.00  0.00     0.108 A 
ATOM     14  HN  UNK N   1      30.979  14.752   2.405  1.00  0.00     0.183 HD
HETATM   15  C   UNK N   1      29.723  15.367   5.399  0.00  0.00     0.050 A 
HETATM   16  H   UNK N   1      32.086  18.142   2.392  0.00  0.00     0.174 HD
HETATM   17  H   UNK N   1      32.198  16.643   1.596  0.00  0.00     0.174 HD
ENDBRANCH   2   7
BRANCH   1  18
HETATM   18  C   UNK N   1      27.584  18.440   5.836  0.00  0.00     0.134 C 
BRANCH  18  19
HETATM   19  C   UNK N   1      27.927  19.576   4.888  0.00  0.00     0.004 A 
HETATM   20  C   UNK N   1      27.044  20.772   5.170  0.00  0.00     0.007 A 
HETATM   21  C   UNK N   1      26.730  19.854   4.006  0.00  0.00     0.007 A 
ENDBRANCH  18  19
ENDBRANCH   1  18
BRANCH   3  22
HETATM   22  C   UNK N   1      31.747  17.095   8.446  0.00  0.00    -0.007 A 
HETATM   23  C   UNK N   1      32.891  17.909   8.360  0.00  0.00     0.017 A 
HETATM   24  C   UNK N   1      34.143  17.426   8.759  0.00  0.00     0.043 A 
HETATM   25  C   UNK N   1      34.265  16.127   9.254  0.00  0.00     0.116 A 
HETATM   26  F   UNK N   1      35.474  15.653   9.637  0.00  0.00    -0.206 F 
HETATM   27  C   UNK N   1      33.137  15.313   9.350  0.00  0.00     0.043 A 
HETATM   28  C   UNK N   1      31.894  15.798   8.943  0.00  0.00     0.017 A 
ENDBRANCH   3  22
TORSDOF 4
ENDMDL
MODEL 3
REMARK VINA RESULT:      -6.5      3.235      6.664
REMARK  4 active torsions:
REMARK  status: ('A' for Active; 'I' for Inactive)
REMARK    1  A    between atoms: C_6  and  C_19 
REMARK       I    between atoms: C_11  and  N_16 
REMARK    2  A    between atoms: C_14  and  C_18 
REMARK    3  A    between atoms: N_17  and  C_23 
REMARK    4  A    between atoms: C_23  and  C_24 
ROOT
HETATM    1  N   UNK N   1      27.826  15.843   5.168  0.00  0.00    -0.339 N 
HETATM    2  C   UNK N   1      28.597  16.874   5.583  0.00  0.00     0.090 A 
HETATM    3  C   UNK N   1      29.846  16.330   5.950  0.00  0.00     0.072 A 
HETATM    4  N   UNK N   1      29.797  14.994   5.746  0.00  0.00    -0.350 N 
ATOM      5  HN  UNK N   1      30.544  14.323   5.921  1.00  0.00     0.166 HD
HETATM    6  C   UNK N   1      28.566  14.726   5.268  0.00  0.00     0.184 A 
ENDROOT
BRANCH   2   7
HETATM    7  C   UNK N   1      28.112  18.294   5.637  0.00  0.00     0.079 A 
HETATM    8  N   UNK N   1      27.527  18.798   6.750  0.00  0.00    -0.190 N 
HETATM    9  C   UNK N   1      27.066  20.075   6.807  0.00  0.00     0.676 A 
ATOM     10  HN  UNK N   1      27.433  18.202   7.573  1.00  0.00     0.184 HD
HETATM   11  N   UNK N   1      27.174  20.883   5.721  0.00  0.00    -0.202 N 
HETATM   12  N   UNK N   1      26.473  20.556   7.988  0.00  0.00    -0.234 N 
HETATM   13  C   UNK N   1      27.754  20.432   4.581  0.00  0.00     0.108 A 
ATOM     14  HN  UNK N   1      26.817  21.838   5.763  1.00  0.00     0.183 HD
HETATM   15  C   UNK N   1      28.242  19.128   4.519  0.00  0.00     0.050 A 
HETATM   16  H   UNK N   1      26.295  19.953   8.746  0.00  0.00     0.174 HD
HETATM   17  H   UNK N   1      26.234  21.508   8.058  0.00  0.00     0.174 HD
ENDBRANCH   2   7
BRANCH   1  18
HETATM   18  C   UNK N   1      26.459  15.875   4.658  0.00  0.00     0.134 C 
BRANCH  18  19
HETATM   19  C   UNK N   1      26.452  16.199   3.175  0.00  0.00     0.004 A 
HETATM   20  C   UNK N   1      25.259  15.552   2.507  0.00  0.00     0.007 A 
HETATM   21  C   UNK N   1      26.630  14.916   2.394  0.00  0.00     0.007 A 
ENDBRANCH  18  19
ENDBRANCH   1  18
BRANCH   3  22
HETATM   22  C   UNK N   1      31.071  16.953   6.535  0.00  0.00    -0.007 A 
HETATM   23  C   UNK N   1      32.221  17.066   5.735  0.00  0.00     0.017 A 
HETATM   24  C   UNK N   1      33.404  17.605   6.256  0.00  0.00     0.043 A 
HETATM   25  C   UNK N   1      33.447  18.043   7.581  0.00  0.00     0.116 A 
HETATM   26  F   UNK N   1      34.590  18.562   8.092  0.00  0.00    -0.206 F 
HETATM   27  C   UNK N   1      32.311  17.943   8.382  0.00  0.00     0.043 A 
HETATM   28  C   UNK N   1      31.139  17.397   7.858  0.00  0.00     0.017 A 
ENDBRANCH   3  22
TORSDOF 4
ENDMDL
MODEL 4
REMARK VINA RESULT:      -6.5      8.878     12.404
REMARK  4 active torsions:
REMARK  status: ('A' for Active; 'I' for Inactive)
REMARK    1  A    between atoms: C_6  and  C_19 
REMARK       I    between atoms: C_11  and  N_16 
REMARK    2  A    between atoms: C_14  and  C_18 
REMARK    3  A    between atoms: N_17  and  C_23 
REMARK    4  A    between atoms: C_23  and  C_24 
ROOT
HETATM    1  N   UNK N   1      36.973  12.033  10.983  0.00  0.00    -0.339 N 
HETATM    2  C   UNK N   1      36.387  12.910  11.830  0.00  0.00     0.090 A 
HETATM    3  C   UNK N   1      36.621  12.436  13.137  0.00  0.00     0.072 A 
HETATM    4  N   UNK N   1      37.340  11.294  13.046  0.00  0.00    -0.350 N 
ATOM      5  HN  UNK N   1      37.663  10.714  13.819  1.00  0.00     0.166 HD
HETATM    6  C   UNK N   1      37.544  11.076  11.733  0.00  0.00     0.184 A 
ENDROOT
BRANCH   2   7
HETATM    7  C   UNK N   1      35.622  14.116  11.365  0.00  0.00     0.079 A 
HETATM    8  N   UNK N   1      34.322  14.028  10.994  0.00  0.00    -0.190 N 
HETATM    9  C   UNK N   1      33.624  15.107  10.553  0.00  0.00     0.676 A 
ATOM     10  HN  UNK N   1      33.852  13.124  11.050  1.00  0.00     0.184 HD
HETATM   11  N   UNK N   1      34.232  16.318  10.465  0.00  0.00    -0.202 N 
HETATM   12  N   UNK N   1      32.273  14.968  10.186  0.00  0.00    -0.234 N 
HETATM   13  C   UNK N   1      35.531  16.465  10.827  0.00  0.00     0.108 A 
ATOM     14  HN  UNK N   1      33.708  17.124  10.122  1.00  0.00     0.183 HD
HETATM   15  C   UNK N   1      36.250  15.366  11.292  0.00  0.00     0.050 A 
HETATM   16  H   UNK N   1      31.849  14.080  10.147  0.00  0.00     0.174 HD
HETATM   17  H   UNK N   1      31.745  15.768   9.965  0.00  0.00     0.174 HD
ENDBRANCH   2   7
BRANCH   1  18
HETATM   18  C   UNK N   1      37.044  12.082   9.526  0.00  0.00     0.134 C 
BRANCH  18  19
HETATM   19  C   UNK N   1      38.465  12.367   9.073  0.00  0.00     0.004 A 
HETATM   20  C   UNK N   1      38.733  13.856   9.111  0.00  0.00     0.007 A 
HETATM   21  C   UNK N   1      38.416  13.174   7.794  0.00  0.00     0.007 A 
ENDBRANCH  18  19
ENDBRANCH   1  18
BRANCH   3  22
HETATM   22  C   UNK N   1      36.175  12.934  14.473  0.00  0.00    -0.007 A 
HETATM   23  C   UNK N   1      36.937  13.925  15.116  0.00  0.00     0.017 A 
HETATM   24  C   UNK N   1      36.579  14.391  16.386  0.00  0.00     0.043 A 
HETATM   25  C   UNK N   1      35.450  13.875  17.027  0.00  0.00     0.116 A 
HETATM   26  F   UNK N   1      35.101  14.319  18.258  0.00  0.00    -0.206 F 
HETATM   27  C   UNK N   1      34.683  12.897  16.396  0.00  0.00     0.043 A 
HETATM   28  C   UNK N   1      35.051  12.432  15.134  0.00  0.00     0.017 A 
ENDBRANCH   3  22
TORSDOF 4
ENDMDL
MODEL 5
REMARK VINA RESULT:      -6.5      5.581      7.963
REMARK  4 active torsions:
REMARK  status: ('A' for Active; 'I' for Inactive)
REMARK    1  A    between atoms: C_6  and  C_19 
REMARK       I    between atoms: C_11  and  N_16 
REMARK    2  A    between atoms: C_14  and  C_18 
REMARK    3  A    between atoms: N_17  and  C_23 
REMARK    4  A    between atoms: C_23  and  C_24 
ROOT
HETATM    1  N   UNK N   1      35.617  15.124  11.005  0.00  0.00    -0.339 N 
HETATM    2  C   UNK N   1      34.917  14.923   9.864  0.00  0.00     0.090 A 
HETATM    3  C   UNK N   1      34.471  16.188   9.429  0.00  0.00     0.072 A 
HETATM    4  N   UNK N   1      34.912  17.113  10.310  0.00  0.00    -0.350 N 
ATOM      5  HN  UNK N   1      34.750  18.119  10.270  1.00  0.00     0.166 HD
HETATM    6  C   UNK N   1      35.608  16.445  11.250  0.00  0.00     0.184 A 
ENDROOT
BRANCH   2   7
HETATM    7  C   UNK N   1      34.686  13.563   9.271  0.00  0.00     0.079 A 
HETATM    8  N   UNK N   1      33.648  12.787   9.667  0.00  0.00    -0.190 N 
HETATM    9  C   UNK N   1      33.438  11.547   9.153  0.00  0.00     0.676 A 
ATOM     10  HN  UNK N   1      33.003  13.146  10.372  1.00  0.00     0.184 HD
HETATM   11  N   UNK N   1      34.288  11.047   8.220  0.00  0.00    -0.202 N 
HETATM   12  N   UNK N   1      32.342  10.781   9.591  0.00  0.00    -0.234 N 
HETATM   13  C   UNK N   1      35.342  11.782   7.783  0.00  0.00     0.108 A 
ATOM     14  HN  UNK N   1      34.134  10.111   7.844  1.00  0.00     0.183 HD
HETATM   15  C   UNK N   1      35.557  13.060   8.296  0.00  0.00     0.050 A 
HETATM   16  H   UNK N   1      31.779  11.087  10.338  0.00  0.00     0.174 HD
HETATM   17  H   UNK N   1      32.136   9.929   9.144  0.00  0.00     0.174 HD
ENDBRANCH   2   7
BRANCH   1  18
HETATM   18  C   UNK N   1      36.310  14.143  11.833  0.00  0.00     0.134 C 
BRANCH  18  19
HETATM   19  C   UNK N   1      35.591  13.963  13.158  0.00  0.00     0.004 A 
HETATM   20  C   UNK N   1      36.519  14.303  14.303  0.00  0.00     0.007 A 
HETATM   21  C   UNK N   1      36.267  12.855  13.934  0.00  0.00     0.007 A 
ENDBRANCH  18  19
ENDBRANCH   1  18
BRANCH   3  22
HETATM   22  C   UNK N   1      33.610  16.600   8.280  0.00  0.00    -0.007 A 
HETATM   23  C   UNK N   1      32.224  16.375   8.358  0.00  0.00     0.017 A 
HETATM   24  C   UNK N   1      31.385  16.708   7.288  0.00  0.00     0.043 A 
HETATM   25  C   UNK N   1      31.921  17.275   6.130  0.00  0.00     0.116 A 
HETATM   26  F   UNK N   1      31.114  17.595   5.090  0.00  0.00    -0.206 F 
HETATM   27  C   UNK N   1      33.292  17.509   6.045  0.00  0.00     0.043 A 
HETATM   28  C   UNK N   1      34.123  17.167   7.111  0.00  0.00     0.017 A 
ENDBRANCH   3  22
TORSDOF 4
ENDMDL
MODEL 6
REMARK VINA RESULT:      -6.4     10.953     14.148
REMARK  4 active torsions:
REMARK  status: ('A' for Active; 'I' for Inactive)
REMARK    1  A    between atoms: C_6  and  C_19 
REMARK       I    between atoms: C_11  and  N_16 
REMARK    2  A    between atoms: C_14  and  C_18 
REMARK    3  A    between atoms: N_17  and  C_23 
REMARK    4  A    between atoms: C_23  and  C_24 
ROOT
HETATM    1  N   UNK N   1      26.489  24.079  -7.326  0.00  0.00    -0.339 N 
HETATM    2  C   UNK N   1      26.854  24.850  -6.276  0.00  0.00     0.090 A 
HETATM    3  C   UNK N   1      26.444  26.166  -6.571  0.00  0.00     0.072 A 
HETATM    4  N   UNK N   1      25.843  26.156  -7.783  0.00  0.00    -0.350 N 
ATOM      5  HN  UNK N   1      25.444  26.956  -8.272  1.00  0.00     0.166 HD
HETATM    6  C   UNK N   1      25.878  24.881  -8.216  0.00  0.00     0.184 A 
ENDROOT
BRANCH   2   7
HETATM    7  C   UNK N   1      27.586  24.315  -5.079  0.00  0.00     0.079 A 
HETATM    8  N   UNK N   1      28.842  23.818  -5.184  0.00  0.00    -0.190 N 
HETATM    9  C   UNK N   1      29.509  23.312  -4.114  0.00  0.00     0.676 A 
ATOM     10  HN  UNK N   1      29.302  23.825  -6.095  1.00  0.00     0.184 HD
HETATM   11  N   UNK N   1      28.913  23.286  -2.894  0.00  0.00    -0.202 N 
HETATM   12  N   UNK N   1      30.815  22.814  -4.271  0.00  0.00    -0.234 N 
HETATM   13  C   UNK N   1      27.658  23.774  -2.730  0.00  0.00     0.108 A 
ATOM     14  HN  UNK N   1      29.412  22.896  -2.095  1.00  0.00     0.183 HD
HETATM   15  C   UNK N   1      26.972  24.306  -3.820  0.00  0.00     0.050 A 
HETATM   16  H   UNK N   1      31.220  22.732  -5.164  0.00  0.00     0.174 HD
HETATM   17  H   UNK N   1      31.331  22.544  -3.477  0.00  0.00     0.174 HD
ENDBRANCH   2   7
BRANCH   1  18
HETATM   18  C   UNK N   1      26.657  22.641  -7.503  0.00  0.00     0.134 C 
BRANCH  18  19
HETATM   19  C   UNK N   1      25.413  22.033  -8.128  0.00  0.00     0.004 A 
HETATM   20  C   UNK N   1      24.593  21.327  -7.071  0.00  0.00     0.007 A 
HETATM   21  C   UNK N   1      25.488  20.528  -7.998  0.00  0.00     0.007 A 
ENDBRANCH  18  19
ENDBRANCH   1  18
BRANCH   3  22
HETATM   22  C   UNK N   1      26.621  27.454  -5.836  0.00  0.00    -0.007 A 
HETATM   23  C   UNK N   1      25.828  27.701  -4.701  0.00  0.00     0.017 A 
HETATM   24  C   UNK N   1      25.931  28.911  -4.006  0.00  0.00     0.043 A 
HETATM   25  C   UNK N   1      26.834  29.887  -4.434  0.00  0.00     0.116 A 
HETATM   26  F   UNK N   1      26.935  31.062  -3.768  0.00  0.00    -0.206 F 
HETATM   27  C   UNK N   1      27.630  29.651  -5.553  0.00  0.00     0.043 A 
HETATM   28  C   UNK N   1      27.515  28.447  -6.246  0.00  0.00     0.017 A 
ENDBRANCH   3  22
TORSDOF 4
ENDMDL
MODEL 7
REMARK VINA RESULT:      -6.4      1.361      1.945
REMARK  4 active torsions:
REMARK  status: ('A' for Active; 'I' for Inactive)
REMARK    1  A    between atoms: C_6  and  C_19 
REMARK       I    between atoms: C_11  and  N_16 
REMARK    2  A    between atoms: C_14  and  C_18 
REMARK    3  A    between atoms: N_17  and  C_23 
REMARK    4  A    between atoms: C_23  and  C_24 
ROOT
HETATM    1  N   UNK N   1      30.712  17.171   7.491  0.00  0.00    -0.339 N 
HETATM    2  C   UNK N   1      30.240  17.335   6.234  0.00  0.00     0.090 A 
HETATM    3  C   UNK N   1      29.002  18.000   6.343  0.00  0.00     0.072 A 
HETATM    4  N   UNK N   1      28.760  18.222   7.655  0.00  0.00    -0.350 N 
ATOM      5  HN  UNK N   1      27.943  18.681   8.055  1.00  0.00     0.166 HD
HETATM    6  C   UNK N   1      29.812  17.716   8.328  0.00  0.00     0.184 A 
ENDROOT
BRANCH   2   7
HETATM    7  C   UNK N   1      30.961  16.835   5.015  0.00  0.00     0.079 A 
HETATM    8  N   UNK N   1      30.771  15.577   4.549  0.00  0.00    -0.190 N 
HETATM    9  C   UNK N   1      31.431  15.105   3.459  0.00  0.00     0.676 A 
ATOM     10  HN  UNK N   1      30.111  14.966   5.030  1.00  0.00     0.184 HD
HETATM   11  N   UNK N   1      32.320  15.899   2.808  0.00  0.00    -0.202 N 
HETATM   12  N   UNK N   1      31.196  13.794   3.008  0.00  0.00    -0.234 N 
HETATM   13  C   UNK N   1      32.546  17.169   3.228  0.00  0.00     0.108 A 
ATOM     14  HN  UNK N   1      32.822  15.538   1.996  1.00  0.00     0.183 HD
HETATM   15  C   UNK N   1      31.864  17.665   4.338  0.00  0.00     0.050 A 
HETATM   16  H   UNK N   1      30.634  13.174   3.527  0.00  0.00     0.174 HD
HETATM   17  H   UNK N   1      31.597  13.492   2.161  0.00  0.00     0.174 HD
ENDBRANCH   2   7
BRANCH   1  18
HETATM   18  C   UNK N   1      31.968  16.567   7.923  0.00  0.00     0.134 C 
BRANCH  18  19
HETATM   19  C   UNK N   1      32.970  17.641   8.309  0.00  0.00     0.004 A 
HETATM   20  C   UNK N   1      34.136  17.633   7.345  0.00  0.00     0.007 A 
HETATM   21  C   UNK N   1      34.269  16.976   8.705  0.00  0.00     0.007 A 
ENDBRANCH  18  19
ENDBRANCH   1  18
BRANCH   3  22
HETATM   22  C   UNK N   1      27.989  18.396   5.319  0.00  0.00    -0.007 A 
HETATM   23  C   UNK N   1      28.026  19.702   4.800  0.00  0.00     0.017 A 
HETATM   24  C   UNK N   1      27.071  20.129   3.870  0.00  0.00     0.043 A 
HETATM   25  C   UNK N   1      26.072  19.252   3.442  0.00  0.00     0.116 A 
HETATM   26  F   UNK N   1      25.143  19.661   2.545  0.00  0.00    -0.206 F 
HETATM   27  C   UNK N   1      26.030  17.953   3.944  0.00  0.00     0.043 A 
HETATM   28  C   UNK N   1      26.979  17.537   4.877  0.00  0.00     0.017 A 
ENDBRANCH   3  22
TORSDOF 4
ENDMDL
MODEL 8
REMARK VINA RESULT:      -6.3      3.019      6.753
REMARK  4 active torsions:
REMARK  status: ('A' for Active; 'I' for Inactive)
REMARK    1  A    between atoms: C_6  and  C_19 
REMARK       I    between atoms: C_11  and  N_16 
REMARK    2  A    between atoms: C_14  and  C_18 
REMARK    3  A    between atoms: N_17  and  C_23 
REMARK    4  A    between atoms: C_23  and  C_24 
ROOT
HETATM    1  N   UNK N   1      27.458  16.781   3.387  0.00  0.00    -0.339 N 
HETATM    2  C   UNK N   1      28.349  17.412   4.187  0.00  0.00     0.090 A 
HETATM    3  C   UNK N   1      29.589  16.762   4.011  0.00  0.00     0.072 A 
HETATM    4  N   UNK N   1      29.416  15.765   3.114  0.00  0.00    -0.350 N 
ATOM      5  HN  UNK N   1      30.126  15.114   2.782  1.00  0.00     0.166 HD
HETATM    6  C   UNK N   1      28.120  15.801   2.748  0.00  0.00     0.184 A 
ENDROOT
BRANCH   2   7
HETATM    7  C   UNK N   1      27.981  18.559   5.083  0.00  0.00     0.079 A 
HETATM    8  N   UNK N   1      27.895  18.406   6.426  0.00  0.00    -0.190 N 
HETATM    9  C   UNK N   1      27.543  19.430   7.247  0.00  0.00     0.676 A 
ATOM     10  HN  UNK N   1      28.102  17.494   6.834  1.00  0.00     0.184 HD
HETATM   11  N   UNK N   1      27.257  20.650   6.724  0.00  0.00    -0.202 N 
HETATM   12  N   UNK N   1      27.474  19.225   8.637  0.00  0.00    -0.234 N 
HETATM   13  C   UNK N   1      27.331  20.861   5.386  0.00  0.00     0.108 A 
ATOM     14  HN  UNK N   1      26.982  21.414   7.342  1.00  0.00     0.183 HD
HETATM   15  C   UNK N   1      27.702  19.819   4.539  0.00  0.00     0.050 A 
HETATM   16  H   UNK N   1      27.579  18.324   9.020  0.00  0.00     0.174 HD
HETATM   17  H   UNK N   1      27.320  19.992   9.234  0.00  0.00     0.174 HD
ENDBRANCH   2   7
BRANCH   1  18
HETATM   18  C   UNK N   1      26.046  17.083   3.180  0.00  0.00     0.134 C 
BRANCH  18  19
HETATM   19  C   UNK N   1      25.174  16.019   3.822  0.00  0.00     0.004 A 
HETATM   20  C   UNK N   1      23.841  16.611   4.222  0.00  0.00     0.007 A 
HETATM   21  C   UNK N   1      24.922  16.399   5.264  0.00  0.00     0.007 A 
ENDBRANCH  18  19
ENDBRANCH   1  18
BRANCH   3  22
HETATM   22  C   UNK N   1      30.919  16.961   4.661  0.00  0.00    -0.007 A 
HETATM   23  C   UNK N   1      31.050  16.685   6.034  0.00  0.00     0.017 A 
HETATM   24  C   UNK N   1      32.267  16.895   6.692  0.00  0.00     0.043 A 
HETATM   25  C   UNK N   1      33.369  17.379   5.985  0.00  0.00     0.116 A 
HETATM   26  F   UNK N   1      34.548  17.590   6.618  0.00  0.00    -0.206 F 
HETATM   27  C   UNK N   1      33.253  17.650   4.622  0.00  0.00     0.043 A 
HETATM   28  C   UNK N   1      32.035  17.446   3.975  0.00  0.00     0.017 A 
ENDBRANCH   3  22
TORSDOF 4
ENDMDL
MODEL 9
REMARK VINA RESULT:      -6.3     10.746     13.537
REMARK  4 active torsions:
REMARK  status: ('A' for Active; 'I' for Inactive)
REMARK    1  A    between atoms: C_6  and  C_19 
REMARK       I    between atoms: C_11  and  N_16 
REMARK    2  A    between atoms: C_14  and  C_18 
REMARK    3  A    between atoms: N_17  and  C_23 
REMARK    4  A    between atoms: C_23  and  C_24 
ROOT
HETATM    1  N   UNK N   1      29.165  27.280  -4.090  0.00  0.00    -0.339 N 
HETATM    2  C   UNK N   1      28.893  25.985  -4.376  0.00  0.00     0.090 A 
HETATM    3  C   UNK N   1      29.986  25.225  -3.914  0.00  0.00     0.072 A 
HETATM    4  N   UNK N   1      30.883  26.073  -3.362  0.00  0.00    -0.350 N 
ATOM      5  HN  UNK N   1      31.779  25.825  -2.943  1.00  0.00     0.166 HD
HETATM    6  C   UNK N   1      30.361  27.309  -3.476  0.00  0.00     0.184 A 
ENDROOT
BRANCH   2   7
HETATM    7  C   UNK N   1      27.645  25.546  -5.086  0.00  0.00     0.079 A 
HETATM    8  N   UNK N   1      27.396  25.911  -6.367  0.00  0.00    -0.190 N 
HETATM    9  C   UNK N   1      26.262  25.537  -7.016  0.00  0.00     0.676 A 
ATOM     10  HN  UNK N   1      28.082  26.482  -6.860  1.00  0.00     0.184 HD
HETATM   11  N   UNK N   1      25.333  24.783  -6.375  0.00  0.00    -0.202 N 
HETATM   12  N   UNK N   1      26.051  25.934  -8.348  0.00  0.00    -0.234 N 
HETATM   13  C   UNK N   1      25.531  24.385  -5.094  0.00  0.00     0.108 A 
ATOM     14  HN  UNK N   1      24.477  24.513  -6.861  1.00  0.00     0.183 HD
HETATM   15  C   UNK N   1      26.697  24.754  -4.426  0.00  0.00     0.050 A 
HETATM   16  H   UNK N   1      26.665  26.564  -8.791  0.00  0.00     0.174 HD
HETATM   17  H   UNK N   1      25.281  25.578  -8.845  0.00  0.00     0.174 HD
ENDBRANCH   2   7
BRANCH   1  18
HETATM   18  C   UNK N   1      28.343  28.460  -4.335  0.00  0.00     0.134 C 
BRANCH  18  19
HETATM   19  C   UNK N   1      27.369  28.677  -3.190  0.00  0.00     0.004 A 
HETATM   20  C   UNK N   1      25.951  28.451  -3.664  0.00  0.00     0.007 A 
HETATM   21  C   UNK N   1      26.487  29.861  -3.518  0.00  0.00     0.007 A 
ENDBRANCH  18  19
ENDBRANCH   1  18
BRANCH   3  22
HETATM   22  C   UNK N   1      30.292  23.765  -3.998  0.00  0.00    -0.007 A 
HETATM   23  C   UNK N   1      30.926  23.141  -2.909  0.00  0.00     0.017 A 
HETATM   24  C   UNK N   1      31.267  21.785  -2.962  0.00  0.00     0.043 A 
HETATM   25  C   UNK N   1      30.973  21.034  -4.102  0.00  0.00     0.116 A 
HETATM   26  F   UNK N   1      31.306  19.723  -4.161  0.00  0.00    -0.206 F 
HETATM   27  C   UNK N   1      30.338  21.640  -5.185  0.00  0.00     0.043 A 
HETATM   28  C   UNK N   1      30.009  22.994  -5.129  0.00  0.00     0.017 A 
ENDBRANCH   3  22
TORSDOF 4
ENDMDL
