MODEL 1
REMARK VINA RESULT:      -7.3      0.000      0.000
REMARK  7 active torsions:
REMARK  status: ('A' for Active; 'I' for Inactive)
REMARK    1  A    between atoms: C_3  and  S_14 
REMARK    2  A    between atoms: C_6  and  C_7 
REMARK       I    between atoms: C_7  and  N_9 
REMARK    3  A    between atoms: N_9  and  C_10 
REMARK    4  A    between atoms: C_10  and  C_11 
REMARK    5  A    between atoms: C_11  and  C_12 
REMARK    6  A    between atoms: C_11  and  C_25 
REMARK    7  A    between atoms: S_14  and  N_15 
ROOT
HETATM    1  C   UNK N   1      25.512  22.871  -6.821  0.00  0.00     0.251 C 
HETATM    2  O   UNK N   1      24.782  21.982  -6.398  0.00  0.00    -0.268 OA
HETATM    3  N   UNK N   1      25.210  23.436  -8.018  0.00  0.00    -0.356 N 
HETATM    4  H   UNK N   1      24.325  23.238  -8.400  0.00  0.00     0.162 HD
ENDROOT
BRANCH   3   5
HETATM    5  C   UNK N   1      26.086  24.309  -8.782  0.00  0.00     0.132 C 
BRANCH   5   6
HETATM    6  C   UNK N   1      25.607  25.768  -8.806  0.00  0.00     0.036 C 
BRANCH   6   7
HETATM    7  C   UNK N   1      25.950  26.355 -10.179  0.00  0.00     0.006 C 
HETATM    8  C   UNK N   1      24.755  26.328 -11.124  0.00  0.00     0.006 C 
ENDBRANCH   6   7
BRANCH   6   9
HETATM    9  C   UNK N   1      26.161  26.608  -7.659  0.00  0.00    -0.051 A 
HETATM   10  C   UNK N   1      25.395  26.802  -6.487  0.00  0.00     0.021 A 
HETATM   11  C   UNK N   1      25.917  27.621  -5.490  0.00  0.00    -0.008 A 
HETATM   12  C   UNK N   1      25.380  28.003  -4.285  0.00  0.00     0.030 A 
HETATM   13  C   UNK N   1      27.137  28.213  -5.606  0.00  0.00     0.042 A 
HETATM   14  C   UNK N   1      26.339  28.840  -3.711  0.00  0.00     0.089 A 
HETATM   15  N   UNK N   1      27.413  28.960  -4.529  0.00  0.00    -0.365 N 
HETATM   16  H   UNK N   1      28.228  29.488  -4.367  0.00  0.00     0.165 HD
HETATM   17  C   UNK N   1      27.940  28.032  -6.721  0.00  0.00     0.031 A 
HETATM   18  C   UNK N   1      27.440  27.224  -7.753  0.00  0.00     0.010 A 
ENDBRANCH   6   9
ENDBRANCH   5   6
ENDBRANCH   3   5
BRANCH   1  19
HETATM   19  C   UNK N   1      26.720  23.234  -6.040  0.00  0.00     0.032 A 
HETATM   20  C   UNK N   1      26.603  24.034  -4.891  0.00  0.00     0.018 A 
HETATM   21  C   UNK N   1      27.729  24.314  -4.110  0.00  0.00     0.026 A 
HETATM   22  C   UNK N   1      28.982  23.826  -4.496  0.00  0.00     0.079 A 
HETATM   23  C   UNK N   1      29.111  23.076  -5.663  0.00  0.00     0.026 A 
HETATM   24  C   UNK N   1      27.987  22.778  -6.426  0.00  0.00     0.018 A 
BRANCH  22  25
HETATM   25  S   UNK N   1      30.408  24.030  -3.447  0.00  0.00     0.256 S 
HETATM   26  O   UNK N   1      30.726  25.495  -3.116  0.00  0.00    -0.201 OA
HETATM   27  O   UNK N   1      30.131  23.453  -2.051  0.00  0.00    -0.201 OA
BRANCH  25  28
HETATM   28  N   UNK N   1      31.939  23.300  -3.933  0.00  0.00    -0.324 N 
HETATM   29  H   UNK N   1      32.123  22.316  -4.128  0.00  0.00     0.169 HD
HETATM   30  H   UNK N   1      32.731  23.936  -4.032  0.00  0.00     0.169 HD
ENDBRANCH  25  28
ENDBRANCH  22  25
ENDBRANCH   1  19
TORSDOF 7
ENDMDL
MODEL 2
REMARK VINA RESULT:      -7.1     16.912     20.527
REMARK  7 active torsions:
REMARK  status: ('A' for Active; 'I' for Inactive)
REMARK    1  A    between atoms: C_3  and  S_14 
REMARK    2  A    between atoms: C_6  and  C_7 
REMARK       I    between atoms: C_7  and  N_9 
REMARK    3  A    between atoms: N_9  and  C_10 
REMARK    4  A    between atoms: C_10  and  C_11 
REMARK    5  A    between atoms: C_11  and  C_12 
REMARK    6  A    between atoms: C_11  and  C_25 
REMARK    7  A    between atoms: S_14  and  N_15 
ROOT
HETATM    1  C   UNK N   1      34.628  18.171   8.611  0.00  0.00     0.251 C 
HETATM    2  O   UNK N   1      35.245  19.207   8.395  0.00  0.00    -0.268 OA
HETATM    3  N   UNK N   1      34.970  17.432   9.697  0.00  0.00    -0.356 N 
HETATM    4  H   UNK N   1      35.567  17.851  10.357  0.00  0.00     0.162 HD
ENDROOT
BRANCH   3   5
HETATM    5  C   UNK N   1      34.530  16.072   9.964  0.00  0.00     0.132 C 
BRANCH   5   6
HETATM    6  C   UNK N   1      35.548  15.014   9.516  0.00  0.00     0.036 C 
BRANCH   6   7
HETATM    7  C   UNK N   1      34.886  14.147   8.440  0.00  0.00     0.006 C 
HETATM    8  C   UNK N   1      33.366  14.161   8.554  0.00  0.00     0.006 C 
ENDBRANCH   6   7
BRANCH   6   9
HETATM    9  C   UNK N   1      36.109  14.183  10.667  0.00  0.00    -0.051 A 
HETATM   10  C   UNK N   1      35.705  14.448  11.995  0.00  0.00     0.021 A 
HETATM   11  C   UNK N   1      36.284  13.702  13.019  0.00  0.00    -0.008 A 
HETATM   12  C   UNK N   1      36.105  13.775  14.378  0.00  0.00     0.030 A 
HETATM   13  C   UNK N   1      37.199  12.726  12.773  0.00  0.00     0.042 A 
HETATM   14  C   UNK N   1      36.954  12.800  14.907  0.00  0.00     0.089 A 
HETATM   15  N   UNK N   1      37.619  12.162  13.912  0.00  0.00    -0.365 N 
HETATM   16  H   UNK N   1      38.275  11.434  14.008  0.00  0.00     0.165 HD
HETATM   17  C   UNK N   1      37.606  12.407  11.487  0.00  0.00     0.031 A 
HETATM   18  C   UNK N   1      37.054  13.147  10.431  0.00  0.00     0.010 A 
ENDBRANCH   6   9
ENDBRANCH   5   6
ENDBRANCH   3   5
BRANCH   1  19
HETATM   19  C   UNK N   1      33.589  17.744   7.641  0.00  0.00     0.032 A 
HETATM   20  C   UNK N   1      32.237  17.713   8.023  0.00  0.00     0.018 A 
HETATM   21  C   UNK N   1      31.249  17.386   7.089  0.00  0.00     0.026 A 
HETATM   22  C   UNK N   1      31.612  17.051   5.780  0.00  0.00     0.079 A 
HETATM   23  C   UNK N   1      32.955  17.029   5.411  0.00  0.00     0.026 A 
HETATM   24  C   UNK N   1      33.936  17.378   6.334  0.00  0.00     0.018 A 
BRANCH  22  25
HETATM   25  S   UNK N   1      30.374  16.781   4.526  0.00  0.00     0.256 S 
HETATM   26  O   UNK N   1      29.664  15.424   4.642  0.00  0.00    -0.201 OA
HETATM   27  O   UNK N   1      29.204  17.757   4.712  0.00  0.00    -0.201 OA
BRANCH  25  28
HETATM   28  N   UNK N   1      30.827  16.947   2.829  0.00  0.00    -0.324 N 
HETATM   29  H   UNK N   1      31.489  16.376   2.304  0.00  0.00     0.169 HD
HETATM   30  H   UNK N   1      30.374  17.701   2.313  0.00  0.00     0.169 HD
ENDBRANCH  25  28
ENDBRANCH  22  25
ENDBRANCH   1  19
TORSDOF 7
ENDMDL
MODEL 3
REMARK VINA RESULT:      -7.0      2.497      5.493
REMARK  7 active torsions:
REMARK  status: ('A' for Active; 'I' for Inactive)
REMARK    1  A    between atoms: C_3  and  S_14 
REMARK    2  A    between atoms: C_6  and  C_7 
REMARK       I    between atoms: C_7  and  N_9 
REMARK    3  A    between atoms: N_9  and  C_10 
REMARK    4  A    between atoms: C_10  and  C_11 
REMARK    5  A    between atoms: C_11  and  C_12 
REMARK    6  A    between atoms: C_11  and  C_25 
REMARK    7  A    between atoms: S_14  and  N_15 
ROOT
HETATM    1  C   UNK N   1      30.167  23.185  -2.901  0.00  0.00     0.251 C 
HETATM    2  O   UNK N   1      30.403  23.050  -1.707  0.00  0.00    -0.268 OA
HETATM    3  N   UNK N   1      30.862  22.422  -3.784  0.00  0.00    -0.356 N 
HETATM    4  H   UNK N   1      31.386  21.673  -3.419  0.00  0.00     0.162 HD
ENDROOT
BRANCH   3   5
HETATM    5  C   UNK N   1      30.899  22.622  -5.224  0.00  0.00     0.132 C 
BRANCH   5   6
HETATM    6  C   UNK N   1      29.746  21.919  -5.955  0.00  0.00     0.036 C 
BRANCH   6   7
HETATM    7  C   UNK N   1      30.350  21.031  -7.047  0.00  0.00     0.006 C 
HETATM    8  C   UNK N   1      29.466  19.830  -7.359  0.00  0.00     0.006 C 
ENDBRANCH   6   7
BRANCH   6   9
HETATM    9  C   UNK N   1      28.697  22.883  -6.504  0.00  0.00    -0.051 A 
HETATM   10  C   UNK N   1      29.085  24.151  -6.991  0.00  0.00     0.021 A 
HETATM   11  C   UNK N   1      28.090  25.019  -7.431  0.00  0.00    -0.008 A 
HETATM   12  C   UNK N   1      28.181  26.302  -7.911  0.00  0.00     0.030 A 
HETATM   13  C   UNK N   1      26.774  24.672  -7.423  0.00  0.00     0.042 A 
HETATM   14  C   UNK N   1      26.864  26.681  -8.180  0.00  0.00     0.089 A 
HETATM   15  N   UNK N   1      26.010  25.673  -7.878  0.00  0.00    -0.365 N 
HETATM   16  H   UNK N   1      25.029  25.675  -7.974  0.00  0.00     0.165 HD
HETATM   17  C   UNK N   1      26.343  23.429  -6.984  0.00  0.00     0.031 A 
HETATM   18  C   UNK N   1      27.318  22.534  -6.521  0.00  0.00     0.010 A 
ENDBRANCH   6   9
ENDBRANCH   5   6
ENDBRANCH   3   5
BRANCH   1  19
HETATM   19  C   UNK N   1      29.188  24.217  -3.324  0.00  0.00     0.032 A 
HETATM   20  C   UNK N   1      27.811  23.952  -3.255  0.00  0.00     0.018 A 
HETATM   21  C   UNK N   1      26.885  24.949  -3.579  0.00  0.00     0.026 A 
HETATM   22  C   UNK N   1      27.334  26.202  -4.009  0.00  0.00     0.079 A 
HETATM   23  C   UNK N   1      28.699  26.452  -4.129  0.00  0.00     0.026 A 
HETATM   24  C   UNK N   1      29.619  25.468  -3.784  0.00  0.00     0.018 A 
BRANCH  22  25
HETATM   25  S   UNK N   1      26.190  27.542  -4.280  0.00  0.00     0.256 S 
HETATM   26  O   UNK N   1      25.021  27.177  -5.206  0.00  0.00    -0.201 OA
HETATM   27  O   UNK N   1      25.456  27.888  -2.978  0.00  0.00    -0.201 OA
BRANCH  25  28
HETATM   28  N   UNK N   1      26.808  29.087  -4.867  0.00  0.00    -0.324 N 
HETATM   29  H   UNK N   1      27.556  29.240  -5.543  0.00  0.00     0.169 HD
HETATM   30  H   UNK N   1      26.366  29.924  -4.487  0.00  0.00     0.169 HD
ENDBRANCH  25  28
ENDBRANCH  22  25
ENDBRANCH   1  19
TORSDOF 7
ENDMDL
MODEL 4
REMARK VINA RESULT:      -7.0      2.949      6.454
REMARK  7 active torsions:
REMARK  status: ('A' for Active; 'I' for Inactive)
REMARK    1  A    between atoms: C_3  and  S_14 
REMARK    2  A    between atoms: C_6  and  C_7 
REMARK       I    between atoms: C_7  and  N_9 
REMARK    3  A    between atoms: N_9  and  C_10 
REMARK    4  A    between atoms: C_10  and  C_11 
REMARK    5  A    between atoms: C_11  and  C_12 
REMARK    6  A    between atoms: C_11  and  C_25 
REMARK    7  A    between atoms: S_14  and  N_15 
ROOT
HETATM    1  C   UNK N   1      30.249  23.095  -2.634  0.00  0.00     0.251 C 
HETATM    2  O   UNK N   1      30.452  23.042  -1.428  0.00  0.00    -0.268 OA
HETATM    3  N   UNK N   1      31.012  22.324  -3.451  0.00  0.00    -0.356 N 
HETATM    4  H   UNK N   1      31.562  21.626  -3.027  0.00  0.00     0.162 HD
ENDROOT
BRANCH   3   5
HETATM    5  C   UNK N   1      31.085  22.443  -4.898  0.00  0.00     0.132 C 
BRANCH   5   6
HETATM    6  C   UNK N   1      30.582  21.190  -5.629  0.00  0.00     0.036 C 
BRANCH   6   7
HETATM    7  C   UNK N   1      31.752  20.606  -6.426  0.00  0.00     0.006 C 
HETATM    8  C   UNK N   1      32.770  19.919  -5.523  0.00  0.00     0.006 C 
ENDBRANCH   6   7
BRANCH   6   9
HETATM    9  C   UNK N   1      29.355  21.446  -6.500  0.00  0.00    -0.051 A 
HETATM   10  C   UNK N   1      28.575  22.608  -6.304  0.00  0.00     0.021 A 
HETATM   11  C   UNK N   1      27.435  22.773  -7.084  0.00  0.00    -0.008 A 
HETATM   12  C   UNK N   1      26.493  23.772  -7.077  0.00  0.00     0.030 A 
HETATM   13  C   UNK N   1      27.070  21.866  -8.031  0.00  0.00     0.042 A 
HETATM   14  C   UNK N   1      25.569  23.405  -8.059  0.00  0.00     0.089 A 
HETATM   15  N   UNK N   1      25.935  22.235  -8.638  0.00  0.00    -0.365 N 
HETATM   16  H   UNK N   1      25.463  21.755  -9.357  0.00  0.00     0.165 HD
HETATM   17  C   UNK N   1      27.815  20.725  -8.283  0.00  0.00     0.031 A 
HETATM   18  C   UNK N   1      28.965  20.519  -7.506  0.00  0.00     0.010 A 
ENDBRANCH   6   9
ENDBRANCH   5   6
ENDBRANCH   3   5
BRANCH   1  19
HETATM   19  C   UNK N   1      29.231  24.047  -3.145  0.00  0.00     0.032 A 
HETATM   20  C   UNK N   1      27.863  23.764  -2.997  0.00  0.00     0.018 A 
HETATM   21  C   UNK N   1      26.903  24.694  -3.408  0.00  0.00     0.026 A 
HETATM   22  C   UNK N   1      27.307  25.894  -4.003  0.00  0.00     0.079 A 
HETATM   23  C   UNK N   1      28.661  26.156  -4.199  0.00  0.00     0.026 A 
HETATM   24  C   UNK N   1      29.615  25.241  -3.769  0.00  0.00     0.018 A 
BRANCH  22  25
HETATM   25  S   UNK N   1      26.122  27.166  -4.395  0.00  0.00     0.256 S 
HETATM   26  O   UNK N   1      25.443  27.779  -3.162  0.00  0.00    -0.201 OA
HETATM   27  O   UNK N   1      26.830  28.389  -4.995  0.00  0.00    -0.201 OA
BRANCH  25  28
HETATM   28  N   UNK N   1      24.823  26.803  -5.533  0.00  0.00    -0.324 N 
HETATM   29  H   UNK N   1      24.628  25.911  -5.988  0.00  0.00     0.169 HD
HETATM   30  H   UNK N   1      24.194  27.573  -5.761  0.00  0.00     0.169 HD
ENDBRANCH  25  28
ENDBRANCH  22  25
ENDBRANCH   1  19
TORSDOF 7
ENDMDL
MODEL 5
REMARK VINA RESULT:      -6.9      2.483      5.823
REMARK  7 active torsions:
REMARK  status: ('A' for Active; 'I' for Inactive)
REMARK    1  A    between atoms: C_3  and  S_14 
REMARK    2  A    between atoms: C_6  and  C_7 
REMARK       I    between atoms: C_7  and  N_9 
REMARK    3  A    between atoms: N_9  and  C_10 
REMARK    4  A    between atoms: C_10  and  C_11 
REMARK    5  A    between atoms: C_11  and  C_12 
REMARK    6  A    between atoms: C_11  and  C_25 
REMARK    7  A    between atoms: S_14  and  N_15 
ROOT
HETATM    1  C   UNK N   1      30.201  23.087  -2.657  0.00  0.00     0.251 C 
HETATM    2  O   UNK N   1      30.414  23.061  -1.451  0.00  0.00    -0.268 OA
HETATM    3  N   UNK N   1      30.947  22.286  -3.460  0.00  0.00    -0.356 N 
HETATM    4  H   UNK N   1      31.493  21.593  -3.024  0.00  0.00     0.162 HD
ENDROOT
BRANCH   3   5
HETATM    5  C   UNK N   1      31.009  22.369  -4.911  0.00  0.00     0.132 C 
BRANCH   5   6
HETATM    6  C   UNK N   1      29.789  21.739  -5.599  0.00  0.00     0.036 C 
BRANCH   6   7
HETATM    7  C   UNK N   1      30.273  20.528  -6.403  0.00  0.00     0.006 C 
HETATM    8  C   UNK N   1      31.783  20.348  -6.307  0.00  0.00     0.006 C 
ENDBRANCH   6   7
BRANCH   6   9
HETATM    9  C   UNK N   1      28.997  22.725  -6.453  0.00  0.00    -0.051 A 
HETATM   10  C   UNK N   1      27.618  22.517  -6.682  0.00  0.00     0.021 A 
HETATM   11  C   UNK N   1      26.948  23.411  -7.513  0.00  0.00    -0.008 A 
HETATM   12  C   UNK N   1      25.639  23.426  -7.927  0.00  0.00     0.030 A 
HETATM   13  C   UNK N   1      27.575  24.476  -8.083  0.00  0.00     0.042 A 
HETATM   14  C   UNK N   1      25.536  24.542  -8.760  0.00  0.00     0.089 A 
HETATM   15  N   UNK N   1      26.729  25.179  -8.847  0.00  0.00    -0.365 N 
HETATM   16  H   UNK N   1      26.933  25.991  -9.365  0.00  0.00     0.165 HD
HETATM   17  C   UNK N   1      28.918  24.741  -7.867  0.00  0.00     0.031 A 
HETATM   18  C   UNK N   1      29.628  23.853  -7.046  0.00  0.00     0.010 A 
ENDBRANCH   6   9
ENDBRANCH   5   6
ENDBRANCH   3   5
BRANCH   1  19
HETATM   19  C   UNK N   1      29.189  24.037  -3.183  0.00  0.00     0.032 A 
HETATM   20  C   UNK N   1      29.595  25.254  -3.754  0.00  0.00     0.018 A 
HETATM   21  C   UNK N   1      28.651  26.116  -4.320  0.00  0.00     0.026 A 
HETATM   22  C   UNK N   1      27.293  25.782  -4.283  0.00  0.00     0.079 A 
HETATM   23  C   UNK N   1      26.881  24.600  -3.671  0.00  0.00     0.026 A 
HETATM   24  C   UNK N   1      27.823  23.732  -3.129  0.00  0.00     0.018 A 
BRANCH  22  25
HETATM   25  S   UNK N   1      26.080  26.777  -5.129  0.00  0.00     0.256 S 
HETATM   26  O   UNK N   1      26.571  27.339  -6.471  0.00  0.00    -0.201 OA
HETATM   27  O   UNK N   1      24.894  25.910  -5.573  0.00  0.00    -0.201 OA
BRANCH  25  28
HETATM   28  N   UNK N   1      25.343  28.135  -4.275  0.00  0.00    -0.324 N 
HETATM   29  H   UNK N   1      24.407  28.517  -4.409  0.00  0.00     0.169 HD
HETATM   30  H   UNK N   1      25.920  28.589  -3.567  0.00  0.00     0.169 HD
ENDBRANCH  25  28
ENDBRANCH  22  25
ENDBRANCH   1  19
TORSDOF 7
ENDMDL
MODEL 6
REMARK VINA RESULT:      -6.9     14.157     15.964
REMARK  7 active torsions:
REMARK  status: ('A' for Active; 'I' for Inactive)
REMARK    1  A    between atoms: C_3  and  S_14 
REMARK    2  A    between atoms: C_6  and  C_7 
REMARK       I    between atoms: C_7  and  N_9 
REMARK    3  A    between atoms: N_9  and  C_10 
REMARK    4  A    between atoms: C_10  and  C_11 
REMARK    5  A    between atoms: C_11  and  C_12 
REMARK    6  A    between atoms: C_11  and  C_25 
REMARK    7  A    between atoms: S_14  and  N_15 
ROOT
HETATM    1  C   UNK N   1      28.245  17.809   8.553  0.00  0.00     0.251 C 
HETATM    2  O   UNK N   1      27.686  17.168   9.435  0.00  0.00    -0.268 OA
HETATM    3  N   UNK N   1      27.474  18.463   7.646  0.00  0.00    -0.356 N 
HETATM    4  H   UNK N   1      26.514  18.543   7.845  0.00  0.00     0.162 HD
ENDROOT
BRANCH   3   5
HETATM    5  C   UNK N   1      27.949  19.052   6.404  0.00  0.00     0.132 C 
BRANCH   5   6
HETATM    6  C   UNK N   1      27.848  18.093   5.209  0.00  0.00     0.036 C 
BRANCH   6   7
HETATM    7  C   UNK N   1      26.585  17.245   5.390  0.00  0.00     0.006 C 
HETATM    8  C   UNK N   1      25.609  17.424   4.234  0.00  0.00     0.006 C 
ENDBRANCH   6   7
BRANCH   6   9
HETATM    9  C   UNK N   1      29.098  17.239   5.007  0.00  0.00    -0.051 A 
HETATM   10  C   UNK N   1      30.357  17.856   4.833  0.00  0.00     0.021 A 
HETATM   11  C   UNK N   1      31.460  17.040   4.597  0.00  0.00    -0.008 A 
HETATM   12  C   UNK N   1      32.772  17.370   4.361  0.00  0.00     0.030 A 
HETATM   13  C   UNK N   1      31.360  15.684   4.552  0.00  0.00     0.042 A 
HETATM   14  C   UNK N   1      33.424  16.149   4.177  0.00  0.00     0.089 A 
HETATM   15  N   UNK N   1      32.548  15.122   4.299  0.00  0.00    -0.365 N 
HETATM   16  H   UNK N   1      32.744  14.160   4.217  0.00  0.00     0.165 HD
HETATM   17  C   UNK N   1      30.153  15.029   4.746  0.00  0.00     0.031 A 
HETATM   18  C   UNK N   1      29.018  15.819   4.973  0.00  0.00     0.010 A 
ENDBRANCH   6   9
ENDBRANCH   5   6
ENDBRANCH   3   5
BRANCH   1  19
HETATM   19  C   UNK N   1      29.727  17.782   8.480  0.00  0.00     0.032 A 
HETATM   20  C   UNK N   1      30.464  18.962   8.673  0.00  0.00     0.018 A 
HETATM   21  C   UNK N   1      31.862  18.925   8.682  0.00  0.00     0.026 A 
HETATM   22  C   UNK N   1      32.527  17.715   8.459  0.00  0.00     0.079 A 
HETATM   23  C   UNK N   1      31.800  16.552   8.215  0.00  0.00     0.026 A 
HETATM   24  C   UNK N   1      30.410  16.585   8.230  0.00  0.00     0.018 A 
BRANCH  22  25
HETATM   25  S   UNK N   1      34.299  17.601   8.617  0.00  0.00     0.256 S 
HETATM   26  O   UNK N   1      34.957  16.707   7.557  0.00  0.00    -0.201 OA
HETATM   27  O   UNK N   1      34.950  18.960   8.320  0.00  0.00    -0.201 OA
BRANCH  25  28
HETATM   28  N   UNK N   1      34.989  17.106  10.164  0.00  0.00    -0.324 N 
HETATM   29  H   UNK N   1      34.931  17.599  11.056  0.00  0.00     0.169 HD
HETATM   30  H   UNK N   1      35.505  16.226  10.168  0.00  0.00     0.169 HD
ENDBRANCH  25  28
ENDBRANCH  22  25
ENDBRANCH   1  19
TORSDOF 7
ENDMDL
MODEL 7
REMARK VINA RESULT:      -6.9      2.927      6.457
REMARK  7 active torsions:
REMARK  status: ('A' for Active; 'I' for Inactive)
REMARK    1  A    between atoms: C_3  and  S_14 
REMARK    2  A    between atoms: C_6  and  C_7 
REMARK       I    between atoms: C_7  and  N_9 
REMARK    3  A    between atoms: N_9  and  C_10 
REMARK    4  A    between atoms: C_10  and  C_11 
REMARK    5  A    between atoms: C_11  and  C_12 
REMARK    6  A    between atoms: C_11  and  C_25 
REMARK    7  A    between atoms: S_14  and  N_15 
ROOT
HETATM    1  C   UNK N   1      26.440  27.467  -3.531  0.00  0.00     0.251 C 
HETATM    2  O   UNK N   1      25.455  27.865  -2.921  0.00  0.00    -0.268 OA
HETATM    3  N   UNK N   1      27.620  28.110  -3.338  0.00  0.00    -0.356 N 
HETATM    4  H   UNK N   1      27.671  28.743  -2.586  0.00  0.00     0.162 HD
ENDROOT
BRANCH   3   5
HETATM    5  C   UNK N   1      28.814  27.944  -4.152  0.00  0.00     0.132 C 
BRANCH   5   6
HETATM    6  C   UNK N   1      29.843  26.997  -3.517  0.00  0.00     0.036 C 
BRANCH   6   7
HETATM    7  C   UNK N   1      31.210  27.686  -3.564  0.00  0.00     0.006 C 
HETATM    8  C   UNK N   1      31.438  28.581  -2.351  0.00  0.00     0.006 C 
ENDBRANCH   6   7
BRANCH   6   9
HETATM    9  C   UNK N   1      29.869  25.611  -4.157  0.00  0.00    -0.051 A 
HETATM   10  C   UNK N   1      30.076  24.464  -3.358  0.00  0.00     0.021 A 
HETATM   11  C   UNK N   1      30.147  23.227  -3.991  0.00  0.00    -0.008 A 
HETATM   12  C   UNK N   1      30.372  21.976  -3.470  0.00  0.00     0.030 A 
HETATM   13  C   UNK N   1      30.004  23.095  -5.338  0.00  0.00     0.042 A 
HETATM   14  C   UNK N   1      30.353  21.117  -4.571  0.00  0.00     0.089 A 
HETATM   15  N   UNK N   1      30.125  21.814  -5.711  0.00  0.00    -0.365 N 
HETATM   16  H   UNK N   1      30.061  21.454  -6.625  0.00  0.00     0.165 HD
HETATM   17  C   UNK N   1      29.770  24.184  -6.163  0.00  0.00     0.031 A 
HETATM   18  C   UNK N   1      29.706  25.449  -5.561  0.00  0.00     0.010 A 
ENDBRANCH   6   9
ENDBRANCH   5   6
ENDBRANCH   3   5
BRANCH   1  19
HETATM   19  C   UNK N   1      26.279  26.351  -4.497  0.00  0.00     0.032 A 
HETATM   20  C   UNK N   1      26.390  25.021  -4.061  0.00  0.00     0.018 A 
HETATM   21  C   UNK N   1      26.162  23.967  -4.952  0.00  0.00     0.026 A 
HETATM   22  C   UNK N   1      25.860  24.241  -6.291  0.00  0.00     0.079 A 
HETATM   23  C   UNK N   1      25.800  25.558  -6.738  0.00  0.00     0.026 A 
HETATM   24  C   UNK N   1      26.004  26.606  -5.847  0.00  0.00     0.018 A 
BRANCH  22  25
HETATM   25  S   UNK N   1      25.412  22.932  -7.415  0.00  0.00     0.256 S 
HETATM   26  O   UNK N   1      24.695  23.425  -8.680  0.00  0.00    -0.201 OA
HETATM   27  O   UNK N   1      26.671  22.283  -8.008  0.00  0.00    -0.201 OA
BRANCH  25  28
HETATM   28  N   UNK N   1      24.455  21.578  -6.812  0.00  0.00    -0.324 N 
HETATM   29  H   UNK N   1      23.725  21.602  -6.100  0.00  0.00     0.169 HD
HETATM   30  H   UNK N   1      24.655  20.666  -7.223  0.00  0.00     0.169 HD
ENDBRANCH  25  28
ENDBRANCH  22  25
ENDBRANCH   1  19
TORSDOF 7
ENDMDL
MODEL 8
REMARK VINA RESULT:      -6.8     13.146     15.001
REMARK  7 active torsions:
REMARK  status: ('A' for Active; 'I' for Inactive)
REMARK    1  A    between atoms: C_3  and  S_14 
REMARK    2  A    between atoms: C_6  and  C_7 
REMARK       I    between atoms: C_7  and  N_9 
REMARK    3  A    between atoms: N_9  and  C_10 
REMARK    4  A    between atoms: C_10  and  C_11 
REMARK    5  A    between atoms: C_11  and  C_12 
REMARK    6  A    between atoms: C_11  and  C_25 
REMARK    7  A    between atoms: S_14  and  N_15 
ROOT
HETATM    1  C   UNK N   1      28.050  17.473   7.684  0.00  0.00     0.251 C 
HETATM    2  O   UNK N   1      27.387  16.512   8.058  0.00  0.00    -0.268 OA
HETATM    3  N   UNK N   1      27.393  18.552   7.185  0.00  0.00    -0.356 N 
HETATM    4  H   UNK N   1      26.419  18.587   7.317  0.00  0.00     0.162 HD
ENDROOT
BRANCH   3   5
HETATM    5  C   UNK N   1      28.010  19.658   6.471  0.00  0.00     0.132 C 
BRANCH   5   6
HETATM    6  C   UNK N   1      27.447  19.845   5.055  0.00  0.00     0.036 C 
BRANCH   6   7
HETATM    7  C   UNK N   1      26.166  20.677   5.162  0.00  0.00     0.006 C 
HETATM    8  C   UNK N   1      26.257  21.723   6.266  0.00  0.00     0.006 C 
ENDBRANCH   6   7
BRANCH   6   9
HETATM    9  C   UNK N   1      27.227  18.531   4.310  0.00  0.00    -0.051 A 
HETATM   10  C   UNK N   1      28.331  17.729   3.944  0.00  0.00     0.021 A 
HETATM   11  C   UNK N   1      28.087  16.567   3.218  0.00  0.00    -0.008 A 
HETATM   12  C   UNK N   1      28.962  15.638   2.711  0.00  0.00     0.030 A 
HETATM   13  C   UNK N   1      26.828  16.180   2.875  0.00  0.00     0.042 A 
HETATM   14  C   UNK N   1      28.157  14.700   2.061  0.00  0.00     0.089 A 
HETATM   15  N   UNK N   1      26.850  15.042   2.170  0.00  0.00    -0.365 N 
HETATM   16  H   UNK N   1      26.075  14.555   1.806  0.00  0.00     0.165 HD
HETATM   17  C   UNK N   1      25.709  16.916   3.235  0.00  0.00     0.031 A 
HETATM   18  C   UNK N   1      25.918  18.100   3.955  0.00  0.00     0.010 A 
ENDBRANCH   6   9
ENDBRANCH   5   6
ENDBRANCH   3   5
BRANCH   1  19
HETATM   19  C   UNK N   1      29.530  17.381   7.731  0.00  0.00     0.032 A 
HETATM   20  C   UNK N   1      30.220  16.615   6.776  0.00  0.00     0.018 A 
HETATM   21  C   UNK N   1      31.618  16.590   6.770  0.00  0.00     0.026 A 
HETATM   22  C   UNK N   1      32.330  17.300   7.743  0.00  0.00     0.079 A 
HETATM   23  C   UNK N   1      31.649  18.018   8.723  0.00  0.00     0.026 A 
HETATM   24  C   UNK N   1      30.260  18.062   8.714  0.00  0.00     0.018 A 
BRANCH  22  25
HETATM   25  S   UNK N   1      34.108  17.416   7.674  0.00  0.00     0.256 S 
HETATM   26  O   UNK N   1      34.828  16.136   8.122  0.00  0.00    -0.201 OA
HETATM   27  O   UNK N   1      34.578  17.540   6.218  0.00  0.00    -0.201 OA
BRANCH  25  28
HETATM   28  N   UNK N   1      34.910  18.744   8.515  0.00  0.00    -0.324 N 
HETATM   29  H   UNK N   1      34.547  19.296   9.292  0.00  0.00     0.169 HD
HETATM   30  H   UNK N   1      35.844  18.988   8.185  0.00  0.00     0.169 HD
ENDBRANCH  25  28
ENDBRANCH  22  25
ENDBRANCH   1  19
TORSDOF 7
ENDMDL
MODEL 9
REMARK VINA RESULT:      -6.8      2.518      5.483
REMARK  7 active torsions:
REMARK  status: ('A' for Active; 'I' for Inactive)
REMARK    1  A    between atoms: C_3  and  S_14 
REMARK    2  A    between atoms: C_6  and  C_7 
REMARK       I    between atoms: C_7  and  N_9 
REMARK    3  A    between atoms: N_9  and  C_10 
REMARK    4  A    between atoms: C_10  and  C_11 
REMARK    5  A    between atoms: C_11  and  C_12 
REMARK    6  A    between atoms: C_11  and  C_25 
REMARK    7  A    between atoms: S_14  and  N_15 
ROOT
HETATM    1  C   UNK N   1      25.694  25.790  -8.645  0.00  0.00     0.251 C 
HETATM    2  O   UNK N   1      25.300  26.412  -9.624  0.00  0.00    -0.268 OA
HETATM    3  N   UNK N   1      25.731  24.434  -8.716  0.00  0.00    -0.356 N 
HETATM    4  H   UNK N   1      25.618  24.026  -9.604  0.00  0.00     0.162 HD
ENDROOT
BRANCH   3   5
HETATM    5  C   UNK N   1      25.924  23.537  -7.589  0.00  0.00     0.132 C 
BRANCH   5   6
HETATM    6  C   UNK N   1      27.348  22.964  -7.515  0.00  0.00     0.036 C 
BRANCH   6   7
HETATM    7  C   UNK N   1      27.288  21.494  -7.941  0.00  0.00     0.006 C 
HETATM    8  C   UNK N   1      25.856  20.978  -8.006  0.00  0.00     0.006 C 
ENDBRANCH   6   7
BRANCH   6   9
HETATM    9  C   UNK N   1      28.007  23.148  -6.151  0.00  0.00    -0.051 A 
HETATM   10  C   UNK N   1      29.184  22.436  -5.830  0.00  0.00     0.021 A 
HETATM   11  C   UNK N   1      29.719  22.593  -4.554  0.00  0.00    -0.008 A 
HETATM   12  C   UNK N   1      30.816  22.003  -3.975  0.00  0.00     0.030 A 
HETATM   13  C   UNK N   1      29.156  23.418  -3.631  0.00  0.00     0.042 A 
HETATM   14  C   UNK N   1      30.862  22.522  -2.679  0.00  0.00     0.089 A 
HETATM   15  N   UNK N   1      29.840  23.390  -2.480  0.00  0.00    -0.365 N 
HETATM   16  H   UNK N   1      29.641  23.897  -1.659  0.00  0.00     0.165 HD
HETATM   17  C   UNK N   1      28.018  24.161  -3.905  0.00  0.00     0.031 A 
HETATM   18  C   UNK N   1      27.444  24.018  -5.176  0.00  0.00     0.010 A 
ENDBRANCH   6   9
ENDBRANCH   5   6
ENDBRANCH   3   5
BRANCH   1  19
HETATM   19  C   UNK N   1      26.042  26.542  -7.414  0.00  0.00     0.032 A 
HETATM   20  C   UNK N   1      27.305  27.146  -7.291  0.00  0.00     0.018 A 
HETATM   21  C   UNK N   1      27.608  27.920  -6.167  0.00  0.00     0.026 A 
HETATM   22  C   UNK N   1      26.664  28.062  -5.144  0.00  0.00     0.079 A 
HETATM   23  C   UNK N   1      25.430  27.422  -5.239  0.00  0.00     0.026 A 
HETATM   24  C   UNK N   1      25.120  26.672  -6.368  0.00  0.00     0.018 A 
BRANCH  22  25
HETATM   25  S   UNK N   1      26.955  29.164  -3.774  0.00  0.00     0.256 S 
HETATM   26  O   UNK N   1      26.789  28.497  -2.400  0.00  0.00    -0.201 OA
HETATM   27  O   UNK N   1      28.431  29.587  -3.733  0.00  0.00    -0.201 OA
BRANCH  25  28
HETATM   28  N   UNK N   1      26.056  30.679  -3.689  0.00  0.00    -0.324 N 
HETATM   29  H   UNK N   1      25.230  30.880  -3.125  0.00  0.00     0.169 HD
HETATM   30  H   UNK N   1      26.401  31.442  -4.271  0.00  0.00     0.169 HD
ENDBRANCH  25  28
ENDBRANCH  22  25
ENDBRANCH   1  19
TORSDOF 7
ENDMDL
