REMARK  7 active torsions:
REMARK  status: ('A' for Active; 'I' for Inactive)
REMARK    1  A    between atoms: C_1  and  C_2 
REMARK    2  A    between atoms: C_1  and  N_17 
REMARK    3  A    between atoms: C_2  and  C_3 
REMARK    4  A    between atoms: C_3  and  N_4 
REMARK       I    between atoms: N_4  and  C_5 
REMARK    5  A    between atoms: C_5  and  C_7 
REMARK    6  A    between atoms: C_10  and  S_13 
REMARK    7  A    between atoms: S_13  and  N_16 
ROOT
HETATM    1  N   UNK N   1       0.519  -1.907  -0.788  0.00  0.00    -0.356 N 
HETATM    2  C   UNK N   1       1.568  -2.098   0.066  0.00  0.00     0.251 C 
HETATM    3  O   UNK N   1       1.743  -3.209   0.543  0.00  0.00    -0.268 OA
HETATM    4  H   UNK N   1      -0.165  -2.612  -0.858  0.00  0.00     0.162 HD
ENDROOT
BRANCH   1   5
HETATM    5  C   UNK N   1       0.368  -0.712  -1.597  0.00  0.00     0.128 C 
BRANCH   5   6
HETATM    6  C   UNK N   1      -0.948   0.005  -1.369  0.00  0.00     0.018 C 
HETATM    7  C   UNK N   1      -0.959   1.263  -2.217  0.00  0.00     0.013 C 
BRANCH   6   8
HETATM    8  C   UNK N   1      -1.145   0.390   0.098  0.00  0.00     0.134 C 
BRANCH   8   9
HETATM    9  N   UNK N   1      -2.541   0.738   0.338  0.00  0.00    -0.356 N 
HETATM   10  C   UNK N   1      -3.027   1.970   0.606  0.00  0.00     0.092 A 
HETATM   11  C   UNK N   1      -4.420   1.903   0.741  0.00  0.00     0.031 A 
HETATM   12  C   UNK N   1      -4.740   0.574   0.543  0.00  0.00    -0.008 A 
HETATM   13  C   UNK N   1      -3.583  -0.107   0.307  0.00  0.00     0.044 A 
HETATM   14  C   UNK N   1      -5.976  -0.070   0.551  0.00  0.00     0.014 A 
HETATM   15  C   UNK N   1      -3.564  -1.480   0.071  0.00  0.00     0.030 A 
HETATM   16  C   UNK N   1      -4.793  -2.161   0.073  0.00  0.00     0.002 A 
HETATM   17  C   UNK N   1      -5.995  -1.457   0.311  0.00  0.00     0.001 A 
ENDBRANCH   8   9
ENDBRANCH   6   8
ENDBRANCH   5   6
ENDBRANCH   1   5
BRANCH   2  18
HETATM   18  C   UNK N   1       2.537  -1.010   0.380  0.00  0.00     0.032 A 
HETATM   19  C   UNK N   1       2.154   0.324   0.218  0.00  0.00     0.018 A 
HETATM   20  C   UNK N   1       3.044   1.356   0.426  0.00  0.00     0.026 A 
HETATM   21  C   UNK N   1       4.363   1.083   0.780  0.00  0.00     0.079 A 
HETATM   22  C   UNK N   1       4.763  -0.246   1.009  0.00  0.00     0.026 A 
HETATM   23  C   UNK N   1       3.843  -1.293   0.821  0.00  0.00     0.018 A 
BRANCH  21  24
HETATM   24  S   UNK N   1       5.492   2.468   0.917  0.00  0.00     0.256 S 
HETATM   25  O   UNK N   1       6.985   2.442   0.560  0.00  0.00    -0.201 OA
HETATM   26  O   UNK N   1       4.950   3.821   0.431  0.00  0.00    -0.201 OA
BRANCH  24  27
HETATM   27  N   UNK N   1       5.424   2.088  -0.811  0.00  0.00    -0.324 N 
HETATM   28  H   UNK N   1       5.215   2.012  -1.806  0.00  0.00     0.169 HD
HETATM   29  H   UNK N   1       6.204   1.430  -0.811  0.00  0.00     0.169 HD
ENDBRANCH  24  27
ENDBRANCH  21  24
ENDBRANCH   2  18
TORSDOF 7
