MODEL 1
REMARK VINA RESULT:      -7.5      0.000      0.000
REMARK  7 active torsions:
REMARK  status: ('A' for Active; 'I' for Inactive)
REMARK    1  A    between atoms: C_1  and  C_2 
REMARK    2  A    between atoms: C_1  and  N_17 
REMARK    3  A    between atoms: C_2  and  C_3 
REMARK    4  A    between atoms: C_3  and  N_4 
REMARK       I    between atoms: N_4  and  C_5 
REMARK    5  A    between atoms: C_5  and  C_7 
REMARK    6  A    between atoms: C_10  and  S_13 
REMARK    7  A    between atoms: S_13  and  N_16 
ROOT
HETATM    1  N   UNK N   1      32.845  18.284   8.637  0.00  0.00    -0.356 N 
HETATM    2  C   UNK N   1      33.866  18.164   7.737  0.00  0.00     0.251 C 
HETATM    3  O   UNK N   1      34.896  18.791   7.929  0.00  0.00    -0.268 OA
HETATM    4  H   UNK N   1      32.896  18.999   9.312  0.00  0.00     0.162 HD
ENDROOT
BRANCH   1   5
HETATM    5  C   UNK N   1      31.691  17.405   8.643  0.00  0.00     0.128 C 
BRANCH   5   6
HETATM    6  C   UNK N   1      30.380  18.134   8.425  0.00  0.00     0.018 C 
HETATM    7  C   UNK N   1      29.896  18.656   9.765  0.00  0.00     0.013 C 
BRANCH   6   8
HETATM    8  C   UNK N   1      29.308  17.221   7.829  0.00  0.00     0.134 C 
BRANCH   8   9
HETATM    9  N   UNK N   1      29.011  17.629   6.460  0.00  0.00    -0.356 N 
HETATM   10  C   UNK N   1      29.378  16.982   5.332  0.00  0.00     0.092 A 
HETATM   11  C   UNK N   1      28.876  17.668   4.218  0.00  0.00     0.031 A 
HETATM   12  C   UNK N   1      28.197  18.753   4.735  0.00  0.00    -0.008 A 
HETATM   13  C   UNK N   1      28.301  18.707   6.093  0.00  0.00     0.044 A 
HETATM   14  C   UNK N   1      27.492  19.770   4.092  0.00  0.00     0.014 A 
HETATM   15  C   UNK N   1      27.722  19.671   6.916  0.00  0.00     0.030 A 
HETATM   16  C   UNK N   1      27.005  20.711   6.301  0.00  0.00     0.002 A 
HETATM   17  C   UNK N   1      26.890  20.759   4.893  0.00  0.00     0.001 A 
ENDBRANCH   8   9
ENDBRANCH   6   8
ENDBRANCH   5   6
ENDBRANCH   1   5
BRANCH   2  18
HETATM   18  C   UNK N   1      33.781  17.243   6.567  0.00  0.00     0.032 A 
HETATM   19  C   UNK N   1      34.443  16.013   6.607  0.00  0.00     0.018 A 
HETATM   20  C   UNK N   1      34.450  15.168   5.518  0.00  0.00     0.026 A 
HETATM   21  C   UNK N   1      33.813  15.540   4.338  0.00  0.00     0.079 A 
HETATM   22  C   UNK N   1      33.087  16.744   4.286  0.00  0.00     0.026 A 
HETATM   23  C   UNK N   1      33.061  17.590   5.409  0.00  0.00     0.018 A 
BRANCH  21  24
HETATM   24  S   UNK N   1      33.965  14.444   2.928  0.00  0.00     0.256 S 
HETATM   25  O   UNK N   1      32.990  13.316   2.564  0.00  0.00    -0.201 OA
HETATM   26  O   UNK N   1      34.375  15.111   1.606  0.00  0.00    -0.201 OA
BRANCH  24  27
HETATM   27  N   UNK N   1      32.474  15.357   2.652  0.00  0.00    -0.324 N 
HETATM   28  H   UNK N   1      31.704  16.026   2.638  0.00  0.00     0.169 HD
HETATM   29  H   UNK N   1      32.063  14.701   1.987  0.00  0.00     0.169 HD
ENDBRANCH  24  27
ENDBRANCH  21  24
ENDBRANCH   2  18
TORSDOF 7
ENDMDL
MODEL 2
REMARK VINA RESULT:      -7.5      3.357      4.745
REMARK  7 active torsions:
REMARK  status: ('A' for Active; 'I' for Inactive)
REMARK    1  A    between atoms: C_1  and  C_2 
REMARK    2  A    between atoms: C_1  and  N_17 
REMARK    3  A    between atoms: C_2  and  C_3 
REMARK    4  A    between atoms: C_3  and  N_4 
REMARK       I    between atoms: N_4  and  C_5 
REMARK    5  A    between atoms: C_5  and  C_7 
REMARK    6  A    between atoms: C_10  and  S_13 
REMARK    7  A    between atoms: S_13  and  N_16 
ROOT
HETATM    1  N   UNK N   1      32.463  17.711   7.457  0.00  0.00    -0.356 N 
HETATM    2  C   UNK N   1      33.794  17.414   7.533  0.00  0.00     0.251 C 
HETATM    3  O   UNK N   1      34.559  17.935   6.735  0.00  0.00    -0.268 OA
HETATM    4  H   UNK N   1      32.133  18.191   6.663  0.00  0.00     0.162 HD
ENDROOT
BRANCH   1   5
HETATM    5  C   UNK N   1      31.515  17.353   8.495  0.00  0.00     0.128 C 
BRANCH   5   6
HETATM    6  C   UNK N   1      30.220  18.138   8.422  0.00  0.00     0.018 C 
HETATM    7  C   UNK N   1      29.865  18.605   9.821  0.00  0.00     0.013 C 
BRANCH   6   8
HETATM    8  C   UNK N   1      29.069  17.295   7.870  0.00  0.00     0.134 C 
BRANCH   8   9
HETATM    9  N   UNK N   1      28.791  17.675   6.490  0.00  0.00    -0.356 N 
HETATM   10  C   UNK N   1      29.118  16.973   5.382  0.00  0.00     0.092 A 
HETATM   11  C   UNK N   1      28.651  17.649   4.247  0.00  0.00     0.031 A 
HETATM   12  C   UNK N   1      28.033  18.786   4.730  0.00  0.00    -0.008 A 
HETATM   13  C   UNK N   1      28.138  18.777   6.089  0.00  0.00     0.044 A 
HETATM   14  C   UNK N   1      27.383  19.818   4.056  0.00  0.00     0.014 A 
HETATM   15  C   UNK N   1      27.615  19.796   6.881  0.00  0.00     0.030 A 
HETATM   16  C   UNK N   1      26.953  20.854   6.234  0.00  0.00     0.002 A 
HETATM   17  C   UNK N   1      26.837  20.863   4.826  0.00  0.00     0.001 A 
ENDBRANCH   8   9
ENDBRANCH   6   8
ENDBRANCH   5   6
ENDBRANCH   1   5
BRANCH   2  18
HETATM   18  C   UNK N   1      34.344  16.526   8.596  0.00  0.00     0.032 A 
HETATM   19  C   UNK N   1      34.344  15.141   8.408  0.00  0.00     0.018 A 
HETATM   20  C   UNK N   1      34.775  14.283   9.398  0.00  0.00     0.026 A 
HETATM   21  C   UNK N   1      35.198  14.786  10.625  0.00  0.00     0.079 A 
HETATM   22  C   UNK N   1      35.267  16.177  10.823  0.00  0.00     0.026 A 
HETATM   23  C   UNK N   1      34.851  17.048   9.801  0.00  0.00     0.018 A 
BRANCH  21  24
HETATM   24  S   UNK N   1      35.631  13.606  11.903  0.00  0.00     0.256 S 
HETATM   25  O   UNK N   1      37.057  13.179  12.279  0.00  0.00    -0.201 OA
HETATM   26  O   UNK N   1      34.852  13.735  13.221  0.00  0.00    -0.201 OA
BRANCH  24  27
HETATM   27  N   UNK N   1      36.321  15.148  12.435  0.00  0.00    -0.324 N 
HETATM   28  H   UNK N   1      36.506  16.100  12.747  0.00  0.00     0.169 HD
HETATM   29  H   UNK N   1      37.296  14.848  12.408  0.00  0.00     0.169 HD
ENDBRANCH  24  27
ENDBRANCH  21  24
ENDBRANCH   2  18
TORSDOF 7
ENDMDL
MODEL 3
REMARK VINA RESULT:      -7.4      5.594      8.619
REMARK  7 active torsions:
REMARK  status: ('A' for Active; 'I' for Inactive)
REMARK    1  A    between atoms: C_1  and  C_2 
REMARK    2  A    between atoms: C_1  and  N_17 
REMARK    3  A    between atoms: C_2  and  C_3 
REMARK    4  A    between atoms: C_3  and  N_4 
REMARK       I    between atoms: N_4  and  C_5 
REMARK    5  A    between atoms: C_5  and  C_7 
REMARK    6  A    between atoms: C_10  and  S_13 
REMARK    7  A    between atoms: S_13  and  N_16 
ROOT
HETATM    1  N   UNK N   1      35.066  17.370   9.842  0.00  0.00    -0.356 N 
HETATM    2  C   UNK N   1      34.714  18.100   8.742  0.00  0.00     0.251 C 
HETATM    3  O   UNK N   1      35.297  19.151   8.523  0.00  0.00    -0.268 OA
HETATM    4  H   UNK N   1      35.647  17.788  10.518  0.00  0.00     0.162 HD
ENDROOT
BRANCH   1   5
HETATM    5  C   UNK N   1      34.622  16.005  10.058  0.00  0.00     0.128 C 
BRANCH   5   6
HETATM    6  C   UNK N   1      35.594  15.181  10.879  0.00  0.00     0.018 C 
HETATM    7  C   UNK N   1      36.713  14.715   9.966  0.00  0.00     0.013 C 
BRANCH   6   8
HETATM    8  C   UNK N   1      34.922  13.960  11.508  0.00  0.00     0.134 C 
BRANCH   8   9
HETATM    9  N   UNK N   1      35.435  13.750  12.857  0.00  0.00    -0.356 N 
HETATM   10  C   UNK N   1      36.288  14.556  13.527  0.00  0.00     0.092 A 
HETATM   11  C   UNK N   1      36.517  14.033  14.807  0.00  0.00     0.031 A 
HETATM   12  C   UNK N   1      35.763  12.877  14.866  0.00  0.00    -0.008 A 
HETATM   13  C   UNK N   1      35.124  12.729  13.671  0.00  0.00     0.044 A 
HETATM   14  C   UNK N   1      35.599  11.957  15.900  0.00  0.00     0.014 A 
HETATM   15  C   UNK N   1      34.282  11.651  13.408  0.00  0.00     0.030 A 
HETATM   16  C   UNK N   1      34.095  10.703  14.428  0.00  0.00     0.002 A 
HETATM   17  C   UNK N   1      34.750  10.857  15.670  0.00  0.00     0.001 A 
ENDBRANCH   8   9
ENDBRANCH   6   8
ENDBRANCH   5   6
ENDBRANCH   1   5
BRANCH   2  18
HETATM   18  C   UNK N   1      33.688  17.620   7.773  0.00  0.00     0.032 A 
HETATM   19  C   UNK N   1      34.088  17.153   6.518  0.00  0.00     0.018 A 
HETATM   20  C   UNK N   1      33.166  16.772   5.568  0.00  0.00     0.026 A 
HETATM   21  C   UNK N   1      31.803  16.871   5.835  0.00  0.00     0.079 A 
HETATM   22  C   UNK N   1      31.369  17.280   7.109  0.00  0.00     0.026 A 
HETATM   23  C   UNK N   1      32.316  17.643   8.084  0.00  0.00     0.018 A 
BRANCH  21  24
HETATM   24  S   UNK N   1      30.664  16.470   4.510  0.00  0.00     0.256 S 
HETATM   25  O   UNK N   1      29.426  17.289   4.118  0.00  0.00    -0.201 OA
HETATM   26  O   UNK N   1      31.307  15.995   3.198  0.00  0.00    -0.201 OA
BRANCH  24  27
HETATM   27  N   UNK N   1      31.405  18.008   4.041  0.00  0.00    -0.324 N 
HETATM   28  H   UNK N   1      31.622  18.961   3.751  0.00  0.00     0.169 HD
HETATM   29  H   UNK N   1      32.373  17.696   4.129  0.00  0.00     0.169 HD
ENDBRANCH  24  27
ENDBRANCH  21  24
ENDBRANCH   2  18
TORSDOF 7
ENDMDL
MODEL 4
REMARK VINA RESULT:      -7.3     12.178     15.142
REMARK  7 active torsions:
REMARK  status: ('A' for Active; 'I' for Inactive)
REMARK    1  A    between atoms: C_1  and  C_2 
REMARK    2  A    between atoms: C_1  and  N_17 
REMARK    3  A    between atoms: C_2  and  C_3 
REMARK    4  A    between atoms: C_3  and  N_4 
REMARK       I    between atoms: N_4  and  C_5 
REMARK    5  A    between atoms: C_5  and  C_7 
REMARK    6  A    between atoms: C_10  and  S_13 
REMARK    7  A    between atoms: S_13  and  N_16 
ROOT
HETATM    1  N   UNK N   1      25.563  23.651  -8.076  0.00  0.00    -0.356 N 
HETATM    2  C   UNK N   1      25.664  23.078  -6.840  0.00  0.00     0.251 C 
HETATM    3  O   UNK N   1      24.795  22.298  -6.481  0.00  0.00    -0.268 OA
HETATM    4  H   UNK N   1      24.714  23.562  -8.568  0.00  0.00     0.162 HD
ENDROOT
BRANCH   1   5
HETATM    5  C   UNK N   1      26.650  24.385  -8.696  0.00  0.00     0.128 C 
BRANCH   5   6
HETATM    6  C   UNK N   1      26.362  25.866  -8.851  0.00  0.00     0.018 C 
HETATM    7  C   UNK N   1      26.695  26.269 -10.275  0.00  0.00     0.013 C 
BRANCH   6   8
HETATM    8  C   UNK N   1      27.190  26.715  -7.885  0.00  0.00     0.134 C 
BRANCH   8   9
HETATM    9  N   UNK N   1      26.385  27.070  -6.721  0.00  0.00    -0.356 N 
HETATM   10  C   UNK N   1      25.055  26.881  -6.576  0.00  0.00     0.092 A 
HETATM   11  C   UNK N   1      24.657  27.321  -5.306  0.00  0.00     0.031 A 
HETATM   12  C   UNK N   1      25.812  27.782  -4.704  0.00  0.00    -0.008 A 
HETATM   13  C   UNK N   1      26.839  27.622  -5.585  0.00  0.00     0.044 A 
HETATM   14  C   UNK N   1      26.016  28.323  -3.436  0.00  0.00     0.014 A 
HETATM   15  C   UNK N   1      28.146  27.997  -5.279  0.00  0.00     0.030 A 
HETATM   16  C   UNK N   1      28.387  28.548  -4.009  0.00  0.00     0.002 A 
HETATM   17  C   UNK N   1      27.325  28.709  -3.091  0.00  0.00     0.001 A 
ENDBRANCH   8   9
ENDBRANCH   6   8
ENDBRANCH   5   6
ENDBRANCH   1   5
BRANCH   2  18
HETATM   18  C   UNK N   1      26.831  23.328  -5.948  0.00  0.00     0.032 A 
HETATM   19  C   UNK N   1      28.070  22.760  -6.257  0.00  0.00     0.018 A 
HETATM   20  C   UNK N   1      29.155  22.906  -5.419  0.00  0.00     0.026 A 
HETATM   21  C   UNK N   1      29.027  23.608  -4.223  0.00  0.00     0.079 A 
HETATM   22  C   UNK N   1      27.810  24.241  -3.913  0.00  0.00     0.026 A 
HETATM   23  C   UNK N   1      26.714  24.111  -4.785  0.00  0.00     0.018 A 
BRANCH  21  24
HETATM   24  S   UNK N   1      30.445  23.654  -3.129  0.00  0.00     0.256 S 
HETATM   25  O   UNK N   1      30.477  23.135  -1.684  0.00  0.00    -0.201 OA
HETATM   26  O   UNK N   1      31.790  23.265  -3.762  0.00  0.00    -0.201 OA
BRANCH  24  27
HETATM   27  N   UNK N   1      30.101  21.935  -3.376  0.00  0.00    -0.324 N 
HETATM   28  H   UNK N   1      30.120  20.932  -3.557  0.00  0.00     0.169 HD
HETATM   29  H   UNK N   1      29.097  21.996  -3.199  0.00  0.00     0.169 HD
ENDBRANCH  24  27
ENDBRANCH  21  24
ENDBRANCH   2  18
TORSDOF 7
ENDMDL
MODEL 5
REMARK VINA RESULT:      -7.2     11.805     14.494
REMARK  7 active torsions:
REMARK  status: ('A' for Active; 'I' for Inactive)
REMARK    1  A    between atoms: C_1  and  C_2 
REMARK    2  A    between atoms: C_1  and  N_17 
REMARK    3  A    between atoms: C_2  and  C_3 
REMARK    4  A    between atoms: C_3  and  N_4 
REMARK       I    between atoms: N_4  and  C_5 
REMARK    5  A    between atoms: C_5  and  C_7 
REMARK    6  A    between atoms: C_10  and  S_13 
REMARK    7  A    between atoms: S_13  and  N_16 
ROOT
HETATM    1  N   UNK N   1      27.659  28.039  -3.371  0.00  0.00    -0.356 N 
HETATM    2  C   UNK N   1      26.412  27.538  -3.615  0.00  0.00     0.251 C 
HETATM    3  O   UNK N   1      25.470  27.962  -2.962  0.00  0.00    -0.268 OA
HETATM    4  H   UNK N   1      27.795  28.591  -2.567  0.00  0.00     0.162 HD
ENDROOT
BRANCH   1   5
HETATM    5  C   UNK N   1      28.791  27.796  -4.245  0.00  0.00     0.128 C 
BRANCH   5   6
HETATM    6  C   UNK N   1      29.774  26.785  -3.687  0.00  0.00     0.018 C 
HETATM    7  C   UNK N   1      31.121  27.465  -3.532  0.00  0.00     0.013 C 
BRANCH   6   8
HETATM    8  C   UNK N   1      29.930  25.571  -4.603  0.00  0.00     0.134 C 
BRANCH   8   9
HETATM    9  N   UNK N   1      30.194  24.377  -3.807  0.00  0.00    -0.356 N 
HETATM   10  C   UNK N   1      29.417  23.884  -2.818  0.00  0.00     0.092 A 
HETATM   11  C   UNK N   1      29.990  22.707  -2.318  0.00  0.00     0.031 A 
HETATM   12  C   UNK N   1      31.144  22.524  -3.054  0.00  0.00    -0.008 A 
HETATM   13  C   UNK N   1      31.244  23.553  -3.943  0.00  0.00     0.044 A 
HETATM   14  C   UNK N   1      32.103  21.515  -2.996  0.00  0.00     0.014 A 
HETATM   15  C   UNK N   1      32.308  23.663  -4.835  0.00  0.00     0.030 A 
HETATM   16  C   UNK N   1      33.294  22.662  -4.804  0.00  0.00     0.002 A 
HETATM   17  C   UNK N   1      33.190  21.591  -3.888  0.00  0.00     0.001 A 
ENDBRANCH   8   9
ENDBRANCH   6   8
ENDBRANCH   5   6
ENDBRANCH   1   5
BRANCH   2  18
HETATM   18  C   UNK N   1      26.160  26.541  -4.693  0.00  0.00     0.032 A 
HETATM   19  C   UNK N   1      26.258  25.176  -4.408  0.00  0.00     0.018 A 
HETATM   20  C   UNK N   1      26.106  24.225  -5.394  0.00  0.00     0.026 A 
HETATM   21  C   UNK N   1      25.875  24.612  -6.712  0.00  0.00     0.079 A 
HETATM   22  C   UNK N   1      25.711  25.975  -7.020  0.00  0.00     0.026 A 
HETATM   23  C   UNK N   1      25.841  26.939  -6.004  0.00  0.00     0.018 A 
BRANCH  21  24
HETATM   24  S   UNK N   1      25.807  23.326  -7.958  0.00  0.00     0.256 S 
HETATM   25  O   UNK N   1      26.604  22.014  -7.932  0.00  0.00    -0.201 OA
HETATM   26  O   UNK N   1      24.405  22.976  -8.479  0.00  0.00    -0.201 OA
BRANCH  24  27
HETATM   27  N   UNK N   1      25.186  22.578  -6.479  0.00  0.00    -0.324 N 
HETATM   28  H   UNK N   1      24.916  21.962  -5.712  0.00  0.00     0.169 HD
HETATM   29  H   UNK N   1      24.782  23.429  -6.085  0.00  0.00     0.169 HD
ENDBRANCH  24  27
ENDBRANCH  21  24
ENDBRANCH   2  18
TORSDOF 7
ENDMDL
MODEL 6
REMARK VINA RESULT:      -7.1     12.095     14.576
REMARK  7 active torsions:
REMARK  status: ('A' for Active; 'I' for Inactive)
REMARK    1  A    between atoms: C_1  and  C_2 
REMARK    2  A    between atoms: C_1  and  N_17 
REMARK    3  A    between atoms: C_2  and  C_3 
REMARK    4  A    between atoms: C_3  and  N_4 
REMARK       I    between atoms: N_4  and  C_5 
REMARK    5  A    between atoms: C_5  and  C_7 
REMARK    6  A    between atoms: C_10  and  S_13 
REMARK    7  A    between atoms: S_13  and  N_16 
ROOT
HETATM    1  N   UNK N   1      30.765  22.373  -3.902  0.00  0.00    -0.356 N 
HETATM    2  C   UNK N   1      30.201  23.206  -2.978  0.00  0.00     0.251 C 
HETATM    3  O   UNK N   1      30.488  23.056  -1.800  0.00  0.00    -0.268 OA
HETATM    4  H   UNK N   1      31.242  21.572  -3.585  0.00  0.00     0.162 HD
ENDROOT
BRANCH   1   5
HETATM    5  C   UNK N   1      30.693  22.617  -5.331  0.00  0.00     0.128 C 
BRANCH   5   6
HETATM    6  C   UNK N   1      29.698  21.722  -6.043  0.00  0.00     0.018 C 
HETATM    7  C   UNK N   1      30.342  20.363  -6.250  0.00  0.00     0.013 C 
BRANCH   6   8
HETATM    8  C   UNK N   1      29.285  22.291  -7.402  0.00  0.00     0.134 C 
BRANCH   8   9
HETATM    9  N   UNK N   1      27.986  22.945  -7.292  0.00  0.00    -0.356 N 
HETATM   10  C   UNK N   1      26.804  22.346  -7.028  0.00  0.00     0.092 A 
HETATM   11  C   UNK N   1      25.793  23.314  -6.970  0.00  0.00     0.031 A 
HETATM   12  C   UNK N   1      26.427  24.517  -7.214  0.00  0.00    -0.008 A 
HETATM   13  C   UNK N   1      27.752  24.261  -7.411  0.00  0.00     0.044 A 
HETATM   14  C   UNK N   1      25.919  25.813  -7.269  0.00  0.00     0.014 A 
HETATM   15  C   UNK N   1      28.670  25.272  -7.686  0.00  0.00     0.030 A 
HETATM   16  C   UNK N   1      28.191  26.592  -7.749  0.00  0.00     0.002 A 
HETATM   17  C   UNK N   1      26.820  26.861  -7.539  0.00  0.00     0.001 A 
ENDBRANCH   8   9
ENDBRANCH   6   8
ENDBRANCH   5   6
ENDBRANCH   1   5
BRANCH   2  18
HETATM   18  C   UNK N   1      29.300  24.326  -3.371  0.00  0.00     0.032 A 
HETATM   19  C   UNK N   1      29.847  25.569  -3.700  0.00  0.00     0.018 A 
HETATM   20  C   UNK N   1      29.044  26.650  -3.997  0.00  0.00     0.026 A 
HETATM   21  C   UNK N   1      27.658  26.527  -3.948  0.00  0.00     0.079 A 
HETATM   22  C   UNK N   1      27.078  25.274  -3.679  0.00  0.00     0.026 A 
HETATM   23  C   UNK N   1      27.902  24.169  -3.403  0.00  0.00     0.018 A 
BRANCH  21  24
HETATM   24  S   UNK N   1      26.681  28.003  -4.228  0.00  0.00     0.256 S 
HETATM   25  O   UNK N   1      25.170  28.036  -4.498  0.00  0.00    -0.201 OA
HETATM   26  O   UNK N   1      26.986  29.191  -3.302  0.00  0.00    -0.201 OA
BRANCH  24  27
HETATM   27  N   UNK N   1      26.051  27.302  -2.730  0.00  0.00    -0.324 N 
HETATM   28  H   UNK N   1      25.889  26.946  -1.788  0.00  0.00     0.169 HD
HETATM   29  H   UNK N   1      25.122  27.082  -3.092  0.00  0.00     0.169 HD
ENDBRANCH  24  27
ENDBRANCH  21  24
ENDBRANCH   2  18
TORSDOF 7
ENDMDL
MODEL 7
REMARK VINA RESULT:      -7.1      5.830      9.083
REMARK  7 active torsions:
REMARK  status: ('A' for Active; 'I' for Inactive)
REMARK    1  A    between atoms: C_1  and  C_2 
REMARK    2  A    between atoms: C_1  and  N_17 
REMARK    3  A    between atoms: C_2  and  C_3 
REMARK    4  A    between atoms: C_3  and  N_4 
REMARK       I    between atoms: N_4  and  C_5 
REMARK    5  A    between atoms: C_5  and  C_7 
REMARK    6  A    between atoms: C_10  and  S_13 
REMARK    7  A    between atoms: S_13  and  N_16 
ROOT
HETATM    1  N   UNK N   1      34.972  15.313   8.356  0.00  0.00    -0.356 N 
HETATM    2  C   UNK N   1      34.369  16.137   7.448  0.00  0.00     0.251 C 
HETATM    3  O   UNK N   1      35.003  16.492   6.466  0.00  0.00    -0.268 OA
HETATM    4  H   UNK N   1      35.944  15.171   8.290  0.00  0.00     0.162 HD
ENDROOT
BRANCH   1   5
HETATM    5  C   UNK N   1      34.243  14.636   9.412  0.00  0.00     0.128 C 
BRANCH   5   6
HETATM    6  C   UNK N   1      34.777  14.938  10.799  0.00  0.00     0.018 C 
HETATM    7  C   UNK N   1      35.323  16.354  10.801  0.00  0.00     0.013 C 
BRANCH   6   8
HETATM    8  C   UNK N   1      35.890  13.973  11.209  0.00  0.00     0.134 C 
BRANCH   8   9
HETATM    9  N   UNK N   1      35.764  13.640  12.623  0.00  0.00    -0.356 N 
HETATM   10  C   UNK N   1      36.232  14.365  13.663  0.00  0.00     0.092 A 
HETATM   11  C   UNK N   1      35.884  13.735  14.865  0.00  0.00     0.031 A 
HETATM   12  C   UNK N   1      35.190  12.601  14.493  0.00  0.00    -0.008 A 
HETATM   13  C   UNK N   1      35.138  12.568  13.131  0.00  0.00     0.044 A 
HETATM   14  C   UNK N   1      34.599  11.606  15.269  0.00  0.00     0.014 A 
HETATM   15  C   UNK N   1      34.505  11.539  12.437  0.00  0.00     0.030 A 
HETATM   16  C   UNK N   1      33.899  10.518  13.189  0.00  0.00     0.002 A 
HETATM   17  C   UNK N   1      33.945  10.553  14.601  0.00  0.00     0.001 A 
ENDBRANCH   8   9
ENDBRANCH   6   8
ENDBRANCH   5   6
ENDBRANCH   1   5
BRANCH   2  18
HETATM   18  C   UNK N   1      32.947  16.560   7.590  0.00  0.00     0.032 A 
HETATM   19  C   UNK N   1      32.620  17.598   8.465  0.00  0.00     0.018 A 
HETATM   20  C   UNK N   1      31.309  17.969   8.680  0.00  0.00     0.026 A 
HETATM   21  C   UNK N   1      30.275  17.289   8.041  0.00  0.00     0.079 A 
HETATM   22  C   UNK N   1      30.576  16.279   7.109  0.00  0.00     0.026 A 
HETATM   23  C   UNK N   1      31.916  15.924   6.874  0.00  0.00     0.018 A 
BRANCH  21  24
HETATM   24  S   UNK N   1      28.594  17.747   8.460  0.00  0.00     0.256 S 
HETATM   25  O   UNK N   1      27.803  17.231   9.670  0.00  0.00    -0.201 OA
HETATM   26  O   UNK N   1      28.255  19.239   8.320  0.00  0.00    -0.201 OA
BRANCH  24  27
HETATM   27  N   UNK N   1      29.589  18.342   9.798  0.00  0.00    -0.324 N 
HETATM   28  H   UNK N   1      30.283  18.776  10.406  0.00  0.00     0.169 HD
HETATM   29  H   UNK N   1      29.035  17.921  10.544  0.00  0.00     0.169 HD
ENDBRANCH  24  27
ENDBRANCH  21  24
ENDBRANCH   2  18
TORSDOF 7
ENDMDL
MODEL 8
REMARK VINA RESULT:      -7.0      5.613      8.385
REMARK  7 active torsions:
REMARK  status: ('A' for Active; 'I' for Inactive)
REMARK    1  A    between atoms: C_1  and  C_2 
REMARK    2  A    between atoms: C_1  and  N_17 
REMARK    3  A    between atoms: C_2  and  C_3 
REMARK    4  A    between atoms: C_3  and  N_4 
REMARK       I    between atoms: N_4  and  C_5 
REMARK    5  A    between atoms: C_5  and  C_7 
REMARK    6  A    between atoms: C_10  and  S_13 
REMARK    7  A    between atoms: S_13  and  N_16 
ROOT
HETATM    1  N   UNK N   1      28.042  18.888   4.398  0.00  0.00    -0.356 N 
HETATM    2  C   UNK N   1      27.103  19.862   4.590  0.00  0.00     0.251 C 
HETATM    3  O   UNK N   1      27.457  20.940   5.042  0.00  0.00    -0.268 OA
HETATM    4  H   UNK N   1      28.937  19.015   4.789  0.00  0.00     0.162 HD
ENDROOT
BRANCH   1   5
HETATM    5  C   UNK N   1      27.780  17.677   3.643  0.00  0.00     0.128 C 
BRANCH   5   6
HETATM    6  C   UNK N   1      28.878  16.640   3.772  0.00  0.00     0.018 C 
HETATM    7  C   UNK N   1      28.729  15.644   2.637  0.00  0.00     0.013 C 
BRANCH   6   8
HETATM    8  C   UNK N   1      28.808  15.892   5.105  0.00  0.00     0.134 C 
BRANCH   8   9
HETATM    9  N   UNK N   1      29.775  16.453   6.041  0.00  0.00    -0.356 N 
HETATM   10  C   UNK N   1      31.120  16.446   5.908  0.00  0.00     0.092 A 
HETATM   11  C   UNK N   1      31.700  17.111   6.996  0.00  0.00     0.031 A 
HETATM   12  C   UNK N   1      30.639  17.512   7.784  0.00  0.00    -0.008 A 
HETATM   13  C   UNK N   1      29.488  17.095   7.184  0.00  0.00     0.044 A 
HETATM   14  C   UNK N   1      30.620  18.221   8.984  0.00  0.00     0.014 A 
HETATM   15  C   UNK N   1      28.232  17.342   7.734  0.00  0.00     0.030 A 
HETATM   16  C   UNK N   1      28.177  18.054   8.945  0.00  0.00     0.002 A 
HETATM   17  C   UNK N   1      29.368  18.492   9.566  0.00  0.00     0.001 A 
ENDBRANCH   8   9
ENDBRANCH   6   8
ENDBRANCH   5   6
ENDBRANCH   1   5
BRANCH   2  18
HETATM   18  C   UNK N   1      25.676  19.667   4.205  0.00  0.00     0.032 A 
HETATM   19  C   UNK N   1      25.117  20.462   3.201  0.00  0.00     0.018 A 
HETATM   20  C   UNK N   1      23.783  20.364   2.869  0.00  0.00     0.026 A 
HETATM   21  C   UNK N   1      22.953  19.479   3.554  0.00  0.00     0.079 A 
HETATM   22  C   UNK N   1      23.498  18.624   4.528  0.00  0.00     0.026 A 
HETATM   23  C   UNK N   1      24.866  18.710   4.844  0.00  0.00     0.018 A 
BRANCH  21  24
HETATM   24  S   UNK N   1      21.207  19.492   3.149  0.00  0.00     0.256 S 
HETATM   25  O   UNK N   1      20.309  18.253   3.028  0.00  0.00    -0.201 OA
HETATM   26  O   UNK N   1      20.368  20.573   3.848  0.00  0.00    -0.201 OA
BRANCH  24  27
HETATM   27  N   UNK N   1      21.302  18.839   4.792  0.00  0.00    -0.324 N 
HETATM   28  H   UNK N   1      21.508  18.624   5.767  0.00  0.00     0.169 HD
HETATM   29  H   UNK N   1      20.612  18.100   4.658  0.00  0.00     0.169 HD
ENDBRANCH  24  27
ENDBRANCH  21  24
ENDBRANCH   2  18
TORSDOF 7
ENDMDL
MODEL 9
REMARK VINA RESULT:      -6.9      5.608      8.547
REMARK  7 active torsions:
REMARK  status: ('A' for Active; 'I' for Inactive)
REMARK    1  A    between atoms: C_1  and  C_2 
REMARK    2  A    between atoms: C_1  and  N_17 
REMARK    3  A    between atoms: C_2  and  C_3 
REMARK    4  A    between atoms: C_3  and  N_4 
REMARK       I    between atoms: N_4  and  C_5 
REMARK    5  A    between atoms: C_5  and  C_7 
REMARK    6  A    between atoms: C_10  and  S_13 
REMARK    7  A    between atoms: S_13  and  N_16 
ROOT
HETATM    1  N   UNK N   1      28.185  18.754   4.233  0.00  0.00    -0.356 N 
HETATM    2  C   UNK N   1      27.257  19.705   4.549  0.00  0.00     0.251 C 
HETATM    3  O   UNK N   1      27.636  20.755   5.046  0.00  0.00    -0.268 OA
HETATM    4  H   UNK N   1      29.104  18.863   4.572  0.00  0.00     0.162 HD
ENDROOT
BRANCH   1   5
HETATM    5  C   UNK N   1      27.879  17.592   3.421  0.00  0.00     0.128 C 
BRANCH   5   6
HETATM    6  C   UNK N   1      29.015  16.590   3.354  0.00  0.00     0.018 C 
HETATM    7  C   UNK N   1      28.508  15.340   2.659  0.00  0.00     0.013 C 
BRANCH   6   8
HETATM    8  C   UNK N   1      29.530  16.214   4.744  0.00  0.00     0.134 C 
BRANCH   8   9
HETATM    9  N   UNK N   1      30.916  16.640   4.894  0.00  0.00    -0.356 N 
HETATM   10  C   UNK N   1      31.831  16.759   3.906  0.00  0.00     0.092 A 
HETATM   11  C   UNK N   1      33.038  17.228   4.441  0.00  0.00     0.031 A 
HETATM   12  C   UNK N   1      32.800  17.380   5.793  0.00  0.00    -0.008 A 
HETATM   13  C   UNK N   1      31.510  17.012   6.038  0.00  0.00     0.044 A 
HETATM   14  C   UNK N   1      33.637  17.825   6.815  0.00  0.00     0.014 A 
HETATM   15  C   UNK N   1      30.957  17.048   7.316  0.00  0.00     0.030 A 
HETATM   16  C   UNK N   1      31.774  17.491   8.370  0.00  0.00     0.002 A 
HETATM   17  C   UNK N   1      33.110  17.879   8.119  0.00  0.00     0.001 A 
ENDBRANCH   8   9
ENDBRANCH   6   8
ENDBRANCH   5   6
ENDBRANCH   1   5
BRANCH   2  18
HETATM   18  C   UNK N   1      25.808  19.523   4.248  0.00  0.00     0.032 A 
HETATM   19  C   UNK N   1      25.179  20.382   3.342  0.00  0.00     0.018 A 
HETATM   20  C   UNK N   1      23.826  20.294   3.093  0.00  0.00     0.026 A 
HETATM   21  C   UNK N   1      23.049  19.354   3.767  0.00  0.00     0.079 A 
HETATM   22  C   UNK N   1      23.663  18.437   4.639  0.00  0.00     0.026 A 
HETATM   23  C   UNK N   1      25.049  18.515   4.868  0.00  0.00     0.018 A 
BRANCH  21  24
HETATM   24  S   UNK N   1      21.280  19.377   3.481  0.00  0.00     0.256 S 
HETATM   25  O   UNK N   1      20.332  20.529   3.842  0.00  0.00    -0.201 OA
HETATM   26  O   UNK N   1      20.818  18.842   2.117  0.00  0.00    -0.201 OA
BRANCH  24  27
HETATM   27  N   UNK N   1      21.933  20.684   2.481  0.00  0.00    -0.324 N 
HETATM   28  H   UNK N   1      22.469  21.289   1.859  0.00  0.00     0.169 HD
HETATM   29  H   UNK N   1      21.201  21.363   2.693  0.00  0.00     0.169 HD
ENDBRANCH  24  27
ENDBRANCH  21  24
ENDBRANCH   2  18
TORSDOF 7
ENDMDL
