MODEL 1
REMARK VINA RESULT:      -5.8      0.000      0.000
REMARK  4 active torsions:
REMARK  status: ('A' for Active; 'I' for Inactive)
REMARK    1  A    between atoms: C_1  and  C_7 
REMARK    2  A    between atoms: C_2  and  O_11 
REMARK       I    between atoms: C_7  and  N_10 
REMARK    3  A    between atoms: C_8  and  O_13 
REMARK    4  A    between atoms: N_10  and  O_13 
ROOT
HETATM    1  C   UNK N   1      33.439  17.737   7.597  0.00  0.00     0.067 A 
HETATM    2  C   UNK N   1      32.060  17.462   7.888  0.00  0.00     0.081 A 
HETATM    3  C   UNK N   1      31.172  17.158   6.851  0.00  0.00     0.037 A 
HETATM    4  C   UNK N   1      31.597  17.116   5.529  0.00  0.00     0.003 A 
HETATM    5  C   UNK N   1      32.926  17.379   5.224  0.00  0.00     0.001 A 
HETATM    6  C   UNK N   1      33.827  17.683   6.242  0.00  0.00     0.020 A 
ENDROOT
BRANCH   1   7
HETATM    7  C   UNK N   1      34.562  18.085   8.567  0.00  0.00     0.278 C 
HETATM    8  N   UNK N   1      34.917  17.368   9.668  0.00  0.00    -0.221 N 
HETATM    9  H   UNK N   1      35.663  17.700  10.216  0.00  0.00     0.198 HD
HETATM   10  O   UNK N   1      35.203  19.100   8.339  0.00  0.00    -0.265 OA
BRANCH   8  11
HETATM   11  O   UNK N   1      34.323  16.262  10.039  0.00  0.00    -0.197 OA
BRANCH  11  12
HETATM   12  C   UNK N   1      34.927  15.334  10.809  0.00  0.00     0.277 C 
HETATM   13  C   UNK N   1      36.378  15.018  10.649  0.00  0.00     0.128 C 
HETATM   14  O   UNK N   1      34.273  14.743  11.650  0.00  0.00    -0.264 OA
ENDBRANCH  11  12
ENDBRANCH   8  11
ENDBRANCH   1   7
BRANCH   2  15
HETATM   15  O   UNK N   1      31.548  17.475   9.122  0.00  0.00    -0.360 OA
HETATM   16  H   UNK N   1      30.745  17.926   9.292  0.00  0.00     0.217 HD
ENDBRANCH   2  15
TORSDOF 4
ENDMDL
MODEL 2
REMARK VINA RESULT:      -5.6      1.468      2.707
REMARK  4 active torsions:
REMARK  status: ('A' for Active; 'I' for Inactive)
REMARK    1  A    between atoms: C_1  and  C_7 
REMARK    2  A    between atoms: C_2  and  O_11 
REMARK       I    between atoms: C_7  and  N_10 
REMARK    3  A    between atoms: C_8  and  O_13 
REMARK    4  A    between atoms: N_10  and  O_13 
ROOT
HETATM    1  C   UNK N   1      32.110  17.243   6.833  0.00  0.00     0.067 A 
HETATM    2  C   UNK N   1      33.320  17.618   6.158  0.00  0.00     0.081 A 
HETATM    3  C   UNK N   1      33.388  17.568   4.761  0.00  0.00     0.037 A 
HETATM    4  C   UNK N   1      32.297  17.160   4.003  0.00  0.00     0.003 A 
HETATM    5  C   UNK N   1      31.118  16.794   4.635  0.00  0.00     0.001 A 
HETATM    6  C   UNK N   1      31.029  16.836   6.025  0.00  0.00     0.020 A 
ENDROOT
BRANCH   1   7
HETATM    7  C   UNK N   1      31.826  17.225   8.332  0.00  0.00     0.278 C 
HETATM    8  N   UNK N   1      32.690  16.819   9.302  0.00  0.00    -0.221 N 
HETATM    9  H   UNK N   1      32.386  16.856  10.237  0.00  0.00     0.198 HD
HETATM   10  O   UNK N   1      30.726  17.608   8.697  0.00  0.00    -0.265 OA
BRANCH   8  11
HETATM   11  O   UNK N   1      33.901  16.384   9.063  0.00  0.00    -0.197 OA
BRANCH  11  12
HETATM   12  C   UNK N   1      34.969  16.764   9.794  0.00  0.00     0.277 C 
HETATM   13  C   UNK N   1      35.641  15.818  10.735  0.00  0.00     0.128 C 
HETATM   14  O   UNK N   1      35.392  17.901   9.683  0.00  0.00    -0.264 OA
ENDBRANCH  11  12
ENDBRANCH   8  11
ENDBRANCH   1   7
BRANCH   2  15
HETATM   15  O   UNK N   1      34.425  18.024   6.791  0.00  0.00    -0.360 OA
HETATM   16  H   UNK N   1      35.233  18.100   6.323  0.00  0.00     0.217 HD
ENDBRANCH   2  15
TORSDOF 4
ENDMDL
MODEL 3
REMARK VINA RESULT:      -5.5     15.774     17.652
REMARK  4 active torsions:
REMARK  status: ('A' for Active; 'I' for Inactive)
REMARK    1  A    between atoms: C_1  and  C_7 
REMARK    2  A    between atoms: C_2  and  O_11 
REMARK       I    between atoms: C_7  and  N_10 
REMARK    3  A    between atoms: C_8  and  O_13 
REMARK    4  A    between atoms: N_10  and  O_13 
ROOT
HETATM    1  C   UNK N   1      26.270  27.108  -5.165  0.00  0.00     0.067 A 
HETATM    2  C   UNK N   1      26.126  28.009  -4.057  0.00  0.00     0.081 A 
HETATM    3  C   UNK N   1      26.721  29.275  -4.100  0.00  0.00     0.037 A 
HETATM    4  C   UNK N   1      27.458  29.685  -5.205  0.00  0.00     0.003 A 
HETATM    5  C   UNK N   1      27.610  28.830  -6.287  0.00  0.00     0.001 A 
HETATM    6  C   UNK N   1      27.025  27.565  -6.265  0.00  0.00     0.020 A 
ENDROOT
BRANCH   1   7
HETATM    7  C   UNK N   1      25.708  25.699  -5.321  0.00  0.00     0.278 C 
HETATM    8  N   UNK N   1      25.822  24.690  -4.415  0.00  0.00    -0.221 N 
HETATM    9  H   UNK N   1      25.414  23.822  -4.635  0.00  0.00     0.198 HD
HETATM   10  O   UNK N   1      25.101  25.450  -6.351  0.00  0.00    -0.265 OA
BRANCH   8  11
HETATM   11  O   UNK N   1      26.444  24.807  -3.269  0.00  0.00    -0.197 OA
BRANCH  11  12
HETATM   12  C   UNK N   1      27.572  24.126  -2.979  0.00  0.00     0.277 C 
HETATM   13  C   UNK N   1      28.794  24.252  -3.829  0.00  0.00     0.128 C 
HETATM   14  O   UNK N   1      27.591  23.396  -2.004  0.00  0.00    -0.264 OA
ENDBRANCH  11  12
ENDBRANCH   8  11
ENDBRANCH   1   7
BRANCH   2  15
HETATM   15  O   UNK N   1      25.439  27.715  -2.949  0.00  0.00    -0.360 OA
HETATM   16  H   UNK N   1      25.379  28.340  -2.254  0.00  0.00     0.217 HD
ENDBRANCH   2  15
TORSDOF 4
ENDMDL
MODEL 4
REMARK VINA RESULT:      -5.5     11.682     13.435
REMARK  4 active torsions:
REMARK  status: ('A' for Active; 'I' for Inactive)
REMARK    1  A    between atoms: C_1  and  C_7 
REMARK    2  A    between atoms: C_2  and  O_11 
REMARK       I    between atoms: C_7  and  N_10 
REMARK    3  A    between atoms: C_8  and  O_13 
REMARK    4  A    between atoms: N_10  and  O_13 
ROOT
HETATM    1  C   UNK N   1      22.188  13.451   9.210  0.00  0.00     0.067 A 
HETATM    2  C   UNK N   1      21.212  13.032  10.176  0.00  0.00     0.081 A 
HETATM    3  C   UNK N   1      21.599  12.255  11.272  0.00  0.00     0.037 A 
HETATM    4  C   UNK N   1      22.923  11.873  11.451  0.00  0.00     0.003 A 
HETATM    5  C   UNK N   1      23.883  12.266  10.530  0.00  0.00     0.001 A 
HETATM    6  C   UNK N   1      23.519  13.041   9.431  0.00  0.00     0.020 A 
ENDROOT
BRANCH   1   7
HETATM    7  C   UNK N   1      21.981  14.293   7.956  0.00  0.00     0.278 C 
HETATM    8  N   UNK N   1      21.354  15.500   7.899  0.00  0.00    -0.221 N 
HETATM    9  H   UNK N   1      21.285  15.945   7.025  0.00  0.00     0.198 HD
HETATM   10  O   UNK N   1      22.416  13.847   6.905  0.00  0.00    -0.265 OA
BRANCH   8  11
HETATM   11  O   UNK N   1      20.838  16.101   8.941  0.00  0.00    -0.197 OA
BRANCH  11  12
HETATM   12  C   UNK N   1      19.579  16.587   8.952  0.00  0.00     0.277 C 
HETATM   13  C   UNK N   1      19.316  18.056   9.013  0.00  0.00     0.128 C 
HETATM   14  O   UNK N   1      18.642  15.811   8.912  0.00  0.00    -0.264 OA
ENDBRANCH  11  12
ENDBRANCH   8  11
ENDBRANCH   1   7
BRANCH   2  15
HETATM   15  O   UNK N   1      19.914  13.344  10.099  0.00  0.00    -0.360 OA
HETATM   16  H   UNK N   1      19.366  12.917   9.472  0.00  0.00     0.217 HD
ENDBRANCH   2  15
TORSDOF 4
ENDMDL
MODEL 5
REMARK VINA RESULT:      -5.4     15.450     17.295
REMARK  4 active torsions:
REMARK  status: ('A' for Active; 'I' for Inactive)
REMARK    1  A    between atoms: C_1  and  C_7 
REMARK    2  A    between atoms: C_2  and  O_11 
REMARK       I    between atoms: C_7  and  N_10 
REMARK    3  A    between atoms: C_8  and  O_13 
REMARK    4  A    between atoms: N_10  and  O_13 
ROOT
HETATM    1  C   UNK N   1      26.355  25.465  -4.169  0.00  0.00     0.067 A 
HETATM    2  C   UNK N   1      25.569  25.513  -5.370  0.00  0.00     0.081 A 
HETATM    3  C   UNK N   1      24.913  26.695  -5.731  0.00  0.00     0.037 A 
HETATM    4  C   UNK N   1      25.005  27.837  -4.945  0.00  0.00     0.003 A 
HETATM    5  C   UNK N   1      25.760  27.813  -3.780  0.00  0.00     0.001 A 
HETATM    6  C   UNK N   1      26.421  26.647  -3.402  0.00  0.00     0.020 A 
ENDROOT
BRANCH   1   7
HETATM    7  C   UNK N   1      27.143  24.291  -3.598  0.00  0.00     0.278 C 
HETATM    8  N   UNK N   1      28.037  23.523  -4.279  0.00  0.00    -0.221 N 
HETATM    9  H   UNK N   1      28.481  22.791  -3.794  0.00  0.00     0.198 HD
HETATM   10  O   UNK N   1      26.957  24.012  -2.423  0.00  0.00    -0.265 OA
BRANCH   8  11
HETATM   11  O   UNK N   1      28.338  23.702  -5.540  0.00  0.00    -0.197 OA
BRANCH  11  12
HETATM   12  C   UNK N   1      28.341  22.696  -6.438  0.00  0.00     0.277 C 
HETATM   13  C   UNK N   1      29.462  21.710  -6.495  0.00  0.00     0.128 C 
HETATM   14  O   UNK N   1      27.410  22.591  -7.217  0.00  0.00    -0.264 OA
ENDBRANCH  11  12
ENDBRANCH   8  11
ENDBRANCH   1   7
BRANCH   2  15
HETATM   15  O   UNK N   1      25.414  24.473  -6.195  0.00  0.00    -0.360 OA
HETATM   16  H   UNK N   1      25.348  24.614  -7.118  0.00  0.00     0.217 HD
ENDBRANCH   2  15
TORSDOF 4
ENDMDL
MODEL 6
REMARK VINA RESULT:      -5.3     11.591     13.443
REMARK  4 active torsions:
REMARK  status: ('A' for Active; 'I' for Inactive)
REMARK    1  A    between atoms: C_1  and  C_7 
REMARK    2  A    between atoms: C_2  and  O_11 
REMARK       I    between atoms: C_7  and  N_10 
REMARK    3  A    between atoms: C_8  and  O_13 
REMARK    4  A    between atoms: N_10  and  O_13 
ROOT
HETATM    1  C   UNK N   1      43.713  21.291   3.846  0.00  0.00     0.067 A 
HETATM    2  C   UNK N   1      44.844  20.480   3.495  0.00  0.00     0.081 A 
HETATM    3  C   UNK N   1      44.652  19.239   2.878  0.00  0.00     0.037 A 
HETATM    4  C   UNK N   1      43.377  18.767   2.593  0.00  0.00     0.003 A 
HETATM    5  C   UNK N   1      42.269  19.535   2.923  0.00  0.00     0.001 A 
HETATM    6  C   UNK N   1      42.437  20.774   3.538  0.00  0.00     0.020 A 
ENDROOT
BRANCH   1   7
HETATM    7  C   UNK N   1      43.699  22.661   4.517  0.00  0.00     0.278 C 
HETATM    8  N   UNK N   1      43.802  23.861   3.883  0.00  0.00    -0.221 N 
HETATM    9  H   UNK N   1      43.780  24.677   4.432  0.00  0.00     0.198 HD
HETATM   10  O   UNK N   1      43.586  22.686   5.732  0.00  0.00    -0.265 OA
BRANCH   8  11
HETATM   11  O   UNK N   1      43.928  23.991   2.587  0.00  0.00    -0.197 OA
BRANCH  11  12
HETATM   12  C   UNK N   1      45.116  24.226   1.990  0.00  0.00     0.277 C 
HETATM   13  C   UNK N   1      45.329  23.926   0.542  0.00  0.00     0.128 C 
HETATM   14  O   UNK N   1      46.030  24.691   2.647  0.00  0.00    -0.264 OA
ENDBRANCH  11  12
ENDBRANCH   8  11
ENDBRANCH   1   7
BRANCH   2  15
HETATM   15  O   UNK N   1      46.111  20.838   3.724  0.00  0.00    -0.360 OA
HETATM   16  H   UNK N   1      46.611  21.252   3.049  0.00  0.00     0.217 HD
ENDBRANCH   2  15
TORSDOF 4
ENDMDL
MODEL 7
REMARK VINA RESULT:      -5.3      5.082      8.968
REMARK  4 active torsions:
REMARK  status: ('A' for Active; 'I' for Inactive)
REMARK    1  A    between atoms: C_1  and  C_7 
REMARK    2  A    between atoms: C_2  and  O_11 
REMARK       I    between atoms: C_7  and  N_10 
REMARK    3  A    between atoms: C_8  and  O_13 
REMARK    4  A    between atoms: N_10  and  O_13 
ROOT
HETATM    1  C   UNK N   1      36.569  13.257  15.555  0.00  0.00     0.067 A 
HETATM    2  C   UNK N   1      37.073  11.985  15.122  0.00  0.00     0.081 A 
HETATM    3  C   UNK N   1      36.663  10.812  15.767  0.00  0.00     0.037 A 
HETATM    4  C   UNK N   1      35.769  10.852  16.829  0.00  0.00     0.003 A 
HETATM    5  C   UNK N   1      35.269  12.071  17.264  0.00  0.00     0.001 A 
HETATM    6  C   UNK N   1      35.663  13.251  16.636  0.00  0.00     0.020 A 
ENDROOT
BRANCH   1   7
HETATM    7  C   UNK N   1      36.882  14.642  14.996  0.00  0.00     0.278 C 
HETATM    8  N   UNK N   1      36.823  15.005  13.686  0.00  0.00    -0.221 N 
HETATM    9  H   UNK N   1      37.051  15.934  13.453  0.00  0.00     0.198 HD
HETATM   10  O   UNK N   1      37.218  15.503  15.794  0.00  0.00    -0.265 OA
BRANCH   8  11
HETATM   11  O   UNK N   1      36.481  14.192  12.720  0.00  0.00    -0.197 OA
BRANCH  11  12
HETATM   12  C   UNK N   1      35.205  14.053  12.302  0.00  0.00     0.277 C 
HETATM   13  C   UNK N   1      34.618  14.971  11.281  0.00  0.00     0.128 C 
HETATM   14  O   UNK N   1      34.521  13.159  12.769  0.00  0.00    -0.264 OA
ENDBRANCH  11  12
ENDBRANCH   8  11
ENDBRANCH   1   7
BRANCH   2  15
HETATM   15  O   UNK N   1      37.936  11.835  14.112  0.00  0.00    -0.360 OA
HETATM   16  H   UNK N   1      38.003  11.012  13.671  0.00  0.00     0.217 HD
ENDBRANCH   2  15
TORSDOF 4
ENDMDL
MODEL 8
REMARK VINA RESULT:      -5.3     15.383     16.971
REMARK  4 active torsions:
REMARK  status: ('A' for Active; 'I' for Inactive)
REMARK    1  A    between atoms: C_1  and  C_7 
REMARK    2  A    between atoms: C_2  and  O_11 
REMARK       I    between atoms: C_7  and  N_10 
REMARK    3  A    between atoms: C_8  and  O_13 
REMARK    4  A    between atoms: N_10  and  O_13 
ROOT
HETATM    1  C   UNK N   1      26.379  25.591  -4.069  0.00  0.00     0.067 A 
HETATM    2  C   UNK N   1      25.606  25.561  -5.279  0.00  0.00     0.081 A 
HETATM    3  C   UNK N   1      24.918  26.704  -5.699  0.00  0.00     0.037 A 
HETATM    4  C   UNK N   1      24.965  27.882  -4.965  0.00  0.00     0.003 A 
HETATM    5  C   UNK N   1      25.707  27.934  -3.793  0.00  0.00     0.001 A 
HETATM    6  C   UNK N   1      26.399  26.807  -3.356  0.00  0.00     0.020 A 
ENDROOT
BRANCH   1   7
HETATM    7  C   UNK N   1      27.196  24.469  -3.437  0.00  0.00     0.278 C 
HETATM    8  N   UNK N   1      28.525  24.244  -3.629  0.00  0.00    -0.221 N 
HETATM    9  H   UNK N   1      28.937  23.483  -3.162  0.00  0.00     0.198 HD
HETATM   10  O   UNK N   1      26.608  23.701  -2.692  0.00  0.00    -0.265 OA
BRANCH   8  11
HETATM   11  O   UNK N   1      29.284  24.982  -4.398  0.00  0.00    -0.197 OA
BRANCH  11  12
HETATM   12  C   UNK N   1      30.057  25.979  -3.919  0.00  0.00     0.277 C 
HETATM   13  C   UNK N   1      29.899  27.383  -4.403  0.00  0.00     0.128 C 
HETATM   14  O   UNK N   1      30.899  25.726  -3.075  0.00  0.00    -0.264 OA
ENDBRANCH  11  12
ENDBRANCH   8  11
ENDBRANCH   1   7
BRANCH   2  15
HETATM   15  O   UNK N   1      25.493  24.481  -6.058  0.00  0.00    -0.360 OA
HETATM   16  H   UNK N   1      25.591  23.625  -5.690  0.00  0.00     0.217 HD
ENDBRANCH   2  15
TORSDOF 4
ENDMDL
MODEL 9
REMARK VINA RESULT:      -5.2      6.816      8.418
REMARK  4 active torsions:
REMARK  status: ('A' for Active; 'I' for Inactive)
REMARK    1  A    between atoms: C_1  and  C_7 
REMARK    2  A    between atoms: C_2  and  O_11 
REMARK       I    between atoms: C_7  and  N_10 
REMARK    3  A    between atoms: C_8  and  O_13 
REMARK    4  A    between atoms: N_10  and  O_13 
ROOT
HETATM    1  C   UNK N   1      35.689  12.647  14.782  0.00  0.00     0.067 A 
HETATM    2  C   UNK N   1      34.624  12.058  14.019  0.00  0.00     0.081 A 
HETATM    3  C   UNK N   1      33.969  10.917  14.493  0.00  0.00     0.037 A 
HETATM    4  C   UNK N   1      34.329  10.332  15.701  0.00  0.00     0.003 A 
HETATM    5  C   UNK N   1      35.354  10.884  16.455  0.00  0.00     0.001 A 
HETATM    6  C   UNK N   1      36.020  12.020  16.001  0.00  0.00     0.020 A 
ENDROOT
BRANCH   1   7
HETATM    7  C   UNK N   1      36.526  13.878  14.451  0.00  0.00     0.278 C 
HETATM    8  N   UNK N   1      36.932  14.255  13.209  0.00  0.00    -0.221 N 
HETATM    9  H   UNK N   1      37.471  15.074  13.127  0.00  0.00     0.198 HD
HETATM   10  O   UNK N   1      36.863  14.591  15.383  0.00  0.00    -0.265 OA
BRANCH   8  11
HETATM   11  O   UNK N   1      36.649  13.591  12.117  0.00  0.00    -0.197 OA
BRANCH  11  12
HETATM   12  C   UNK N   1      37.525  12.754  11.524  0.00  0.00     0.277 C 
HETATM   13  C   UNK N   1      37.465  11.279  11.753  0.00  0.00     0.128 C 
HETATM   14  O   UNK N   1      38.381  13.212  10.788  0.00  0.00    -0.264 OA
ENDBRANCH  11  12
ENDBRANCH   8  11
ENDBRANCH   1   7
BRANCH   2  15
HETATM   15  O   UNK N   1      34.201  12.541  12.846  0.00  0.00    -0.360 OA
HETATM   16  H   UNK N   1      33.284  12.606  12.670  0.00  0.00     0.217 HD
ENDBRANCH   2  15
TORSDOF 4
ENDMDL
