MODEL 1
REMARK VINA RESULT:      -5.0      0.000      0.000
REMARK  13 active torsions:
REMARK  status: ('A' for Active; 'I' for Inactive)
REMARK    1  A    between atoms: S_1  and  O_3 
REMARK    2  A    between atoms: S_1  and  O_4 
REMARK    3  A    between atoms: O_3  and  C_6 
REMARK    4  A    between atoms: C_6  and  C_17 
REMARK    5  A    between atoms: C_8  and  C_9 
REMARK    6  A    between atoms: C_9  and  C_10 
REMARK    7  A    between atoms: C_10  and  C_11 
REMARK    8  A    between atoms: C_11  and  C_12 
REMARK    9  A    between atoms: C_12  and  C_13 
REMARK   10  A    between atoms: C_13  and  C_14 
REMARK   11  A    between atoms: C_14  and  C_15 
REMARK   12  A    between atoms: C_15  and  C_16 
REMARK   13  A    between atoms: C_16  and  C_17 
ROOT
HETATM    1  C   UNK N   1      26.535  24.529  -4.055  0.00  0.00     0.000 C 
ENDROOT
BRANCH   1   2
HETATM    2  C   UNK N   1      25.468  24.542  -5.127  0.00  0.00     0.000 C 
BRANCH   2   3
HETATM    3  C   UNK N   1      25.725  25.717  -6.049  0.00  0.00     0.000 C 
BRANCH   3   4
HETATM    4  C   UNK N   1      24.799  26.872  -5.723  0.00  0.00     0.000 C 
BRANCH   4   5
HETATM    5  C   UNK N   1      25.503  27.850  -4.804  0.00  0.00     0.000 C 
BRANCH   5   6
HETATM    6  C   UNK N   1      26.757  28.360  -5.479  0.00  0.00     0.000 C 
BRANCH   6   7
HETATM    7  C   UNK N   1      27.246  29.594  -4.751  0.00  0.00    -0.000 C 
BRANCH   7   8
HETATM    8  C   UNK N   1      26.673  29.618  -3.351  0.00  0.00    -0.005 C 
HETATM    9  C   UNK N   1      27.793  29.449  -2.347  0.00  0.00     0.005 C 
ENDBRANCH   7   8
ENDBRANCH   6   7
ENDBRANCH   5   6
ENDBRANCH   4   5
ENDBRANCH   3   4
ENDBRANCH   2   3
ENDBRANCH   1   2
BRANCH   1  10
HETATM   10  C   UNK N   1      27.897  24.272  -4.673  0.00  0.00     0.002 C 
BRANCH  10  11
HETATM   11  C   UNK N   1      28.883  25.355  -4.262  0.00  0.00     0.028 C 
BRANCH  11  12
HETATM   12  C   UNK N   1      30.255  24.742  -4.030  0.00  0.00     0.192 C 
BRANCH  12  13
HETATM   13  O   UNK N   1      30.356  24.229  -2.730  0.00  0.00    -0.264 OA
BRANCH  13  14
HETATM   14  S   UNK N   1      30.583  22.531  -2.940  0.00  0.00     0.240 S 
HETATM   15  O   UNK N   1      31.821  21.995  -2.204  0.00  0.00    -0.579 OA
HETATM   16  O   UNK N   1      31.735  23.229  -3.683  0.00  0.00    -0.579 OA
BRANCH  14  17
HETATM   17  O   UNK N   1      30.501  23.003  -1.287  0.00  0.00    -0.274 OA
HETATM   18  H   UNK N   1      30.499  22.954  -0.318  0.00  0.00     0.234 HD
ENDBRANCH  14  17
ENDBRANCH  13  14
ENDBRANCH  12  13
ENDBRANCH  11  12
ENDBRANCH  10  11
ENDBRANCH   1  10
TORSDOF 13
ENDMDL
MODEL 2
REMARK VINA RESULT:      -4.7      1.199      3.101
REMARK  13 active torsions:
REMARK  status: ('A' for Active; 'I' for Inactive)
REMARK    1  A    between atoms: S_1  and  O_3 
REMARK    2  A    between atoms: S_1  and  O_4 
REMARK    3  A    between atoms: O_3  and  C_6 
REMARK    4  A    between atoms: C_6  and  C_17 
REMARK    5  A    between atoms: C_8  and  C_9 
REMARK    6  A    between atoms: C_9  and  C_10 
REMARK    7  A    between atoms: C_10  and  C_11 
REMARK    8  A    between atoms: C_11  and  C_12 
REMARK    9  A    between atoms: C_12  and  C_13 
REMARK   10  A    between atoms: C_13  and  C_14 
REMARK   11  A    between atoms: C_14  and  C_15 
REMARK   12  A    between atoms: C_15  and  C_16 
REMARK   13  A    between atoms: C_16  and  C_17 
ROOT
HETATM    1  C   UNK N   1      28.820  27.403  -6.226  0.00  0.00     0.000 C 
ENDROOT
BRANCH   1   2
HETATM    2  C   UNK N   1      29.044  28.460  -5.166  0.00  0.00     0.000 C 
BRANCH   2   3
HETATM    3  C   UNK N   1      27.826  29.361  -5.118  0.00  0.00     0.000 C 
BRANCH   3   4
HETATM    4  C   UNK N   1      27.131  29.257  -3.775  0.00  0.00     0.000 C 
BRANCH   4   5
HETATM    5  C   UNK N   1      25.861  28.443  -3.916  0.00  0.00     0.000 C 
BRANCH   5   6
HETATM    6  C   UNK N   1      26.109  27.035  -3.423  0.00  0.00     0.000 C 
BRANCH   6   7
HETATM    7  C   UNK N   1      25.851  26.061  -4.553  0.00  0.00    -0.000 C 
BRANCH   7   8
HETATM    8  C   UNK N   1      25.038  26.740  -5.634  0.00  0.00    -0.005 C 
HETATM    9  C   UNK N   1      25.553  26.312  -6.992  0.00  0.00     0.005 C 
ENDBRANCH   7   8
ENDBRANCH   6   7
ENDBRANCH   5   6
ENDBRANCH   4   5
ENDBRANCH   3   4
ENDBRANCH   2   3
ENDBRANCH   1   2
BRANCH   1  10
HETATM   10  C   UNK N   1      29.524  26.116  -5.841  0.00  0.00     0.002 C 
BRANCH  10  11
HETATM   11  C   UNK N   1      29.645  26.007  -4.328  0.00  0.00     0.028 C 
BRANCH  11  12
HETATM   12  C   UNK N   1      30.760  25.037  -3.968  0.00  0.00     0.192 C 
BRANCH  12  13
HETATM   13  O   UNK N   1      30.504  24.424  -2.734  0.00  0.00    -0.264 OA
BRANCH  13  14
HETATM   14  S   UNK N   1      30.571  22.730  -3.058  0.00  0.00     0.240 S 
HETATM   15  O   UNK N   1      31.688  22.014  -2.283  0.00  0.00    -0.579 OA
HETATM   16  O   UNK N   1      31.843  23.350  -3.664  0.00  0.00    -0.579 OA
BRANCH  14  17
HETATM   17  O   UNK N   1      30.413  23.093  -1.383  0.00  0.00    -0.274 OA
HETATM   18  H   UNK N   1      30.639  23.245  -0.452  0.00  0.00     0.234 HD
ENDBRANCH  14  17
ENDBRANCH  13  14
ENDBRANCH  12  13
ENDBRANCH  11  12
ENDBRANCH  10  11
ENDBRANCH   1  10
TORSDOF 13
ENDMDL
MODEL 3
REMARK VINA RESULT:      -4.6     14.040     15.690
REMARK  13 active torsions:
REMARK  status: ('A' for Active; 'I' for Inactive)
REMARK    1  A    between atoms: S_1  and  O_3 
REMARK    2  A    between atoms: S_1  and  O_4 
REMARK    3  A    between atoms: O_3  and  C_6 
REMARK    4  A    between atoms: C_6  and  C_17 
REMARK    5  A    between atoms: C_8  and  C_9 
REMARK    6  A    between atoms: C_9  and  C_10 
REMARK    7  A    between atoms: C_10  and  C_11 
REMARK    8  A    between atoms: C_11  and  C_12 
REMARK    9  A    between atoms: C_12  and  C_13 
REMARK   10  A    between atoms: C_13  and  C_14 
REMARK   11  A    between atoms: C_14  and  C_15 
REMARK   12  A    between atoms: C_15  and  C_16 
REMARK   13  A    between atoms: C_16  and  C_17 
ROOT
HETATM    1  C   UNK N   1      32.126  16.967   7.155  0.00  0.00     0.000 C 
ENDROOT
BRANCH   1   2
HETATM    2  C   UNK N   1      32.567  17.381   5.768  0.00  0.00     0.000 C 
BRANCH   2   3
HETATM    3  C   UNK N   1      31.346  17.441   4.872  0.00  0.00     0.000 C 
BRANCH   3   4
HETATM    4  C   UNK N   1      30.107  16.987   5.618  0.00  0.00     0.000 C 
BRANCH   4   5
HETATM    5  C   UNK N   1      28.934  17.874   5.252  0.00  0.00     0.000 C 
BRANCH   5   6
HETATM    6  C   UNK N   1      28.393  18.532   6.502  0.00  0.00     0.000 C 
BRANCH   6   7
HETATM    7  C   UNK N   1      28.532  17.576   7.666  0.00  0.00    -0.000 C 
BRANCH   7   8
HETATM    8  C   UNK N   1      28.236  18.303   8.960  0.00  0.00    -0.005 C 
HETATM    9  C   UNK N   1      29.529  18.534   9.712  0.00  0.00     0.005 C 
ENDBRANCH   7   8
ENDBRANCH   6   7
ENDBRANCH   5   6
ENDBRANCH   4   5
ENDBRANCH   3   4
ENDBRANCH   2   3
ENDBRANCH   1   2
BRANCH   1  10
HETATM   10  C   UNK N   1      32.737  17.887   8.196  0.00  0.00     0.002 C 
BRANCH  10  11
HETATM   11  C   UNK N   1      34.255  17.863   8.104  0.00  0.00     0.028 C 
BRANCH  11  12
HETATM   12  C   UNK N   1      34.834  17.130   9.304  0.00  0.00     0.192 C 
BRANCH  12  13
HETATM   13  O   UNK N   1      33.834  16.413   9.976  0.00  0.00    -0.264 OA
BRANCH  13  14
HETATM   14  S   UNK N   1      34.573  14.910  10.394  0.00  0.00     0.240 S 
HETATM   15  O   UNK N   1      34.463  14.583  11.892  0.00  0.00    -0.579 OA
HETATM   16  O   UNK N   1      35.425  16.018  11.037  0.00  0.00    -0.579 OA
BRANCH  14  17
HETATM   17  O   UNK N   1      32.921  15.008  10.870  0.00  0.00    -0.274 OA
HETATM   18  H   UNK N   1      32.040  14.751  11.185  0.00  0.00     0.234 HD
ENDBRANCH  14  17
ENDBRANCH  13  14
ENDBRANCH  12  13
ENDBRANCH  11  12
ENDBRANCH  10  11
ENDBRANCH   1  10
TORSDOF 13
ENDMDL
MODEL 4
REMARK VINA RESULT:      -4.6      1.510      2.147
REMARK  13 active torsions:
REMARK  status: ('A' for Active; 'I' for Inactive)
REMARK    1  A    between atoms: S_1  and  O_3 
REMARK    2  A    between atoms: S_1  and  O_4 
REMARK    3  A    between atoms: O_3  and  C_6 
REMARK    4  A    between atoms: C_6  and  C_17 
REMARK    5  A    between atoms: C_8  and  C_9 
REMARK    6  A    between atoms: C_9  and  C_10 
REMARK    7  A    between atoms: C_10  and  C_11 
REMARK    8  A    between atoms: C_11  and  C_12 
REMARK    9  A    between atoms: C_12  and  C_13 
REMARK   10  A    between atoms: C_13  and  C_14 
REMARK   11  A    between atoms: C_14  and  C_15 
REMARK   12  A    between atoms: C_15  and  C_16 
REMARK   13  A    between atoms: C_16  and  C_17 
ROOT
HETATM    1  C   UNK N   1      26.566  24.117  -5.864  0.00  0.00     0.000 C 
ENDROOT
BRANCH   1   2
HETATM    2  C   UNK N   1      26.370  24.614  -7.280  0.00  0.00     0.000 C 
BRANCH   2   3
HETATM    3  C   UNK N   1      26.083  26.102  -7.233  0.00  0.00     0.000 C 
BRANCH   3   4
HETATM    4  C   UNK N   1      27.152  26.881  -7.974  0.00  0.00     0.000 C 
BRANCH   4   5
HETATM    5  C   UNK N   1      27.675  27.999  -7.094  0.00  0.00     0.000 C 
BRANCH   5   6
HETATM    6  C   UNK N   1      28.451  27.406  -5.938  0.00  0.00     0.000 C 
BRANCH   6   7
HETATM    7  C   UNK N   1      28.209  28.240  -4.698  0.00  0.00    -0.000 C 
BRANCH   7   8
HETATM    8  C   UNK N   1      26.983  29.105  -4.899  0.00  0.00    -0.005 C 
HETATM    9  C   UNK N   1      25.916  28.700  -3.904  0.00  0.00     0.005 C 
ENDBRANCH   7   8
ENDBRANCH   6   7
ENDBRANCH   5   6
ENDBRANCH   4   5
ENDBRANCH   3   4
ENDBRANCH   2   3
ENDBRANCH   1   2
BRANCH   1  10
HETATM   10  C   UNK N   1      25.842  25.022  -4.885  0.00  0.00     0.002 C 
BRANCH  10  11
HETATM   11  C   UNK N   1      26.603  25.101  -3.570  0.00  0.00     0.028 C 
BRANCH  11  12
HETATM   12  C   UNK N   1      27.630  23.981  -3.499  0.00  0.00     0.192 C 
BRANCH  12  13
HETATM   13  O   UNK N   1      28.855  24.461  -3.017  0.00  0.00    -0.264 OA
BRANCH  13  14
HETATM   14  S   UNK N   1      29.847  23.058  -2.855  0.00  0.00     0.240 S 
HETATM   15  O   UNK N   1      30.489  22.934  -1.463  0.00  0.00    -0.579 OA
HETATM   16  O   UNK N   1      30.788  24.276  -2.815  0.00  0.00    -0.579 OA
BRANCH  14  17
HETATM   17  O   UNK N   1      28.614  23.157  -1.658  0.00  0.00    -0.274 OA
HETATM   18  H   UNK N   1      27.843  23.469  -1.159  0.00  0.00     0.234 HD
ENDBRANCH  14  17
ENDBRANCH  13  14
ENDBRANCH  12  13
ENDBRANCH  11  12
ENDBRANCH  10  11
ENDBRANCH   1  10
TORSDOF 13
ENDMDL
MODEL 5
REMARK VINA RESULT:      -4.5      4.699      7.414
REMARK  13 active torsions:
REMARK  status: ('A' for Active; 'I' for Inactive)
REMARK    1  A    between atoms: S_1  and  O_3 
REMARK    2  A    between atoms: S_1  and  O_4 
REMARK    3  A    between atoms: O_3  and  C_6 
REMARK    4  A    between atoms: C_6  and  C_17 
REMARK    5  A    between atoms: C_8  and  C_9 
REMARK    6  A    between atoms: C_9  and  C_10 
REMARK    7  A    between atoms: C_10  and  C_11 
REMARK    8  A    between atoms: C_11  and  C_12 
REMARK    9  A    between atoms: C_12  and  C_13 
REMARK   10  A    between atoms: C_13  and  C_14 
REMARK   11  A    between atoms: C_14  and  C_15 
REMARK   12  A    between atoms: C_15  and  C_16 
REMARK   13  A    between atoms: C_16  and  C_17 
ROOT
HETATM    1  C   UNK N   1      28.639  24.242  -4.850  0.00  0.00     0.000 C 
ENDROOT
BRANCH   1   2
HETATM    2  C   UNK N   1      30.059  24.034  -4.370  0.00  0.00     0.000 C 
BRANCH   2   3
HETATM    3  C   UNK N   1      30.017  23.548  -2.935  0.00  0.00     0.000 C 
BRANCH   3   4
HETATM    4  C   UNK N   1      30.900  22.329  -2.753  0.00  0.00     0.000 C 
BRANCH   4   5
HETATM    5  C   UNK N   1      30.412  21.204  -3.644  0.00  0.00     0.000 C 
BRANCH   5   6
HETATM    6  C   UNK N   1      31.595  20.564  -4.338  0.00  0.00     0.000 C 
BRANCH   6   7
HETATM    7  C   UNK N   1      31.191  20.167  -5.741  0.00  0.00    -0.000 C 
BRANCH   7   8
HETATM    8  C   UNK N   1      29.953  20.935  -6.151  0.00  0.00    -0.005 C 
HETATM    9  C   UNK N   1      29.338  20.281  -7.370  0.00  0.00     0.005 C 
ENDBRANCH   7   8
ENDBRANCH   6   7
ENDBRANCH   5   6
ENDBRANCH   4   5
ENDBRANCH   3   4
ENDBRANCH   2   3
ENDBRANCH   1   2
BRANCH   1  10
HETATM   10  C   UNK N   1      27.666  24.070  -3.699  0.00  0.00     0.002 C 
BRANCH  10  11
HETATM   11  C   UNK N   1      26.242  24.346  -4.158  0.00  0.00     0.028 C 
BRANCH  11  12
HETATM   12  C   UNK N   1      26.123  24.085  -5.652  0.00  0.00     0.192 C 
BRANCH  12  13
HETATM   13  O   UNK N   1      25.226  23.037  -5.901  0.00  0.00    -0.264 OA
BRANCH  13  14
HETATM   14  S   UNK N   1      25.570  22.534  -7.516  0.00  0.00     0.240 S 
HETATM   15  O   UNK N   1      24.469  22.926  -8.515  0.00  0.00    -0.579 OA
HETATM   16  O   UNK N   1      24.373  21.695  -7.034  0.00  0.00    -0.579 OA
BRANCH  14  17
HETATM   17  O   UNK N   1      25.268  24.224  -7.383  0.00  0.00    -0.274 OA
HETATM   18  H   UNK N   1      25.195  25.116  -7.009  0.00  0.00     0.234 HD
ENDBRANCH  14  17
ENDBRANCH  13  14
ENDBRANCH  12  13
ENDBRANCH  11  12
ENDBRANCH  10  11
ENDBRANCH   1  10
TORSDOF 13
ENDMDL
MODEL 6
REMARK VINA RESULT:      -4.5     12.094     13.484
REMARK  13 active torsions:
REMARK  status: ('A' for Active; 'I' for Inactive)
REMARK    1  A    between atoms: S_1  and  O_3 
REMARK    2  A    between atoms: S_1  and  O_4 
REMARK    3  A    between atoms: O_3  and  C_6 
REMARK    4  A    between atoms: C_6  and  C_17 
REMARK    5  A    between atoms: C_8  and  C_9 
REMARK    6  A    between atoms: C_9  and  C_10 
REMARK    7  A    between atoms: C_10  and  C_11 
REMARK    8  A    between atoms: C_11  and  C_12 
REMARK    9  A    between atoms: C_12  and  C_13 
REMARK   10  A    between atoms: C_13  and  C_14 
REMARK   11  A    between atoms: C_14  and  C_15 
REMARK   12  A    between atoms: C_15  and  C_16 
REMARK   13  A    between atoms: C_16  and  C_17 
ROOT
HETATM    1  C   UNK N   1      29.972  16.663   7.215  0.00  0.00     0.000 C 
ENDROOT
BRANCH   1   2
HETATM    2  C   UNK N   1      28.983  16.437   6.093  0.00  0.00     0.000 C 
BRANCH   2   3
HETATM    3  C   UNK N   1      29.545  17.047   4.825  0.00  0.00     0.000 C 
BRANCH   3   4
HETATM    4  C   UNK N   1      29.047  18.467   4.642  0.00  0.00     0.000 C 
BRANCH   4   5
HETATM    5  C   UNK N   1      27.542  18.463   4.460  0.00  0.00     0.000 C 
BRANCH   5   6
HETATM    6  C   UNK N   1      27.118  19.737   3.764  0.00  0.00     0.000 C 
BRANCH   6   7
HETATM    7  C   UNK N   1      25.995  20.382   4.548  0.00  0.00    -0.000 C 
BRANCH   7   8
HETATM    8  C   UNK N   1      26.364  20.433   6.015  0.00  0.00    -0.005 C 
HETATM    9  C   UNK N   1      27.149  21.698   6.290  0.00  0.00     0.005 C 
ENDBRANCH   7   8
ENDBRANCH   6   7
ENDBRANCH   5   6
ENDBRANCH   4   5
ENDBRANCH   3   4
ENDBRANCH   2   3
ENDBRANCH   1   2
BRANCH   1  10
HETATM   10  C   UNK N   1      29.502  17.794   8.109  0.00  0.00     0.002 C 
BRANCH  10  11
HETATM   11  C   UNK N   1      30.676  18.400   8.865  0.00  0.00     0.028 C 
BRANCH  11  12
HETATM   12  C   UNK N   1      31.966  17.708   8.455  0.00  0.00     0.192 C 
BRANCH  12  13
HETATM   13  O   UNK N   1      33.018  18.630   8.372  0.00  0.00    -0.264 OA
BRANCH  13  14
HETATM   14  S   UNK N   1      34.441  17.665   8.216  0.00  0.00     0.240 S 
HETATM   15  O   UNK N   1      35.289  17.633   9.498  0.00  0.00    -0.579 OA
HETATM   16  O   UNK N   1      34.906  19.127   8.341  0.00  0.00    -0.579 OA
BRANCH  14  17
HETATM   17  O   UNK N   1      33.444  17.191   9.536  0.00  0.00    -0.274 OA
HETATM   18  H   UNK N   1      32.659  16.944  10.050  0.00  0.00     0.234 HD
ENDBRANCH  14  17
ENDBRANCH  13  14
ENDBRANCH  12  13
ENDBRANCH  11  12
ENDBRANCH  10  11
ENDBRANCH   1  10
TORSDOF 13
ENDMDL
MODEL 7
REMARK VINA RESULT:      -4.5     15.455     17.389
REMARK  13 active torsions:
REMARK  status: ('A' for Active; 'I' for Inactive)
REMARK    1  A    between atoms: S_1  and  O_3 
REMARK    2  A    between atoms: S_1  and  O_4 
REMARK    3  A    between atoms: O_3  and  C_6 
REMARK    4  A    between atoms: C_6  and  C_17 
REMARK    5  A    between atoms: C_8  and  C_9 
REMARK    6  A    between atoms: C_9  and  C_10 
REMARK    7  A    between atoms: C_10  and  C_11 
REMARK    8  A    between atoms: C_11  and  C_12 
REMARK    9  A    between atoms: C_12  and  C_13 
REMARK   10  A    between atoms: C_13  and  C_14 
REMARK   11  A    between atoms: C_14  and  C_15 
REMARK   12  A    between atoms: C_15  and  C_16 
REMARK   13  A    between atoms: C_16  and  C_17 
ROOT
HETATM    1  C   UNK N   1      21.681  16.080   6.468  0.00  0.00     0.000 C 
ENDROOT
BRANCH   1   2
HETATM    2  C   UNK N   1      20.453  15.600   7.211  0.00  0.00     0.000 C 
BRANCH   2   3
HETATM    3  C   UNK N   1      20.698  15.757   8.699  0.00  0.00     0.000 C 
BRANCH   3   4
HETATM    4  C   UNK N   1      20.436  14.454   9.429  0.00  0.00     0.000 C 
BRANCH   4   5
HETATM    5  C   UNK N   1      21.751  13.776   9.755  0.00  0.00     0.000 C 
BRANCH   5   6
HETATM    6  C   UNK N   1      21.484  12.522  10.559  0.00  0.00     0.000 C 
BRANCH   6   7
HETATM    7  C   UNK N   1      22.704  11.629  10.506  0.00  0.00    -0.000 C 
BRANCH   7   8
HETATM    8  C   UNK N   1      23.703  12.070  11.554  0.00  0.00    -0.005 C 
HETATM    9  C   UNK N   1      23.119  11.838  12.931  0.00  0.00     0.005 C 
ENDBRANCH   7   8
ENDBRANCH   6   7
ENDBRANCH   5   6
ENDBRANCH   4   5
ENDBRANCH   3   4
ENDBRANCH   2   3
ENDBRANCH   1   2
BRANCH   1  10
HETATM   10  C   UNK N   1      21.379  16.212   4.987  0.00  0.00     0.002 C 
BRANCH  10  11
HETATM   11  C   UNK N   1      20.164  17.101   4.768  0.00  0.00     0.028 C 
BRANCH  11  12
HETATM   12  C   UNK N   1      20.429  18.065   3.623  0.00  0.00     0.192 C 
BRANCH  12  13
HETATM   13  O   UNK N   1      21.297  19.089   4.028  0.00  0.00    -0.264 OA
BRANCH  13  14
HETATM   14  S   UNK N   1      21.495  20.081   2.630  0.00  0.00     0.240 S 
HETATM   15  O   UNK N   1      22.237  21.395   2.926  0.00  0.00    -0.579 OA
HETATM   16  O   UNK N   1      20.512  20.814   3.560  0.00  0.00    -0.579 OA
BRANCH  14  17
HETATM   17  O   UNK N   1      22.982  19.720   3.420  0.00  0.00    -0.274 OA
HETATM   18  H   UNK N   1      23.917  19.756   3.676  0.00  0.00     0.234 HD
ENDBRANCH  14  17
ENDBRANCH  13  14
ENDBRANCH  12  13
ENDBRANCH  11  12
ENDBRANCH  10  11
ENDBRANCH   1  10
TORSDOF 13
ENDMDL
MODEL 8
REMARK VINA RESULT:      -4.5      1.410      2.139
REMARK  13 active torsions:
REMARK  status: ('A' for Active; 'I' for Inactive)
REMARK    1  A    between atoms: S_1  and  O_3 
REMARK    2  A    between atoms: S_1  and  O_4 
REMARK    3  A    between atoms: O_3  and  C_6 
REMARK    4  A    between atoms: C_6  and  C_17 
REMARK    5  A    between atoms: C_8  and  C_9 
REMARK    6  A    between atoms: C_9  and  C_10 
REMARK    7  A    between atoms: C_10  and  C_11 
REMARK    8  A    between atoms: C_11  and  C_12 
REMARK    9  A    between atoms: C_12  and  C_13 
REMARK   10  A    between atoms: C_13  and  C_14 
REMARK   11  A    between atoms: C_14  and  C_15 
REMARK   12  A    between atoms: C_15  and  C_16 
REMARK   13  A    between atoms: C_16  and  C_17 
ROOT
HETATM    1  C   UNK N   1      26.524  26.299  -6.753  0.00  0.00     0.000 C 
ENDROOT
BRANCH   1   2
HETATM    2  C   UNK N   1      25.277  26.188  -5.903  0.00  0.00     0.000 C 
BRANCH   2   3
HETATM    3  C   UNK N   1      24.961  27.556  -5.332  0.00  0.00     0.000 C 
BRANCH   3   4
HETATM    4  C   UNK N   1      25.617  27.740  -3.978  0.00  0.00     0.000 C 
BRANCH   4   5
HETATM    5  C   UNK N   1      26.182  29.142  -3.868  0.00  0.00     0.000 C 
BRANCH   5   6
HETATM    6  C   UNK N   1      27.157  29.380  -5.001  0.00  0.00     0.000 C 
BRANCH   6   7
HETATM    7  C   UNK N   1      28.569  29.337  -4.458  0.00  0.00    -0.000 C 
BRANCH   7   8
HETATM    8  C   UNK N   1      29.257  28.074  -4.931  0.00  0.00    -0.005 C 
HETATM    9  C   UNK N   1      30.533  27.873  -4.142  0.00  0.00     0.005 C 
ENDBRANCH   7   8
ENDBRANCH   6   7
ENDBRANCH   5   6
ENDBRANCH   4   5
ENDBRANCH   3   4
ENDBRANCH   2   3
ENDBRANCH   1   2
BRANCH   1  10
HETATM   10  C   UNK N   1      27.449  25.126  -6.484  0.00  0.00     0.002 C 
BRANCH  10  11
HETATM   11  C   UNK N   1      27.366  24.707  -5.024  0.00  0.00     0.028 C 
BRANCH  11  12
HETATM   12  C   UNK N   1      28.766  24.491  -4.469  0.00  0.00     0.192 C 
BRANCH  12  13
HETATM   13  O   UNK N   1      28.718  24.222  -3.095  0.00  0.00    -0.264 OA
BRANCH  13  14
HETATM   14  S   UNK N   1      29.900  22.990  -2.843  0.00  0.00     0.240 S 
HETATM   15  O   UNK N   1      30.475  22.991  -1.417  0.00  0.00    -0.579 OA
HETATM   16  O   UNK N   1      30.643  24.336  -2.787  0.00  0.00    -0.579 OA
BRANCH  14  17
HETATM   17  O   UNK N   1      28.602  22.923  -1.714  0.00  0.00    -0.274 OA
HETATM   18  H   UNK N   1      27.973  23.183  -1.022  0.00  0.00     0.234 HD
ENDBRANCH  14  17
ENDBRANCH  13  14
ENDBRANCH  12  13
ENDBRANCH  11  12
ENDBRANCH  10  11
ENDBRANCH   1  10
TORSDOF 13
ENDMDL
MODEL 9
REMARK VINA RESULT:      -4.4     13.525     15.037
REMARK  13 active torsions:
REMARK  status: ('A' for Active; 'I' for Inactive)
REMARK    1  A    between atoms: S_1  and  O_3 
REMARK    2  A    between atoms: S_1  and  O_4 
REMARK    3  A    between atoms: O_3  and  C_6 
REMARK    4  A    between atoms: C_6  and  C_17 
REMARK    5  A    between atoms: C_8  and  C_9 
REMARK    6  A    between atoms: C_9  and  C_10 
REMARK    7  A    between atoms: C_10  and  C_11 
REMARK    8  A    between atoms: C_11  and  C_12 
REMARK    9  A    between atoms: C_12  and  C_13 
REMARK   10  A    between atoms: C_13  and  C_14 
REMARK   11  A    between atoms: C_14  and  C_15 
REMARK   12  A    between atoms: C_15  and  C_16 
REMARK   13  A    between atoms: C_16  and  C_17 
ROOT
HETATM    1  C   UNK N   1      30.643  18.768   8.845  0.00  0.00     0.000 C 
ENDROOT
BRANCH   1   2
HETATM    2  C   UNK N   1      29.580  18.452   9.875  0.00  0.00     0.000 C 
BRANCH   2   3
HETATM    3  C   UNK N   1      28.332  17.986   9.152  0.00  0.00     0.000 C 
BRANCH   3   4
HETATM    4  C   UNK N   1      28.190  18.685   7.815  0.00  0.00     0.000 C 
BRANCH   4   5
HETATM    5  C   UNK N   1      28.056  17.657   6.710  0.00  0.00     0.000 C 
BRANCH   5   6
HETATM    6  C   UNK N   1      27.028  18.130   5.706  0.00  0.00     0.000 C 
BRANCH   6   7
HETATM    7  C   UNK N   1      27.736  18.580   4.446  0.00  0.00    -0.000 C 
BRANCH   7   8
HETATM    8  C   UNK N   1      27.816  20.091   4.420  0.00  0.00    -0.005 C 
HETATM    9  C   UNK N   1      26.548  20.671   5.009  0.00  0.00     0.005 C 
ENDBRANCH   7   8
ENDBRANCH   6   7
ENDBRANCH   5   6
ENDBRANCH   4   5
ENDBRANCH   3   4
ENDBRANCH   2   3
ENDBRANCH   1   2
BRANCH   1  10
HETATM   10  C   UNK N   1      31.559  17.574   8.654  0.00  0.00     0.002 C 
BRANCH  10  11
HETATM   11  C   UNK N   1      32.831  17.989   7.928  0.00  0.00     0.028 C 
BRANCH  11  12
HETATM   12  C   UNK N   1      34.048  17.557   8.732  0.00  0.00     0.192 C 
BRANCH  12  13
HETATM   13  O   UNK N   1      33.817  16.324   9.355  0.00  0.00    -0.264 OA
BRANCH  13  14
HETATM   14  S   UNK N   1      35.317  15.921  10.108  0.00  0.00     0.240 S 
HETATM   15  O   UNK N   1      35.427  16.444  11.549  0.00  0.00    -0.579 OA
HETATM   16  O   UNK N   1      35.317  17.446   9.905  0.00  0.00    -0.579 OA
BRANCH  14  17
HETATM   17  O   UNK N   1      33.947  15.389  11.004  0.00  0.00    -0.274 OA
HETATM   18  H   UNK N   1      33.094  15.396  11.466  0.00  0.00     0.234 HD
ENDBRANCH  14  17
ENDBRANCH  13  14
ENDBRANCH  12  13
ENDBRANCH  11  12
ENDBRANCH  10  11
ENDBRANCH   1  10
TORSDOF 13
ENDMDL
