REMARK  13 active torsions:
REMARK  status: ('A' for Active; 'I' for Inactive)
REMARK    1  A    between atoms: S_1  and  O_3 
REMARK    2  A    between atoms: S_1  and  O_4 
REMARK    3  A    between atoms: O_3  and  C_6 
REMARK    4  A    between atoms: C_6  and  C_17 
REMARK    5  A    between atoms: C_8  and  C_9 
REMARK    6  A    between atoms: C_9  and  C_10 
REMARK    7  A    between atoms: C_10  and  C_11 
REMARK    8  A    between atoms: C_11  and  C_12 
REMARK    9  A    between atoms: C_12  and  C_13 
REMARK   10  A    between atoms: C_13  and  C_14 
REMARK   11  A    between atoms: C_14  and  C_15 
REMARK   12  A    between atoms: C_15  and  C_16 
REMARK   13  A    between atoms: C_16  and  C_17 
ROOT
HETATM    1  C   UNK N   1      -1.355   0.797  -0.152  0.00  0.00     0.000 C 
ENDROOT
BRANCH   1   2
HETATM    2  C   UNK N   1      -0.166   0.081   0.451  0.00  0.00     0.000 C 
BRANCH   2   3
HETATM    3  C   UNK N   1       0.662  -0.509  -0.673  0.00  0.00     0.000 C 
BRANCH   3   4
HETATM    4  C   UNK N   1       1.938  -1.127  -0.136  0.00  0.00     0.000 C 
BRANCH   4   5
HETATM    5  C   UNK N   1       2.967  -0.043   0.115  0.00  0.00     0.000 C 
BRANCH   5   6
HETATM    6  C   UNK N   1       4.348  -0.660   0.149  0.00  0.00     0.000 C 
BRANCH   6   7
HETATM    7  C   UNK N   1       5.383   0.443   0.202  0.00  0.00    -0.000 C 
BRANCH   7   8
HETATM    8  C   UNK N   1       6.763  -0.144  -0.002  0.00  0.00    -0.005 C 
HETATM    9  C   UNK N   1       7.787   0.971  -0.002  0.00  0.00     0.005 C 
ENDBRANCH   7   8
ENDBRANCH   6   7
ENDBRANCH   5   6
ENDBRANCH   4   5
ENDBRANCH   3   4
ENDBRANCH   2   3
ENDBRANCH   1   2
BRANCH   1  10
HETATM   10  C   UNK N   1      -2.430   1.005   0.898  0.00  0.00     0.002 C 
BRANCH  10  11
HETATM   11  C   UNK N   1      -3.751   1.378   0.242  0.00  0.00     0.028 C 
BRANCH  11  12
HETATM   12  C   UNK N   1      -4.237   0.230  -0.629  0.00  0.00     0.192 C 
BRANCH  12  13
HETATM   13  O   UNK N   1      -5.637   0.215  -0.693  0.00  0.00    -0.264 OA
BRANCH  13  14
HETATM   14  S   UNK N   1      -6.121  -0.965   0.470  0.00  0.00     0.240 S 
HETATM   15  O   UNK N   1      -7.585  -1.404   0.307  0.00  0.00    -0.579 OA
HETATM   16  O   UNK N   1      -6.891   0.326   0.799  0.00  0.00    -0.579 OA
BRANCH  14  17
HETATM   17  O   UNK N   1      -6.377  -1.472  -1.155  0.00  0.00    -0.274 OA
HETATM   18  H   UNK N   1      -6.697  -1.490  -2.071  0.00  0.00     0.234 HD
ENDBRANCH  14  17
ENDBRANCH  13  14
ENDBRANCH  12  13
ENDBRANCH  11  12
ENDBRANCH  10  11
ENDBRANCH   1  10
TORSDOF 13
