REMARK  2 active torsions:
REMARK  status: ('A' for Active; 'I' for Inactive)
REMARK    1  A    between atoms: C_3  and  S_5 
REMARK    2  A    between atoms: S_5  and  N_10 
ROOT
HETATM    1  C   UNK N   1      -0.217   1.671   0.440  0.00  0.00     0.009 A 
HETATM    2  C   UNK N   1      -1.375   0.910   0.251  0.00  0.00     0.026 A 
HETATM    3  C   UNK N   1      -1.276  -0.447  -0.070  0.00  0.00     0.080 A 
HETATM    4  C   UNK N   1      -0.021  -1.048  -0.192  0.00  0.00     0.034 A 
HETATM    5  C   UNK N   1       1.142  -0.294   0.003  0.00  0.00    -0.033 A 
HETATM    6  C   UNK N   1       1.041   1.079   0.304  0.00  0.00    -0.049 A 
HETATM    7  C   UNK N   1       2.485  -0.955  -0.138  0.00  0.00     0.153 C 
HETATM    8  C   UNK N   1       3.512   1.198  -0.061  0.00  0.00     0.118 C 
HETATM    9  C   UNK N   1       2.273   1.923   0.461  0.00  0.00     0.058 C 
HETATM   10  N   UNK N   1       3.555  -0.160   0.471  0.00  0.00    -0.417 N 
HETATM   11  H   UNK N   1       4.225  -0.502   1.160  0.00  0.00     0.153 HD
ENDROOT
BRANCH   3  12
HETATM   12  S   UNK N   1      -2.755  -1.393  -0.402  0.00  0.00     0.256 S 
HETATM   13  O   UNK N   1      -3.936  -1.024   0.508  0.00  0.00    -0.201 OA
HETATM   14  O   UNK N   1      -2.589  -2.896  -0.131  0.00  0.00    -0.201 OA
BRANCH  12  15
HETATM   15  N   UNK N   1      -3.392  -1.295  -2.044  0.00  0.00    -0.324 N 
HETATM   16  H   UNK N   1      -3.527  -0.947  -2.994  0.00  0.00     0.169 HD
HETATM   17  H   UNK N   1      -4.031  -2.089  -2.044  0.00  0.00     0.169 HD
ENDBRANCH  12  15
ENDBRANCH   3  12
TORSDOF 2
