MODEL 1
REMARK VINA RESULT:      -5.9      0.000      0.000
REMARK  2 active torsions:
REMARK  status: ('A' for Active; 'I' for Inactive)
REMARK    1  A    between atoms: C_3  and  S_5 
REMARK    2  A    between atoms: S_5  and  N_10 
ROOT
HETATM    1  C   UNK N   1      30.697  17.196   6.229  0.00  0.00     0.009 A 
HETATM    2  C   UNK N   1      32.053  17.114   6.559  0.00  0.00     0.026 A 
HETATM    3  C   UNK N   1      32.493  17.534   7.818  0.00  0.00     0.080 A 
HETATM    4  C   UNK N   1      31.578  18.025   8.752  0.00  0.00     0.034 A 
HETATM    5  C   UNK N   1      30.218  18.103   8.430  0.00  0.00    -0.033 A 
HETATM    6  C   UNK N   1      29.779  17.701   7.153  0.00  0.00    -0.049 A 
HETATM    7  C   UNK N   1      29.247  18.640   9.445  0.00  0.00     0.153 C 
HETATM    8  C   UNK N   1      27.569  18.707   7.750  0.00  0.00     0.118 C 
HETATM    9  C   UNK N   1      28.335  17.828   6.763  0.00  0.00     0.058 C 
HETATM   10  N   UNK N   1      27.862  18.292   9.118  0.00  0.00    -0.417 N 
HETATM   11  H   UNK N   1      27.205  17.830   9.747  0.00  0.00     0.153 HD
ENDROOT
BRANCH   3  12
HETATM   12  S   UNK N   1      34.238  17.515   8.202  0.00  0.00     0.256 S 
HETATM   13  O   UNK N   1      34.953  18.834   7.872  0.00  0.00    -0.201 OA
HETATM   14  O   UNK N   1      35.033  16.495   7.372  0.00  0.00    -0.201 OA
BRANCH  12  15
HETATM   15  N   UNK N   1      34.665  17.168   9.878  0.00  0.00    -0.324 N 
HETATM   16  H   UNK N   1      34.562  17.091  10.890  0.00  0.00     0.169 HD
HETATM   17  H   UNK N   1      35.620  16.833   9.762  0.00  0.00     0.169 HD
ENDBRANCH  12  15
ENDBRANCH   3  12
TORSDOF 2
ENDMDL
MODEL 2
REMARK VINA RESULT:      -5.7     10.488     11.765
REMARK  2 active torsions:
REMARK  status: ('A' for Active; 'I' for Inactive)
REMARK    1  A    between atoms: C_3  and  S_5 
REMARK    2  A    between atoms: S_5  and  N_10 
ROOT
HETATM    1  C   UNK N   1      36.228  10.464  16.747  0.00  0.00     0.009 A 
HETATM    2  C   UNK N   1      36.312  11.127  15.519  0.00  0.00     0.026 A 
HETATM    3  C   UNK N   1      35.985  12.484  15.432  0.00  0.00     0.080 A 
HETATM    4  C   UNK N   1      35.584  13.182  16.573  0.00  0.00     0.034 A 
HETATM    5  C   UNK N   1      35.505  12.526  17.807  0.00  0.00    -0.033 A 
HETATM    6  C   UNK N   1      35.813  11.154  17.889  0.00  0.00    -0.049 A 
HETATM    7  C   UNK N   1      35.066  13.291  19.025  0.00  0.00     0.153 C 
HETATM    8  C   UNK N   1      34.894  11.229  20.214  0.00  0.00     0.118 C 
HETATM    9  C   UNK N   1      35.680  10.413  19.189  0.00  0.00     0.058 C 
HETATM   10  N   UNK N   1      35.411  12.593  20.266  0.00  0.00    -0.417 N 
HETATM   11  H   UNK N   1      35.931  12.996  21.045  0.00  0.00     0.153 HD
ENDROOT
BRANCH   3  12
HETATM   12  S   UNK N   1      36.004  13.304  13.844  0.00  0.00     0.256 S 
HETATM   13  O   UNK N   1      34.611  13.453  13.215  0.00  0.00    -0.201 OA
HETATM   14  O   UNK N   1      36.769  12.522  12.766  0.00  0.00    -0.201 OA
BRANCH  12  15
HETATM   15  N   UNK N   1      36.699  14.924  13.811  0.00  0.00    -0.324 N 
HETATM   16  H   UNK N   1      36.759  15.932  13.660  0.00  0.00     0.169 HD
HETATM   17  H   UNK N   1      37.634  14.734  14.170  0.00  0.00     0.169 HD
ENDBRANCH  12  15
ENDBRANCH   3  12
TORSDOF 2
ENDMDL
MODEL 3
REMARK VINA RESULT:      -5.6      8.570     10.321
REMARK  2 active torsions:
REMARK  status: ('A' for Active; 'I' for Inactive)
REMARK    1  A    between atoms: C_3  and  S_5 
REMARK    2  A    between atoms: S_5  and  N_10 
ROOT
HETATM    1  C   UNK N   1      23.968  17.931   4.672  0.00  0.00     0.009 A 
HETATM    2  C   UNK N   1      22.770  18.396   4.122  0.00  0.00     0.026 A 
HETATM    3  C   UNK N   1      22.761  19.557   3.343  0.00  0.00     0.080 A 
HETATM    4  C   UNK N   1      23.951  20.248   3.103  0.00  0.00     0.034 A 
HETATM    5  C   UNK N   1      25.156  19.784   3.644  0.00  0.00    -0.033 A 
HETATM    6  C   UNK N   1      25.159  18.627   4.449  0.00  0.00    -0.049 A 
HETATM    7  C   UNK N   1      26.427  20.543   3.381  0.00  0.00     0.153 C 
HETATM    8  C   UNK N   1      27.524  19.202   5.022  0.00  0.00     0.118 C 
HETATM    9  C   UNK N   1      26.427  18.141   5.089  0.00  0.00     0.058 C 
HETATM   10  N   UNK N   1      27.617  19.737   3.668  0.00  0.00    -0.417 N 
HETATM   11  H   UNK N   1      28.389  19.575   3.021  0.00  0.00     0.153 HD
ENDROOT
BRANCH   3  12
HETATM   12  S   UNK N   1      21.215  20.199   2.720  0.00  0.00     0.256 S 
HETATM   13  O   UNK N   1      21.381  21.435   1.824  0.00  0.00    -0.201 OA
HETATM   14  O   UNK N   1      20.282  20.716   3.825  0.00  0.00    -0.201 OA
BRANCH  12  15
HETATM   15  N   UNK N   1      20.227  19.080   1.779  0.00  0.00    -0.324 N 
HETATM   16  H   UNK N   1      19.851  18.597   0.963  0.00  0.00     0.169 HD
HETATM   17  H   UNK N   1      19.694  18.631   2.523  0.00  0.00     0.169 HD
ENDBRANCH  12  15
ENDBRANCH   3  12
TORSDOF 2
ENDMDL
MODEL 4
REMARK VINA RESULT:      -5.6      3.499      4.909
REMARK  2 active torsions:
REMARK  status: ('A' for Active; 'I' for Inactive)
REMARK    1  A    between atoms: C_3  and  S_5 
REMARK    2  A    between atoms: S_5  and  N_10 
ROOT
HETATM    1  C   UNK N   1      32.614  17.449   7.130  0.00  0.00     0.009 A 
HETATM    2  C   UNK N   1      31.759  17.626   8.223  0.00  0.00     0.026 A 
HETATM    3  C   UNK N   1      30.374  17.572   8.044  0.00  0.00     0.080 A 
HETATM    4  C   UNK N   1      29.840  17.331   6.776  0.00  0.00     0.034 A 
HETATM    5  C   UNK N   1      30.690  17.145   5.679  0.00  0.00    -0.033 A 
HETATM    6  C   UNK N   1      32.086  17.222   5.857  0.00  0.00    -0.049 A 
HETATM    7  C   UNK N   1      30.099  16.892   4.320  0.00  0.00     0.153 C 
HETATM    8  C   UNK N   1      32.264  17.195   3.362  0.00  0.00     0.118 C 
HETATM    9  C   UNK N   1      33.017  17.084   4.687  0.00  0.00     0.058 C 
HETATM   10  N   UNK N   1      31.084  16.337   3.387  0.00  0.00    -0.417 N 
HETATM   11  H   UNK N   1      30.965  15.484   2.841  0.00  0.00     0.153 HD
ENDROOT
BRANCH   3  12
HETATM   12  S   UNK N   1      29.285  17.892   9.424  0.00  0.00     0.256 S 
HETATM   13  O   UNK N   1      29.758  19.043  10.324  0.00  0.00    -0.201 OA
HETATM   14  O   UNK N   1      29.195  16.718  10.412  0.00  0.00    -0.201 OA
BRANCH  12  15
HETATM   15  N   UNK N   1      27.611  18.278   9.025  0.00  0.00    -0.324 N 
HETATM   16  H   UNK N   1      26.811  18.819   8.693  0.00  0.00     0.169 HD
HETATM   17  H   UNK N   1      27.149  17.413   9.300  0.00  0.00     0.169 HD
ENDBRANCH  12  15
ENDBRANCH   3  12
TORSDOF 2
ENDMDL
MODEL 5
REMARK VINA RESULT:      -5.6      4.510      6.439
REMARK  2 active torsions:
REMARK  status: ('A' for Active; 'I' for Inactive)
REMARK    1  A    between atoms: C_3  and  S_5 
REMARK    2  A    between atoms: S_5  and  N_10 
ROOT
HETATM    1  C   UNK N   1      34.724  14.019   9.095  0.00  0.00     0.009 A 
HETATM    2  C   UNK N   1      34.468  15.201   8.392  0.00  0.00     0.026 A 
HETATM    3  C   UNK N   1      34.735  16.439   8.984  0.00  0.00     0.080 A 
HETATM    4  C   UNK N   1      35.267  16.498  10.274  0.00  0.00     0.034 A 
HETATM    5  C   UNK N   1      35.532  15.319  10.980  0.00  0.00    -0.033 A 
HETATM    6  C   UNK N   1      35.241  14.072  10.391  0.00  0.00    -0.049 A 
HETATM    7  C   UNK N   1      36.100  15.401  12.370  0.00  0.00     0.153 C 
HETATM    8  C   UNK N   1      35.690  13.064  12.635  0.00  0.00     0.118 C 
HETATM    9  C   UNK N   1      35.462  12.795  11.149  0.00  0.00     0.058 C 
HETATM   10  N   UNK N   1      36.678  14.125  12.803  0.00  0.00    -0.417 N 
HETATM   11  H   UNK N   1      37.623  13.998  13.165  0.00  0.00     0.153 HD
ENDROOT
BRANCH   3  12
HETATM   12  S   UNK N   1      34.320  17.947   8.119  0.00  0.00     0.256 S 
HETATM   13  O   UNK N   1      34.530  17.860   6.600  0.00  0.00    -0.201 OA
HETATM   14  O   UNK N   1      35.213  19.135   8.507  0.00  0.00    -0.201 OA
BRANCH  12  15
HETATM   15  N   UNK N   1      32.669  18.534   8.322  0.00  0.00    -0.324 N 
HETATM   16  H   UNK N   1      31.825  19.081   8.150  0.00  0.00     0.169 HD
HETATM   17  H   UNK N   1      32.366  17.968   9.113  0.00  0.00     0.169 HD
ENDBRANCH  12  15
ENDBRANCH   3  12
TORSDOF 2
ENDMDL
MODEL 6
REMARK VINA RESULT:      -5.4      1.490      2.473
REMARK  2 active torsions:
REMARK  status: ('A' for Active; 'I' for Inactive)
REMARK    1  A    between atoms: C_3  and  S_5 
REMARK    2  A    between atoms: S_5  and  N_10 
ROOT
HETATM    1  C   UNK N   1      30.142  17.910   8.332  0.00  0.00     0.009 A 
HETATM    2  C   UNK N   1      31.502  17.954   8.655  0.00  0.00     0.026 A 
HETATM    3  C   UNK N   1      32.459  17.580   7.708  0.00  0.00     0.080 A 
HETATM    4  C   UNK N   1      32.060  17.171   6.433  0.00  0.00     0.034 A 
HETATM    5  C   UNK N   1      30.701  17.131   6.101  0.00  0.00    -0.033 A 
HETATM    6  C   UNK N   1      29.736  17.487   7.064  0.00  0.00    -0.049 A 
HETATM    7  C   UNK N   1      30.288  16.682   4.726  0.00  0.00     0.153 C 
HETATM    8  C   UNK N   1      28.023  16.598   5.474  0.00  0.00     0.118 C 
HETATM    9  C   UNK N   1      28.270  17.397   6.752  0.00  0.00     0.058 C 
HETATM   10  N   UNK N   1      28.909  17.068   4.414  0.00  0.00    -0.417 N 
HETATM   11  H   UNK N   1      28.614  17.585   3.585  0.00  0.00     0.153 HD
ENDROOT
BRANCH   3  12
HETATM   12  S   UNK N   1      34.189  17.549   8.154  0.00  0.00     0.256 S 
HETATM   13  O   UNK N   1      34.920  18.869   7.868  0.00  0.00    -0.201 OA
HETATM   14  O   UNK N   1      35.009  16.536   7.340  0.00  0.00    -0.201 OA
BRANCH  12  15
HETATM   15  N   UNK N   1      34.553  17.178   9.840  0.00  0.00    -0.324 N 
HETATM   16  H   UNK N   1      34.570  17.280  10.855  0.00  0.00     0.169 HD
HETATM   17  H   UNK N   1      35.084  16.315   9.731  0.00  0.00     0.169 HD
ENDBRANCH  12  15
ENDBRANCH   3  12
TORSDOF 2
ENDMDL
MODEL 7
REMARK VINA RESULT:      -5.4     16.859     17.719
REMARK  2 active torsions:
REMARK  status: ('A' for Active; 'I' for Inactive)
REMARK    1  A    between atoms: C_3  and  S_5 
REMARK    2  A    between atoms: S_5  and  N_10 
ROOT
HETATM    1  C   UNK N   1      27.338  27.617  -7.199  0.00  0.00     0.009 A 
HETATM    2  C   UNK N   1      26.977  26.364  -7.703  0.00  0.00     0.026 A 
HETATM    3  C   UNK N   1      26.191  25.500  -6.935  0.00  0.00     0.080 A 
HETATM    4  C   UNK N   1      25.756  25.891  -5.666  0.00  0.00     0.034 A 
HETATM    5  C   UNK N   1      26.108  27.147  -5.158  0.00  0.00    -0.033 A 
HETATM    6  C   UNK N   1      26.920  28.007  -5.924  0.00  0.00    -0.049 A 
HETATM    7  C   UNK N   1      25.637  27.550  -3.788  0.00  0.00     0.153 C 
HETATM    8  C   UNK N   1      27.105  29.430  -3.876  0.00  0.00     0.118 C 
HETATM    9  C   UNK N   1      27.359  29.336  -5.379  0.00  0.00     0.058 C 
HETATM   10  N   UNK N   1      25.745  28.995  -3.573  0.00  0.00    -0.417 N 
HETATM   11  H   UNK N   1      24.988  29.604  -3.262  0.00  0.00     0.153 HD
ENDROOT
BRANCH   3  12
HETATM   12  S   UNK N   1      25.810  23.865  -7.544  0.00  0.00     0.256 S 
HETATM   13  O   UNK N   1      24.733  23.854  -8.640  0.00  0.00    -0.201 OA
HETATM   14  O   UNK N   1      25.200  22.945  -6.476  0.00  0.00    -0.201 OA
BRANCH  12  15
HETATM   15  N   UNK N   1      27.159  22.948  -8.217  0.00  0.00    -0.324 N 
HETATM   16  H   UNK N   1      27.800  22.572  -8.916  0.00  0.00     0.169 HD
HETATM   17  H   UNK N   1      27.537  22.525  -7.370  0.00  0.00     0.169 HD
ENDBRANCH  12  15
ENDBRANCH   3  12
TORSDOF 2
ENDMDL
MODEL 8
REMARK VINA RESULT:      -5.1      2.519      2.996
REMARK  2 active torsions:
REMARK  status: ('A' for Active; 'I' for Inactive)
REMARK    1  A    between atoms: C_3  and  S_5 
REMARK    2  A    between atoms: S_5  and  N_10 
ROOT
HETATM    1  C   UNK N   1      33.715  17.285   5.820  0.00  0.00     0.009 A 
HETATM    2  C   UNK N   1      34.412  16.927   6.978  0.00  0.00     0.026 A 
HETATM    3  C   UNK N   1      33.720  16.424   8.084  0.00  0.00     0.080 A 
HETATM    4  C   UNK N   1      32.333  16.268   8.031  0.00  0.00     0.034 A 
HETATM    5  C   UNK N   1      31.630  16.617   6.872  0.00  0.00    -0.033 A 
HETATM    6  C   UNK N   1      32.326  17.146   5.766  0.00  0.00    -0.049 A 
HETATM    7  C   UNK N   1      30.137  16.449   6.834  0.00  0.00     0.153 C 
HETATM    8  C   UNK N   1      30.087  17.682   4.791  0.00  0.00     0.118 C 
HETATM    9  C   UNK N   1      31.589  17.582   4.533  0.00  0.00     0.058 C 
HETATM   10  N   UNK N   1      29.616  16.476   5.464  0.00  0.00    -0.417 N 
HETATM   11  H   UNK N   1      29.018  15.763   5.046  0.00  0.00     0.153 HD
ENDROOT
BRANCH   3  12
HETATM   12  S   UNK N   1      34.603  16.055   9.593  0.00  0.00     0.256 S 
HETATM   13  O   UNK N   1      35.236  17.291  10.250  0.00  0.00    -0.201 OA
HETATM   14  O   UNK N   1      35.817  15.139   9.379  0.00  0.00    -0.201 OA
BRANCH  12  15
HETATM   15  N   UNK N   1      33.670  15.281  10.874  0.00  0.00    -0.324 N 
HETATM   16  H   UNK N   1      33.477  14.756  11.728  0.00  0.00     0.169 HD
HETATM   17  H   UNK N   1      32.721  15.489  10.565  0.00  0.00     0.169 HD
ENDBRANCH  12  15
ENDBRANCH   3  12
TORSDOF 2
ENDMDL
MODEL 9
REMARK VINA RESULT:      -5.0      9.682     11.024
REMARK  2 active torsions:
REMARK  status: ('A' for Active; 'I' for Inactive)
REMARK    1  A    between atoms: C_3  and  S_5 
REMARK    2  A    between atoms: S_5  and  N_10 
ROOT
HETATM    1  C   UNK N   1      36.636  10.717  15.649  0.00  0.00     0.009 A 
HETATM    2  C   UNK N   1      36.645  11.420  14.439  0.00  0.00     0.026 A 
HETATM    3  C   UNK N   1      36.116  12.712  14.376  0.00  0.00     0.080 A 
HETATM    4  C   UNK N   1      35.586  13.308  15.523  0.00  0.00     0.034 A 
HETATM    5  C   UNK N   1      35.580  12.614  16.738  0.00  0.00    -0.033 A 
HETATM    6  C   UNK N   1      36.094  11.303  16.795  0.00  0.00    -0.049 A 
HETATM    7  C   UNK N   1      35.001  13.269  17.962  0.00  0.00     0.153 C 
HETATM    8  C   UNK N   1      35.121  11.172  19.096  0.00  0.00     0.118 C 
HETATM    9  C   UNK N   1      36.046  10.515  18.073  0.00  0.00     0.058 C 
HETATM   10  N   UNK N   1      35.420  12.597  19.195  0.00  0.00    -0.417 N 
HETATM   11  H   UNK N   1      35.855  13.053  19.997  0.00  0.00     0.153 HD
ENDROOT
BRANCH   3  12
HETATM   12  S   UNK N   1      36.045  13.569  12.810  0.00  0.00     0.256 S 
HETATM   13  O   UNK N   1      37.229  13.252  11.884  0.00  0.00    -0.201 OA
HETATM   14  O   UNK N   1      36.136  15.096  12.948  0.00  0.00    -0.201 OA
BRANCH  12  15
HETATM   15  N   UNK N   1      34.606  13.286  11.830  0.00  0.00    -0.324 N 
HETATM   16  H   UNK N   1      33.984  12.832  11.160  0.00  0.00     0.169 HD
HETATM   17  H   UNK N   1      34.032  14.081  12.108  0.00  0.00     0.169 HD
ENDBRANCH  12  15
ENDBRANCH   3  12
TORSDOF 2
ENDMDL
