MODEL 1
REMARK VINA RESULT:      -8.2      0.000      0.000
REMARK  8 active torsions:
REMARK  status: ('A' for Active; 'I' for Inactive)
REMARK    1  A    between atoms: S_1  and  C_4 
REMARK    2  A    between atoms: S_1  and  N_12 
REMARK    3  A    between atoms: C_7  and  O_10 
REMARK    4  A    between atoms: C_13  and  C_28 
REMARK       I    between atoms: N_15  and  C_18 
REMARK    5  A    between atoms: C_18  and  O_20 
REMARK    6  A    between atoms: O_20  and  C_21 
REMARK    7  A    between atoms: C_21  and  C_22 
REMARK       I    between atoms: C_28  and  N_29 
REMARK    8  A    between atoms: N_29  and  O_30 
ROOT
HETATM    1  N   UNK N   1      32.792  15.585   8.301  0.00  0.00    -0.190 NA
HETATM    2  C   UNK N   1      34.096  16.308   8.139  0.00  0.00     0.186 C 
HETATM    3  C   UNK N   1      34.612  16.822   9.489  0.00  0.00     0.158 C 
HETATM    4  N   UNK N   1      34.715  15.678  10.362  0.00  0.00    -0.325 N 
HETATM    5  C   UNK N   1      33.526  14.873  10.551  0.00  0.00     0.143 C 
HETATM    6  C   UNK N   1      32.976  14.431   9.193  0.00  0.00     0.128 C 
HETATM    7  C   UNK N   1      35.912  15.365  10.949  0.00  0.00     0.363 C 
HETATM    8  O   UNK N   1      36.854  16.137  10.850  0.00  0.00    -0.238 OA
ENDROOT
BRANCH   1   9
HETATM    9  S   UNK N   1      31.186  16.335   8.680  0.00  0.00     0.244 S 
HETATM   10  O   UNK N   1      31.903  17.680   8.549  0.00  0.00    -0.206 OA
HETATM   11  O   UNK N   1      31.126  15.781   7.246  0.00  0.00    -0.206 OA
BRANCH   9  12
HETATM   12  C   UNK N   1      29.975  17.305   7.659  0.00  0.00     0.074 A 
HETATM   13  C   UNK N   1      29.175  18.248   8.319  0.00  0.00     0.027 A 
HETATM   14  C   UNK N   1      28.264  19.038   7.605  0.00  0.00     0.038 A 
HETATM   15  C   UNK N   1      28.133  18.900   6.218  0.00  0.00     0.068 A 
HETATM   16  C   UNK N   1      28.931  17.971   5.541  0.00  0.00     0.038 A 
HETATM   17  C   UNK N   1      29.843  17.194   6.244  0.00  0.00     0.027 A 
BRANCH  15  18
HETATM   18  O   UNK N   1      27.236  19.668   5.555  0.00  0.00    -0.356 OA
HETATM   19  C   UNK N   1      26.962  20.973   5.905  0.00  0.00     0.210 C 
ENDBRANCH  15  18
ENDBRANCH   9  12
ENDBRANCH   1   9
BRANCH   2  20
HETATM   20  C   UNK N   1      34.137  17.366   7.053  0.00  0.00     0.261 C 
HETATM   21  N   UNK N   1      33.490  17.188   5.881  0.00  0.00    -0.236 N 
HETATM   22  H   UNK N   1      33.011  16.344   5.713  0.00  0.00     0.197 HD
HETATM   23  O   UNK N   1      34.705  18.426   7.272  0.00  0.00    -0.269 OA
BRANCH  21  24
HETATM   24  O   UNK N   1      33.489  18.145   4.942  0.00  0.00    -0.287 OA
HETATM   25  H   UNK N   1      32.688  18.315   4.422  0.00  0.00     0.244 HD
ENDBRANCH  21  24
ENDBRANCH   2  20
BRANCH   7  26
HETATM   26  O   UNK N   1      36.098  14.202  11.627  0.00  0.00    -0.299 OA
BRANCH  26  27
HETATM   27  C   UNK N   1      36.208  14.180  13.001  0.00  0.00     0.219 C 
BRANCH  27  28
HETATM   28  C   UNK N   1      35.445  13.061  13.618  0.00  0.00    -0.034 A 
HETATM   29  C   UNK N   1      34.965  12.031  12.803  0.00  0.00     0.009 A 
HETATM   30  C   UNK N   1      34.195  11.003  13.354  0.00  0.00     0.001 A 
HETATM   31  C   UNK N   1      33.895  11.009  14.719  0.00  0.00     0.000 A 
HETATM   32  C   UNK N   1      34.372  12.038  15.535  0.00  0.00     0.001 A 
HETATM   33  C   UNK N   1      35.144  13.064  14.984  0.00  0.00     0.009 A 
ENDBRANCH  27  28
ENDBRANCH  26  27
ENDBRANCH   7  26
TORSDOF 8
ENDMDL
MODEL 2
REMARK VINA RESULT:      -8.2      8.769     12.448
REMARK  8 active torsions:
REMARK  status: ('A' for Active; 'I' for Inactive)
REMARK    1  A    between atoms: S_1  and  C_4 
REMARK    2  A    between atoms: S_1  and  N_12 
REMARK    3  A    between atoms: C_7  and  O_10 
REMARK    4  A    between atoms: C_13  and  C_28 
REMARK       I    between atoms: N_15  and  C_18 
REMARK    5  A    between atoms: C_18  and  O_20 
REMARK    6  A    between atoms: O_20  and  C_21 
REMARK    7  A    between atoms: C_21  and  C_22 
REMARK       I    between atoms: C_28  and  N_29 
REMARK    8  A    between atoms: N_29  and  O_30 
ROOT
HETATM    1  N   UNK N   1      22.099  17.102   4.455  0.00  0.00    -0.190 NA
HETATM    2  C   UNK N   1      21.782  17.970   3.273  0.00  0.00     0.186 C 
HETATM    3  C   UNK N   1      22.251  19.411   3.507  0.00  0.00     0.158 C 
HETATM    4  N   UNK N   1      23.665  19.352   3.790  0.00  0.00    -0.325 N 
HETATM    5  C   UNK N   1      24.092  18.500   4.881  0.00  0.00     0.143 C 
HETATM    6  C   UNK N   1      23.552  17.082   4.677  0.00  0.00     0.128 C 
HETATM    7  C   UNK N   1      24.552  20.055   3.019  0.00  0.00     0.363 C 
HETATM    8  O   UNK N   1      24.135  20.845   2.186  0.00  0.00    -0.238 OA
ENDROOT
BRANCH   1   9
HETATM    9  S   UNK N   1      21.286  17.152   6.075  0.00  0.00     0.244 S 
HETATM   10  O   UNK N   1      20.178  16.320   5.426  0.00  0.00    -0.206 OA
HETATM   11  O   UNK N   1      22.488  16.196   6.175  0.00  0.00    -0.206 OA
BRANCH   9  12
HETATM   12  C   UNK N   1      20.982  15.859   7.373  0.00  0.00     0.074 A 
HETATM   13  C   UNK N   1      21.701  14.660   7.279  0.00  0.00     0.027 A 
HETATM   14  C   UNK N   1      21.545  13.654   8.242  0.00  0.00     0.038 A 
HETATM   15  C   UNK N   1      20.668  13.828   9.320  0.00  0.00     0.068 A 
HETATM   16  C   UNK N   1      19.950  15.023   9.436  0.00  0.00     0.038 A 
HETATM   17  C   UNK N   1      20.110  16.026   8.489  0.00  0.00     0.027 A 
BRANCH  15  18
HETATM   18  O   UNK N   1      20.529  12.835  10.230  0.00  0.00    -0.356 OA
HETATM   19  C   UNK N   1      21.596  12.274  10.898  0.00  0.00     0.210 C 
ENDBRANCH  15  18
ENDBRANCH   9  12
ENDBRANCH   1   9
BRANCH   2  20
HETATM   20  C   UNK N   1      20.358  17.892   2.757  0.00  0.00     0.261 C 
HETATM   21  N   UNK N   1      19.511  18.936   2.883  0.00  0.00    -0.236 N 
HETATM   22  H   UNK N   1      19.811  19.751   3.348  0.00  0.00     0.197 HD
HETATM   23  O   UNK N   1      19.996  16.893   2.151  0.00  0.00    -0.269 OA
BRANCH  21  24
HETATM   24  O   UNK N   1      18.269  18.881   2.383  0.00  0.00    -0.287 OA
HETATM   25  H   UNK N   1      17.724  19.682   2.346  0.00  0.00     0.244 HD
ENDBRANCH  21  24
ENDBRANCH   2  20
BRANCH   7  26
HETATM   26  O   UNK N   1      25.896  19.885   3.134  0.00  0.00    -0.299 OA
BRANCH  26  27
HETATM   27  C   UNK N   1      26.650  20.674   3.976  0.00  0.00     0.219 C 
BRANCH  27  28
HETATM   28  C   UNK N   1      27.386  19.878   4.997  0.00  0.00    -0.034 A 
HETATM   29  C   UNK N   1      28.078  18.731   4.601  0.00  0.00     0.009 A 
HETATM   30  C   UNK N   1      28.723  17.937   5.553  0.00  0.00     0.001 A 
HETATM   31  C   UNK N   1      28.669  18.286   6.906  0.00  0.00     0.000 A 
HETATM   32  C   UNK N   1      27.976  19.432   7.305  0.00  0.00     0.001 A 
HETATM   33  C   UNK N   1      27.333  20.226   6.351  0.00  0.00     0.009 A 
ENDBRANCH  27  28
ENDBRANCH  26  27
ENDBRANCH   7  26
TORSDOF 8
ENDMDL
MODEL 3
REMARK VINA RESULT:      -7.8      9.546     13.037
REMARK  8 active torsions:
REMARK  status: ('A' for Active; 'I' for Inactive)
REMARK    1  A    between atoms: S_1  and  C_4 
REMARK    2  A    between atoms: S_1  and  N_12 
REMARK    3  A    between atoms: C_7  and  O_10 
REMARK    4  A    between atoms: C_13  and  C_28 
REMARK       I    between atoms: N_15  and  C_18 
REMARK    5  A    between atoms: C_18  and  O_20 
REMARK    6  A    between atoms: O_20  and  C_21 
REMARK    7  A    between atoms: C_21  and  C_22 
REMARK       I    between atoms: C_28  and  N_29 
REMARK    8  A    between atoms: N_29  and  O_30 
ROOT
HETATM    1  N   UNK N   1      22.206  16.281   4.527  0.00  0.00    -0.190 NA
HETATM    2  C   UNK N   1      21.767  16.707   3.158  0.00  0.00     0.186 C 
HETATM    3  C   UNK N   1      21.201  18.132   3.179  0.00  0.00     0.158 C 
HETATM    4  N   UNK N   1      22.231  18.984   3.723  0.00  0.00    -0.325 N 
HETATM    5  C   UNK N   1      22.768  18.636   5.021  0.00  0.00     0.143 C 
HETATM    6  C   UNK N   1      23.258  17.186   5.011  0.00  0.00     0.128 C 
HETATM    7  C   UNK N   1      22.691  20.054   3.003  0.00  0.00     0.363 C 
HETATM    8  O   UNK N   1      22.129  20.372   1.965  0.00  0.00    -0.238 OA
ENDROOT
BRANCH   1   9
HETATM    9  S   UNK N   1      21.125  15.880   5.927  0.00  0.00     0.244 S 
HETATM   10  O   UNK N   1      21.135  14.448   5.386  0.00  0.00    -0.206 OA
HETATM   11  O   UNK N   1      22.547  16.103   6.472  0.00  0.00    -0.206 OA
BRANCH   9  12
HETATM   12  C   UNK N   1      21.387  14.896   7.480  0.00  0.00     0.074 A 
HETATM   13  C   UNK N   1      22.563  14.140   7.582  0.00  0.00     0.027 A 
HETATM   14  C   UNK N   1      22.841  13.401   8.739  0.00  0.00     0.038 A 
HETATM   15  C   UNK N   1      21.948  13.402   9.819  0.00  0.00     0.068 A 
HETATM   16  C   UNK N   1      20.775  14.160   9.739  0.00  0.00     0.038 A 
HETATM   17  C   UNK N   1      20.501  14.903   8.597  0.00  0.00     0.027 A 
BRANCH  15  18
HETATM   18  O   UNK N   1      22.237  12.670  10.920  0.00  0.00    -0.356 OA
HETATM   19  C   UNK N   1      23.382  11.912  11.039  0.00  0.00     0.210 C 
ENDBRANCH  15  18
ENDBRANCH   9  12
ENDBRANCH   1   9
BRANCH   2  20
HETATM   20  C   UNK N   1      20.874  15.732   2.415  0.00  0.00     0.261 C 
HETATM   21  N   UNK N   1      19.632  15.442   2.861  0.00  0.00    -0.236 N 
HETATM   22  H   UNK N   1      19.312  15.844   3.702  0.00  0.00     0.197 HD
HETATM   23  O   UNK N   1      21.258  15.257   1.356  0.00  0.00    -0.269 OA
BRANCH  21  24
HETATM   24  O   UNK N   1      18.829  14.616   2.177  0.00  0.00    -0.287 OA
HETATM   25  H   UNK N   1      17.887  14.559   2.401  0.00  0.00     0.244 HD
ENDBRANCH  21  24
ENDBRANCH   2  20
BRANCH   7  26
HETATM   26  O   UNK N   1      23.778  20.770   3.394  0.00  0.00    -0.299 OA
BRANCH  26  27
HETATM   27  C   UNK N   1      25.032  20.512   2.881  0.00  0.00     0.219 C 
BRANCH  27  28
HETATM   28  C   UNK N   1      25.993  20.056   3.922  0.00  0.00    -0.034 A 
HETATM   29  C   UNK N   1      26.233  20.870   5.033  0.00  0.00     0.009 A 
HETATM   30  C   UNK N   1      27.178  20.488   5.990  0.00  0.00     0.001 A 
HETATM   31  C   UNK N   1      27.889  19.295   5.833  0.00  0.00     0.000 A 
HETATM   32  C   UNK N   1      27.651  18.480   4.722  0.00  0.00     0.001 A 
HETATM   33  C   UNK N   1      26.706  18.862   3.767  0.00  0.00     0.009 A 
ENDBRANCH  27  28
ENDBRANCH  26  27
ENDBRANCH   7  26
TORSDOF 8
ENDMDL
MODEL 4
REMARK VINA RESULT:      -7.6      2.517      9.133
REMARK  8 active torsions:
REMARK  status: ('A' for Active; 'I' for Inactive)
REMARK    1  A    between atoms: S_1  and  C_4 
REMARK    2  A    between atoms: S_1  and  N_12 
REMARK    3  A    between atoms: C_7  and  O_10 
REMARK    4  A    between atoms: C_13  and  C_28 
REMARK       I    between atoms: N_15  and  C_18 
REMARK    5  A    between atoms: C_18  and  O_20 
REMARK    6  A    between atoms: O_20  and  C_21 
REMARK    7  A    between atoms: C_21  and  C_22 
REMARK       I    between atoms: C_28  and  N_29 
REMARK    8  A    between atoms: N_29  and  O_30 
ROOT
HETATM    1  N   UNK N   1      35.750  14.502  11.057  0.00  0.00    -0.190 NA
HETATM    2  C   UNK N   1      36.500  14.773   9.787  0.00  0.00     0.186 C 
HETATM    3  C   UNK N   1      35.630  14.476   8.559  0.00  0.00     0.158 C 
HETATM    4  N   UNK N   1      34.439  15.282   8.685  0.00  0.00    -0.325 N 
HETATM    5  C   UNK N   1      33.663  15.141   9.899  0.00  0.00     0.143 C 
HETATM    6  C   UNK N   1      34.559  15.361  11.120  0.00  0.00     0.128 C 
HETATM    7  C   UNK N   1      34.098  16.166   7.696  0.00  0.00     0.363 C 
HETATM    8  O   UNK N   1      34.721  16.167   6.645  0.00  0.00    -0.238 OA
ENDROOT
BRANCH   1   9
HETATM    9  S   UNK N   1      35.299  12.872  11.714  0.00  0.00     0.244 S 
HETATM   10  O   UNK N   1      36.769  12.748  12.120  0.00  0.00    -0.206 OA
HETATM   11  O   UNK N   1      34.720  13.942  12.656  0.00  0.00    -0.206 OA
BRANCH   9  12
HETATM   12  C   UNK N   1      35.153  12.205  13.441  0.00  0.00     0.074 A 
HETATM   13  C   UNK N   1      35.901  12.832  14.447  0.00  0.00     0.027 A 
HETATM   14  C   UNK N   1      35.814  12.402  15.777  0.00  0.00     0.038 A 
HETATM   15  C   UNK N   1      34.975  11.336  16.129  0.00  0.00     0.068 A 
HETATM   16  C   UNK N   1      34.213  10.707  15.140  0.00  0.00     0.038 A 
HETATM   17  C   UNK N   1      34.289  11.137  13.822  0.00  0.00     0.027 A 
BRANCH  15  18
HETATM   18  O   UNK N   1      34.919  10.934  17.421  0.00  0.00    -0.356 OA
HETATM   19  C   UNK N   1      35.977  10.333  18.067  0.00  0.00     0.210 C 
ENDBRANCH  15  18
ENDBRANCH   9  12
ENDBRANCH   1   9
BRANCH   2  20
HETATM   20  C   UNK N   1      37.883  14.157   9.690  0.00  0.00     0.261 C 
HETATM   21  N   UNK N   1      38.045  12.848   9.400  0.00  0.00    -0.236 N 
HETATM   22  H   UNK N   1      37.253  12.274   9.283  0.00  0.00     0.197 HD
HETATM   23  O   UNK N   1      38.866  14.875   9.804  0.00  0.00    -0.269 OA
BRANCH  21  24
HETATM   24  O   UNK N   1      39.269  12.318   9.268  0.00  0.00    -0.287 OA
HETATM   25  H   UNK N   1      39.851  12.242  10.040  0.00  0.00     0.244 HD
ENDBRANCH  21  24
ENDBRANCH   2  20
BRANCH   7  26
HETATM   26  O   UNK N   1      33.094  17.068   7.854  0.00  0.00    -0.299 OA
BRANCH  26  27
HETATM   27  C   UNK N   1      32.007  17.090   7.006  0.00  0.00     0.219 C 
BRANCH  27  28
HETATM   28  C   UNK N   1      30.754  17.502   7.696  0.00  0.00    -0.034 A 
HETATM   29  C   UNK N   1      30.836  18.217   8.894  0.00  0.00     0.009 A 
HETATM   30  C   UNK N   1      29.671  18.558   9.588  0.00  0.00     0.001 A 
HETATM   31  C   UNK N   1      28.423  18.177   9.087  0.00  0.00     0.000 A 
HETATM   32  C   UNK N   1      28.338  17.461   7.891  0.00  0.00     0.001 A 
HETATM   33  C   UNK N   1      29.503  17.121   7.197  0.00  0.00     0.009 A 
ENDBRANCH  27  28
ENDBRANCH  26  27
ENDBRANCH   7  26
TORSDOF 8
ENDMDL
MODEL 5
REMARK VINA RESULT:      -7.6      4.701     10.362
REMARK  8 active torsions:
REMARK  status: ('A' for Active; 'I' for Inactive)
REMARK    1  A    between atoms: S_1  and  C_4 
REMARK    2  A    between atoms: S_1  and  N_12 
REMARK    3  A    between atoms: C_7  and  O_10 
REMARK    4  A    between atoms: C_13  and  C_28 
REMARK       I    between atoms: N_15  and  C_18 
REMARK    5  A    between atoms: C_18  and  O_20 
REMARK    6  A    between atoms: O_20  and  C_21 
REMARK    7  A    between atoms: C_21  and  C_22 
REMARK       I    between atoms: C_28  and  N_29 
REMARK    8  A    between atoms: N_29  and  O_30 
ROOT
HETATM    1  N   UNK N   1      29.482  16.084   6.200  0.00  0.00    -0.190 NA
HETATM    2  C   UNK N   1      28.155  16.766   6.050  0.00  0.00     0.186 C 
HETATM    3  C   UNK N   1      27.968  17.301   4.625  0.00  0.00     0.158 C 
HETATM    4  N   UNK N   1      28.121  16.177   3.732  0.00  0.00    -0.325 N 
HETATM    5  C   UNK N   1      29.345  15.411   3.827  0.00  0.00     0.143 C 
HETATM    6  C   UNK N   1      29.561  14.949   5.270  0.00  0.00     0.128 C 
HETATM    7  C   UNK N   1      27.115  15.847   2.863  0.00  0.00     0.363 C 
HETATM    8  O   UNK N   1      26.152  16.589   2.742  0.00  0.00    -0.238 OA
ENDROOT
BRANCH   1   9
HETATM    9  S   UNK N   1      31.106  16.888   6.242  0.00  0.00     0.244 S 
HETATM   10  O   UNK N   1      30.552  17.707   7.410  0.00  0.00    -0.206 OA
HETATM   11  O   UNK N   1      31.266  15.464   6.802  0.00  0.00    -0.206 OA
BRANCH   9  12
HETATM   12  C   UNK N   1      32.517  16.819   7.447  0.00  0.00     0.074 A 
HETATM   13  C   UNK N   1      33.388  17.916   7.494  0.00  0.00     0.027 A 
HETATM   14  C   UNK N   1      34.455  17.946   8.403  0.00  0.00     0.038 A 
HETATM   15  C   UNK N   1      34.672  16.878   9.283  0.00  0.00     0.068 A 
HETATM   16  C   UNK N   1      33.805  15.780   9.257  0.00  0.00     0.038 A 
HETATM   17  C   UNK N   1      32.742  15.752   8.366  0.00  0.00     0.027 A 
BRANCH  15  18
HETATM   18  O   UNK N   1      35.716  16.928  10.143  0.00  0.00    -0.356 OA
HETATM   19  C   UNK N   1      35.867  16.049  11.193  0.00  0.00     0.210 C 
ENDBRANCH  15  18
ENDBRANCH   9  12
ENDBRANCH   1   9
BRANCH   2  20
HETATM   20  C   UNK N   1      27.813  17.793   7.112  0.00  0.00     0.261 C 
HETATM   21  N   UNK N   1      27.683  17.440   8.410  0.00  0.00    -0.236 N 
HETATM   22  H   UNK N   1      27.777  16.494   8.667  0.00  0.00     0.197 HD
HETATM   23  O   UNK N   1      27.727  18.971   6.798  0.00  0.00    -0.269 OA
BRANCH  21  24
HETATM   24  O   UNK N   1      27.428  18.358   9.352  0.00  0.00    -0.287 OA
HETATM   25  H   UNK N   1      26.539  18.429   9.733  0.00  0.00     0.244 HD
ENDBRANCH  21  24
ENDBRANCH   2  20
BRANCH   7  26
HETATM   26  O   UNK N   1      27.140  14.697   2.139  0.00  0.00    -0.299 OA
BRANCH  26  27
HETATM   27  C   UNK N   1      26.511  13.554   2.583  0.00  0.00     0.219 C 
BRANCH  27  28
HETATM   28  C   UNK N   1      25.435  13.099   1.660  0.00  0.00    -0.034 A 
HETATM   29  C   UNK N   1      25.399  11.760   1.259  0.00  0.00     0.009 A 
HETATM   30  C   UNK N   1      24.434  11.328   0.346  0.00  0.00     0.001 A 
HETATM   31  C   UNK N   1      23.507  12.236  -0.174  0.00  0.00     0.000 A 
HETATM   32  C   UNK N   1      23.542  13.575   0.224  0.00  0.00     0.001 A 
HETATM   33  C   UNK N   1      24.506  14.006   1.139  0.00  0.00     0.009 A 
ENDBRANCH  27  28
ENDBRANCH  26  27
ENDBRANCH   7  26
TORSDOF 8
ENDMDL
MODEL 6
REMARK VINA RESULT:      -7.5     15.901     18.435
REMARK  8 active torsions:
REMARK  status: ('A' for Active; 'I' for Inactive)
REMARK    1  A    between atoms: S_1  and  C_4 
REMARK    2  A    between atoms: S_1  and  N_12 
REMARK    3  A    between atoms: C_7  and  O_10 
REMARK    4  A    between atoms: C_13  and  C_28 
REMARK       I    between atoms: N_15  and  C_18 
REMARK    5  A    between atoms: C_18  and  O_20 
REMARK    6  A    between atoms: O_20  and  C_21 
REMARK    7  A    between atoms: C_21  and  C_22 
REMARK       I    between atoms: C_28  and  N_29 
REMARK    8  A    between atoms: N_29  and  O_30 
ROOT
HETATM    1  N   UNK N   1      26.901  23.508  -6.228  0.00  0.00    -0.190 NA
HETATM    2  C   UNK N   1      26.513  22.295  -7.021  0.00  0.00     0.186 C 
HETATM    3  C   UNK N   1      27.357  22.178  -8.297  0.00  0.00     0.158 C 
HETATM    4  N   UNK N   1      28.739  22.153  -7.884  0.00  0.00    -0.325 N 
HETATM    5  C   UNK N   1      29.212  23.251  -7.066  0.00  0.00     0.143 C 
HETATM    6  C   UNK N   1      28.314  23.409  -5.836  0.00  0.00     0.128 C 
HETATM    7  C   UNK N   1      29.544  21.102  -8.234  0.00  0.00     0.363 C 
HETATM    8  O   UNK N   1      29.132  20.259  -9.017  0.00  0.00    -0.238 OA
ENDROOT
BRANCH   1   9
HETATM    9  S   UNK N   1      26.562  25.234  -6.666  0.00  0.00     0.244 S 
HETATM   10  O   UNK N   1      25.237  25.050  -5.922  0.00  0.00    -0.206 OA
HETATM   11  O   UNK N   1      27.635  25.225  -5.563  0.00  0.00    -0.206 OA
BRANCH   9  12
HETATM   12  C   UNK N   1      26.477  26.796  -5.664  0.00  0.00     0.074 A 
HETATM   13  C   UNK N   1      27.233  27.892  -6.102  0.00  0.00     0.027 A 
HETATM   14  C   UNK N   1      27.191  29.112  -5.413  0.00  0.00     0.038 A 
HETATM   15  C   UNK N   1      26.392  29.259  -4.272  0.00  0.00     0.068 A 
HETATM   16  C   UNK N   1      25.623  28.179  -3.827  0.00  0.00     0.038 A 
HETATM   17  C   UNK N   1      25.654  26.972  -4.514  0.00  0.00     0.027 A 
BRANCH  15  18
HETATM   18  O   UNK N   1      26.379  30.446  -3.620  0.00  0.00    -0.356 OA
HETATM   19  C   UNK N   1      27.431  30.889  -2.847  0.00  0.00     0.210 C 
ENDBRANCH  15  18
ENDBRANCH   9  12
ENDBRANCH   1   9
BRANCH   2  20
HETATM   20  C   UNK N   1      25.029  22.121  -7.281  0.00  0.00     0.261 C 
HETATM   21  N   UNK N   1      24.226  21.526  -6.372  0.00  0.00    -0.236 N 
HETATM   22  H   UNK N   1      24.615  21.168  -5.541  0.00  0.00     0.197 HD
HETATM   23  O   UNK N   1      24.541  22.592  -8.298  0.00  0.00    -0.269 OA
BRANCH  21  24
HETATM   24  O   UNK N   1      22.907  21.416  -6.584  0.00  0.00    -0.287 OA
HETATM   25  H   UNK N   1      22.566  21.332  -7.489  0.00  0.00     0.244 HD
ENDBRANCH  21  24
ENDBRANCH   2  20
BRANCH   7  26
HETATM   26  O   UNK N   1      30.792  20.949  -7.718  0.00  0.00    -0.299 OA
BRANCH  26  27
HETATM   27  C   UNK N   1      31.076  19.956  -6.805  0.00  0.00     0.219 C 
BRANCH  27  28
HETATM   28  C   UNK N   1      31.555  20.496  -5.503  0.00  0.00    -0.034 A 
HETATM   29  C   UNK N   1      32.923  20.474  -5.217  0.00  0.00     0.009 A 
HETATM   30  C   UNK N   1      33.386  20.919  -3.975  0.00  0.00     0.001 A 
HETATM   31  C   UNK N   1      32.480  21.379  -3.016  0.00  0.00     0.000 A 
HETATM   32  C   UNK N   1      31.112  21.401  -3.300  0.00  0.00     0.001 A 
HETATM   33  C   UNK N   1      30.650  20.957  -4.541  0.00  0.00     0.009 A 
ENDBRANCH  27  28
ENDBRANCH  26  27
ENDBRANCH   7  26
TORSDOF 8
ENDMDL
MODEL 7
REMARK VINA RESULT:      -7.5      5.218      7.935
REMARK  8 active torsions:
REMARK  status: ('A' for Active; 'I' for Inactive)
REMARK    1  A    between atoms: S_1  and  C_4 
REMARK    2  A    between atoms: S_1  and  N_12 
REMARK    3  A    between atoms: C_7  and  O_10 
REMARK    4  A    between atoms: C_13  and  C_28 
REMARK       I    between atoms: N_15  and  C_18 
REMARK    5  A    between atoms: C_18  and  O_20 
REMARK    6  A    between atoms: O_20  and  C_21 
REMARK    7  A    between atoms: C_21  and  C_22 
REMARK       I    between atoms: C_28  and  N_29 
REMARK    8  A    between atoms: N_29  and  O_30 
ROOT
HETATM    1  N   UNK N   1      27.973  18.111   5.354  0.00  0.00    -0.190 NA
HETATM    2  C   UNK N   1      28.313  19.078   6.449  0.00  0.00     0.186 C 
HETATM    3  C   UNK N   1      28.729  18.339   7.727  0.00  0.00     0.158 C 
HETATM    4  N   UNK N   1      29.837  17.485   7.375  0.00  0.00    -0.325 N 
HETATM    5  C   UNK N   1      29.638  16.545   6.292  0.00  0.00     0.143 C 
HETATM    6  C   UNK N   1      29.147  17.284   5.045  0.00  0.00     0.128 C 
HETATM    7  C   UNK N   1      31.034  17.604   8.031  0.00  0.00     0.363 C 
HETATM    8  O   UNK N   1      31.117  18.330   9.010  0.00  0.00    -0.238 OA
ENDROOT
BRANCH   1   9
HETATM    9  S   UNK N   1      26.504  17.050   5.273  0.00  0.00     0.244 S 
HETATM   10  O   UNK N   1      25.835  18.215   4.540  0.00  0.00    -0.206 OA
HETATM   11  O   UNK N   1      27.542  16.503   4.277  0.00  0.00    -0.206 OA
BRANCH   9  12
HETATM   12  C   UNK N   1      25.659  16.171   3.872  0.00  0.00     0.074 A 
HETATM   13  C   UNK N   1      26.379  16.003   2.681  0.00  0.00     0.027 A 
HETATM   14  C   UNK N   1      25.815  15.320   1.595  0.00  0.00     0.038 A 
HETATM   15  C   UNK N   1      24.520  14.792   1.678  0.00  0.00     0.068 A 
HETATM   16  C   UNK N   1      23.792  14.942   2.863  0.00  0.00     0.038 A 
HETATM   17  C   UNK N   1      24.351  15.609   3.945  0.00  0.00     0.027 A 
BRANCH  15  18
HETATM   18  O   UNK N   1      23.996  14.147   0.609  0.00  0.00    -0.356 OA
HETATM   19  C   UNK N   1      22.703  13.670   0.580  0.00  0.00     0.210 C 
ENDBRANCH  15  18
ENDBRANCH   9  12
ENDBRANCH   1   9
BRANCH   2  20
HETATM   20  C   UNK N   1      27.293  20.171   6.708  0.00  0.00     0.261 C 
HETATM   21  N   UNK N   1      26.687  20.290   7.909  0.00  0.00    -0.236 N 
HETATM   22  H   UNK N   1      26.884  19.637   8.619  0.00  0.00     0.197 HD
HETATM   23  O   UNK N   1      27.073  21.000   5.838  0.00  0.00    -0.269 OA
BRANCH  21  24
HETATM   24  O   UNK N   1      25.822  21.286   8.149  0.00  0.00    -0.287 OA
HETATM   25  H   UNK N   1      25.129  21.176   8.819  0.00  0.00     0.244 HD
ENDBRANCH  21  24
ENDBRANCH   2  20
BRANCH   7  26
HETATM   26  O   UNK N   1      32.150  16.951   7.614  0.00  0.00    -0.299 OA
BRANCH  26  27
HETATM   27  C   UNK N   1      33.104  17.580   6.842  0.00  0.00     0.219 C 
BRANCH  27  28
HETATM   28  C   UNK N   1      33.249  16.961   5.496  0.00  0.00    -0.034 A 
HETATM   29  C   UNK N   1      32.700  17.606   4.385  0.00  0.00     0.009 A 
HETATM   30  C   UNK N   1      32.772  17.011   3.122  0.00  0.00     0.001 A 
HETATM   31  C   UNK N   1      33.387  15.765   2.971  0.00  0.00     0.000 A 
HETATM   32  C   UNK N   1      33.935  15.117   4.081  0.00  0.00     0.001 A 
HETATM   33  C   UNK N   1      33.864  15.714   5.343  0.00  0.00     0.009 A 
ENDBRANCH  27  28
ENDBRANCH  26  27
ENDBRANCH   7  26
TORSDOF 8
ENDMDL
MODEL 8
REMARK VINA RESULT:      -7.5      1.300      1.786
REMARK  8 active torsions:
REMARK  status: ('A' for Active; 'I' for Inactive)
REMARK    1  A    between atoms: S_1  and  C_4 
REMARK    2  A    between atoms: S_1  and  N_12 
REMARK    3  A    between atoms: C_7  and  O_10 
REMARK    4  A    between atoms: C_13  and  C_28 
REMARK       I    between atoms: N_15  and  C_18 
REMARK    5  A    between atoms: C_18  and  O_20 
REMARK    6  A    between atoms: O_20  and  C_21 
REMARK    7  A    between atoms: C_21  and  C_22 
REMARK       I    between atoms: C_28  and  N_29 
REMARK    8  A    between atoms: N_29  and  O_30 
ROOT
HETATM    1  N   UNK N   1      32.733  15.647   7.829  0.00  0.00    -0.190 NA
HETATM    2  C   UNK N   1      34.138  16.010   8.206  0.00  0.00     0.186 C 
HETATM    3  C   UNK N   1      34.449  15.586   9.648  0.00  0.00     0.158 C 
HETATM    4  N   UNK N   1      34.198  14.167   9.730  0.00  0.00    -0.325 N 
HETATM    5  C   UNK N   1      32.886  13.697   9.338  0.00  0.00     0.143 C 
HETATM    6  C   UNK N   1      32.555  14.192   7.928  0.00  0.00     0.128 C 
HETATM    7  C   UNK N   1      35.192  13.315  10.133  0.00  0.00     0.363 C 
HETATM    8  O   UNK N   1      36.242  13.770  10.560  0.00  0.00    -0.238 OA
ENDROOT
BRANCH   1   9
HETATM    9  S   UNK N   1      31.218  16.439   8.436  0.00  0.00     0.244 S 
HETATM   10  O   UNK N   1      31.942  17.765   8.195  0.00  0.00    -0.206 OA
HETATM   11  O   UNK N   1      30.935  15.885   7.028  0.00  0.00    -0.206 OA
BRANCH   9  12
HETATM   12  C   UNK N   1      29.895  17.438   7.598  0.00  0.00     0.074 A 
HETATM   13  C   UNK N   1      29.174  18.350   8.381  0.00  0.00     0.027 A 
HETATM   14  C   UNK N   1      28.184  19.160   7.808  0.00  0.00     0.038 A 
HETATM   15  C   UNK N   1      27.896  19.074   6.440  0.00  0.00     0.068 A 
HETATM   16  C   UNK N   1      28.614  18.177   5.642  0.00  0.00     0.038 A 
HETATM   17  C   UNK N   1      29.602  17.380   6.204  0.00  0.00     0.027 A 
BRANCH  15  18
HETATM   18  O   UNK N   1      26.927  19.860   5.915  0.00  0.00    -0.356 OA
HETATM   19  C   UNK N   1      26.983  21.237   5.938  0.00  0.00     0.210 C 
ENDBRANCH  15  18
ENDBRANCH   9  12
ENDBRANCH   1   9
BRANCH   2  20
HETATM   20  C   UNK N   1      34.557  17.437   7.911  0.00  0.00     0.261 C 
HETATM   21  N   UNK N   1      34.961  18.265   8.899  0.00  0.00    -0.236 N 
HETATM   22  H   UNK N   1      34.952  17.949   9.831  0.00  0.00     0.197 HD
HETATM   23  O   UNK N   1      34.598  17.820   6.751  0.00  0.00    -0.269 OA
BRANCH  21  24
HETATM   24  O   UNK N   1      35.375  19.511   8.628  0.00  0.00    -0.287 OA
HETATM   25  H   UNK N   1      34.726  20.220   8.494  0.00  0.00     0.244 HD
ENDBRANCH  21  24
ENDBRANCH   2  20
BRANCH   7  26
HETATM   26  O   UNK N   1      35.058  11.965  10.051  0.00  0.00    -0.299 OA
BRANCH  26  27
HETATM   27  C   UNK N   1      35.852  11.117  10.793  0.00  0.00     0.219 C 
BRANCH  27  28
HETATM   28  C   UNK N   1      35.410  11.014  12.210  0.00  0.00    -0.034 A 
HETATM   29  C   UNK N   1      34.125  10.541  12.493  0.00  0.00     0.009 A 
HETATM   30  C   UNK N   1      33.670  10.496  13.814  0.00  0.00     0.001 A 
HETATM   31  C   UNK N   1      34.497  10.932  14.853  0.00  0.00     0.000 A 
HETATM   32  C   UNK N   1      35.781  11.407  14.573  0.00  0.00     0.001 A 
HETATM   33  C   UNK N   1      36.235  11.450  13.253  0.00  0.00     0.009 A 
ENDBRANCH  27  28
ENDBRANCH  26  27
ENDBRANCH   7  26
TORSDOF 8
ENDMDL
MODEL 9
REMARK VINA RESULT:      -7.4      2.458      3.837
REMARK  8 active torsions:
REMARK  status: ('A' for Active; 'I' for Inactive)
REMARK    1  A    between atoms: S_1  and  C_4 
REMARK    2  A    between atoms: S_1  and  N_12 
REMARK    3  A    between atoms: C_7  and  O_10 
REMARK    4  A    between atoms: C_13  and  C_28 
REMARK       I    between atoms: N_15  and  C_18 
REMARK    5  A    between atoms: C_18  and  O_20 
REMARK    6  A    between atoms: O_20  and  C_21 
REMARK    7  A    between atoms: C_21  and  C_22 
REMARK       I    between atoms: C_28  and  N_29 
REMARK    8  A    between atoms: N_29  and  O_30 
ROOT
HETATM    1  N   UNK N   1      35.167  14.353   9.097  0.00  0.00    -0.190 NA
HETATM    2  C   UNK N   1      36.464  13.955   9.735  0.00  0.00     0.186 C 
HETATM    3  C   UNK N   1      36.668  14.682  11.070  0.00  0.00     0.158 C 
HETATM    4  N   UNK N   1      35.525  14.373  11.894  0.00  0.00    -0.325 N 
HETATM    5  C   UNK N   1      34.214  14.667  11.355  0.00  0.00     0.143 C 
HETATM    6  C   UNK N   1      34.052  14.001   9.987  0.00  0.00     0.128 C 
HETATM    7  C   UNK N   1      35.698  13.790  13.121  0.00  0.00     0.363 C 
HETATM    8  O   UNK N   1      36.825  13.665  13.578  0.00  0.00    -0.238 OA
ENDROOT
BRANCH   1   9
HETATM    9  S   UNK N   1      34.790  15.954   8.333  0.00  0.00     0.244 S 
HETATM   10  O   UNK N   1      35.351  15.351   7.044  0.00  0.00    -0.206 OA
HETATM   11  O   UNK N   1      33.461  15.214   8.568  0.00  0.00    -0.206 OA
BRANCH   9  12
HETATM   12  C   UNK N   1      33.520  16.490   7.089  0.00  0.00     0.074 A 
HETATM   13  C   UNK N   1      32.173  16.457   7.478  0.00  0.00     0.027 A 
HETATM   14  C   UNK N   1      31.165  16.879   6.601  0.00  0.00     0.038 A 
HETATM   15  C   UNK N   1      31.482  17.342   5.318  0.00  0.00     0.068 A 
HETATM   16  C   UNK N   1      32.822  17.391   4.917  0.00  0.00     0.038 A 
HETATM   17  C   UNK N   1      33.825  16.984   5.787  0.00  0.00     0.027 A 
BRANCH  15  18
HETATM   18  O   UNK N   1      30.487  17.732   4.487  0.00  0.00    -0.356 OA
HETATM   19  C   UNK N   1      29.176  17.857   4.893  0.00  0.00     0.210 C 
ENDBRANCH  15  18
ENDBRANCH   9  12
ENDBRANCH   1   9
BRANCH   2  20
HETATM   20  C   UNK N   1      37.688  14.014   8.841  0.00  0.00     0.261 C 
HETATM   21  N   UNK N   1      37.685  13.448   7.614  0.00  0.00    -0.236 N 
HETATM   22  H   UNK N   1      36.888  12.958   7.307  0.00  0.00     0.197 HD
HETATM   23  O   UNK N   1      38.666  14.648   9.208  0.00  0.00    -0.269 OA
BRANCH  21  24
HETATM   24  O   UNK N   1      38.752  13.543   6.808  0.00  0.00    -0.287 OA
HETATM   25  H   UNK N   1      38.872  12.909   6.084  0.00  0.00     0.244 HD
ENDBRANCH  21  24
ENDBRANCH   2  20
BRANCH   7  26
HETATM   26  O   UNK N   1      34.651  13.318  13.847  0.00  0.00    -0.299 OA
BRANCH  26  27
HETATM   27  C   UNK N   1      34.663  12.051  14.388  0.00  0.00     0.219 C 
BRANCH  27  28
HETATM   28  C   UNK N   1      34.929  12.057  15.853  0.00  0.00    -0.034 A 
HETATM   29  C   UNK N   1      35.140  10.844  16.514  0.00  0.00     0.009 A 
HETATM   30  C   UNK N   1      35.331  10.824  17.899  0.00  0.00     0.001 A 
HETATM   31  C   UNK N   1      35.301  12.018  18.625  0.00  0.00     0.000 A 
HETATM   32  C   UNK N   1      35.088  13.232  17.967  0.00  0.00     0.001 A 
HETATM   33  C   UNK N   1      34.900  13.251  16.582  0.00  0.00     0.009 A 
ENDBRANCH  27  28
ENDBRANCH  26  27
ENDBRANCH   7  26
TORSDOF 8
ENDMDL
