REMARK  8 active torsions:
REMARK  status: ('A' for Active; 'I' for Inactive)
REMARK    1  A    between atoms: S_1  and  C_4 
REMARK    2  A    between atoms: S_1  and  N_12 
REMARK    3  A    between atoms: C_7  and  O_10 
REMARK    4  A    between atoms: C_13  and  C_28 
REMARK       I    between atoms: N_15  and  C_18 
REMARK    5  A    between atoms: C_18  and  O_20 
REMARK    6  A    between atoms: O_20  and  C_21 
REMARK    7  A    between atoms: C_21  and  C_22 
REMARK       I    between atoms: C_28  and  N_29 
REMARK    8  A    between atoms: N_29  and  O_30 
ROOT
HETATM    1  N   UNK N   1      -0.256  -0.276  -0.910  0.00  0.00    -0.190 NA
HETATM    2  C   UNK N   1      -1.601   0.144  -0.396  0.00  0.00     0.186 C 
HETATM    3  C   UNK N   1      -1.485   0.782   0.994  0.00  0.00     0.158 C 
HETATM    4  N   UNK N   1      -0.566   1.888   0.872  0.00  0.00    -0.325 N 
HETATM    5  C   UNK N   1       0.749   1.607   0.335  0.00  0.00     0.143 C 
HETATM    6  C   UNK N   1       0.620   0.899  -1.016  0.00  0.00     0.128 C 
HETATM    7  C   UNK N   1      -0.959   3.152   1.223  0.00  0.00     0.363 C 
HETATM    8  O   UNK N   1      -2.036   3.319   1.775  0.00  0.00    -0.238 OA
ENDROOT
BRANCH   1   9
HETATM    9  S   UNK N   1       0.741  -1.665  -0.306  0.00  0.00     0.244 S 
HETATM   10  O   UNK N   1      -0.217  -1.695   0.887  0.00  0.00    -0.206 OA
HETATM   11  O   UNK N   1      -0.098  -2.163  -1.496  0.00  0.00    -0.206 OA
BRANCH   9  12
HETATM   12  C   UNK N   1       0.403  -3.484  -0.146  0.00  0.00     0.074 A 
HETATM   13  C   UNK N   1       1.505  -4.348  -0.082  0.00  0.00     0.027 A 
HETATM   14  C   UNK N   1       1.324  -5.729   0.072  0.00  0.00     0.038 A 
HETATM   15  C   UNK N   1       0.037  -6.274   0.165  0.00  0.00     0.068 A 
HETATM   16  C   UNK N   1      -1.074  -5.425   0.114  0.00  0.00     0.038 A 
HETATM   17  C   UNK N   1      -0.898  -4.055  -0.028  0.00  0.00     0.027 A 
BRANCH  15  18
HETATM   18  O   UNK N   1      -0.109  -7.613   0.302  0.00  0.00    -0.356 OA
HETATM   19  C   UNK N   1      -1.339  -8.230   0.381  0.00  0.00     0.210 C 
ENDBRANCH  15  18
ENDBRANCH   9  12
ENDBRANCH   1   9
BRANCH   2  20
HETATM   20  C   UNK N   1      -2.696  -0.903  -0.472  0.00  0.00     0.261 C 
HETATM   21  N   UNK N   1      -2.764  -1.909   0.427  0.00  0.00    -0.236 N 
HETATM   22  H   UNK N   1      -2.072  -1.985   1.124  0.00  0.00     0.197 HD
HETATM   23  O   UNK N   1      -3.572  -0.791  -1.317  0.00  0.00    -0.269 OA
BRANCH  21  24
HETATM   24  O   UNK N   1      -3.760  -2.805   0.385  0.00  0.00    -0.287 OA
HETATM   25  H   UNK N   1      -4.682  -2.505   0.354  0.00  0.00     0.244 HD
ENDBRANCH  21  24
ENDBRANCH   2  20
BRANCH   7  26
HETATM   26  O   UNK N   1      -0.194   4.243   0.955  0.00  0.00    -0.299 OA
BRANCH  26  27
HETATM   27  C   UNK N   1       0.400   4.420  -0.276  0.00  0.00     0.219 C 
BRANCH  27  28
HETATM   28  C   UNK N   1       1.841   4.778  -0.169  0.00  0.00    -0.034 A 
HETATM   29  C   UNK N   1       2.289   5.981  -0.722  0.00  0.00     0.009 A 
HETATM   30  C   UNK N   1       3.648   6.306  -0.686  0.00  0.00     0.001 A 
HETATM   31  C   UNK N   1       4.562   5.423  -0.104  0.00  0.00     0.000 A 
HETATM   32  C   UNK N   1       4.117   4.219   0.448  0.00  0.00     0.001 A 
HETATM   33  C   UNK N   1       2.758   3.896   0.413  0.00  0.00     0.009 A 
ENDBRANCH  27  28
ENDBRANCH  26  27
ENDBRANCH   7  26
TORSDOF 8
