MODEL 1
REMARK VINA RESULT:      -5.8      0.000      0.000
REMARK  10 active torsions:
REMARK  status: ('A' for Active; 'I' for Inactive)
REMARK    1  A    between atoms: C_1  and  C_7 
REMARK    2  A    between atoms: C_4  and  S_17 
REMARK       I    between atoms: C_7  and  N_9 
REMARK    3  A    between atoms: N_9  and  C_10 
REMARK    4  A    between atoms: C_10  and  C_11 
REMARK    5  A    between atoms: C_11  and  C_12 
REMARK    6  A    between atoms: C_12  and  C_13 
REMARK    7  A    between atoms: C_13  and  N_14 
REMARK    8  A    between atoms: N_14  and  C_15 
REMARK    9  A    between atoms: C_15  and  S_16 
REMARK   10  A    between atoms: S_17  and  N_20 
ROOT
HETATM    1  C   UNK N   1      28.128  18.171   8.669  0.00  0.00     0.251 C 
HETATM    2  O   UNK N   1      27.645  17.407   9.493  0.00  0.00    -0.268 OA
HETATM    3  N   UNK N   1      27.334  19.152   8.159  0.00  0.00    -0.357 N 
HETATM    4  H   UNK N   1      26.376  19.124   8.385  0.00  0.00     0.162 HD
ENDROOT
BRANCH   1   5
HETATM    5  C   UNK N   1      29.558  17.985   8.280  0.00  0.00     0.032 A 
HETATM    6  C   UNK N   1      29.872  17.263   7.116  0.00  0.00     0.018 A 
HETATM    7  C   UNK N   1      31.204  17.071   6.735  0.00  0.00     0.026 A 
HETATM    8  C   UNK N   1      32.235  17.619   7.504  0.00  0.00     0.079 A 
HETATM    9  C   UNK N   1      31.934  18.356   8.648  0.00  0.00     0.026 A 
HETATM   10  C   UNK N   1      30.606  18.535   9.034  0.00  0.00     0.018 A 
BRANCH   8  11
HETATM   11  S   UNK N   1      33.941  17.353   7.050  0.00  0.00     0.256 S 
HETATM   12  O   UNK N   1      34.874  18.433   7.619  0.00  0.00    -0.201 OA
HETATM   13  O   UNK N   1      34.188  17.466   5.537  0.00  0.00    -0.201 OA
BRANCH  11  14
HETATM   14  N   UNK N   1      34.681  15.823   7.522  0.00  0.00    -0.324 N 
HETATM   15  H   UNK N   1      35.280  15.224   6.954  0.00  0.00     0.169 HD
HETATM   16  H   UNK N   1      34.487  15.501   8.471  0.00  0.00     0.169 HD
ENDBRANCH  11  14
ENDBRANCH   8  11
ENDBRANCH   1   5
BRANCH   3  17
HETATM   17  C   UNK N   1      27.790  20.234   7.313  0.00  0.00     0.123 C 
BRANCH  17  18
HETATM   18  C   UNK N   1      26.644  20.863   6.535  0.00  0.00     0.021 C 
BRANCH  18  19
HETATM   19  C   UNK N   1      26.602  20.359   5.109  0.00  0.00     0.021 C 
BRANCH  19  20
HETATM   20  C   UNK N   1      27.996  19.904   4.720  0.00  0.00     0.114 C 
BRANCH  20  21
HETATM   21  N   UNK N   1      27.923  18.733   3.863  0.00  0.00    -0.413 N 
HETATM   22  H   UNK N   1      28.637  18.422   3.205  0.00  0.00     0.153 HD
BRANCH  21  23
HETATM   23  C   UNK N   1      26.648  18.082   4.114  0.00  0.00     0.185 C 
BRANCH  23  24
HETATM   24  S   UNK N   1      26.942  16.448   4.844  0.00  0.00    -0.163 SA
HETATM   25  H   UNK N   1      28.018  15.640   5.041  0.00  0.00     0.103 HD
ENDBRANCH  23  24
ENDBRANCH  21  23
ENDBRANCH  20  21
ENDBRANCH  19  20
ENDBRANCH  18  19
ENDBRANCH  17  18
ENDBRANCH   3  17
TORSDOF 10
ENDMDL
MODEL 2
REMARK VINA RESULT:      -5.7      1.220      1.342
REMARK  10 active torsions:
REMARK  status: ('A' for Active; 'I' for Inactive)
REMARK    1  A    between atoms: C_1  and  C_7 
REMARK    2  A    between atoms: C_4  and  S_17 
REMARK       I    between atoms: C_7  and  N_9 
REMARK    3  A    between atoms: N_9  and  C_10 
REMARK    4  A    between atoms: C_10  and  C_11 
REMARK    5  A    between atoms: C_11  and  C_12 
REMARK    6  A    between atoms: C_12  and  C_13 
REMARK    7  A    between atoms: C_13  and  N_14 
REMARK    8  A    between atoms: N_14  and  C_15 
REMARK    9  A    between atoms: C_15  and  S_16 
REMARK   10  A    between atoms: S_17  and  N_20 
ROOT
HETATM    1  C   UNK N   1      28.146  18.183   8.706  0.00  0.00     0.251 C 
HETATM    2  O   UNK N   1      27.691  17.542   9.643  0.00  0.00    -0.268 OA
HETATM    3  N   UNK N   1      27.379  19.174   8.174  0.00  0.00    -0.357 N 
HETATM    4  H   UNK N   1      26.448  19.245   8.486  0.00  0.00     0.162 HD
ENDROOT
BRANCH   1   5
HETATM    5  C   UNK N   1      29.514  17.846   8.211  0.00  0.00     0.032 A 
HETATM    6  C   UNK N   1      29.659  17.081   7.041  0.00  0.00     0.018 A 
HETATM    7  C   UNK N   1      30.931  16.748   6.562  0.00  0.00     0.026 A 
HETATM    8  C   UNK N   1      32.070  17.197   7.237  0.00  0.00     0.079 A 
HETATM    9  C   UNK N   1      31.937  17.975   8.386  0.00  0.00     0.026 A 
HETATM   10  C   UNK N   1      30.669  18.295   8.870  0.00  0.00     0.018 A 
BRANCH   8  11
HETATM   11  S   UNK N   1      33.699  16.751   6.657  0.00  0.00     0.256 S 
HETATM   12  O   UNK N   1      34.351  15.663   7.522  0.00  0.00    -0.201 OA
HETATM   13  O   UNK N   1      34.711  17.903   6.754  0.00  0.00    -0.201 OA
BRANCH  11  14
HETATM   14  N   UNK N   1      33.839  16.156   5.002  0.00  0.00    -0.324 N 
HETATM   15  H   UNK N   1      34.619  15.640   4.594  0.00  0.00     0.169 HD
HETATM   16  H   UNK N   1      33.051  16.351   4.384  0.00  0.00     0.169 HD
ENDBRANCH  11  14
ENDBRANCH   8  11
ENDBRANCH   1   5
BRANCH   3  17
HETATM   17  C   UNK N   1      27.828  20.131   7.186  0.00  0.00     0.123 C 
BRANCH  17  18
HETATM   18  C   UNK N   1      27.074  19.981   5.872  0.00  0.00     0.021 C 
BRANCH  18  19
HETATM   19  C   UNK N   1      28.018  19.716   4.720  0.00  0.00     0.021 C 
BRANCH  19  20
HETATM   20  C   UNK N   1      27.715  18.339   4.160  0.00  0.00     0.114 C 
BRANCH  20  21
HETATM   21  N   UNK N   1      28.908  17.767   3.557  0.00  0.00    -0.413 N 
HETATM   22  H   UNK N   1      29.777  18.262   3.355  0.00  0.00     0.153 HD
BRANCH  21  23
HETATM   23  C   UNK N   1      28.639  16.363   3.297  0.00  0.00     0.185 C 
BRANCH  23  24
HETATM   24  S   UNK N   1      27.034  15.916   4.013  0.00  0.00    -0.163 SA
HETATM   25  H   UNK N   1      26.136  16.500   4.851  0.00  0.00     0.103 HD
ENDBRANCH  23  24
ENDBRANCH  21  23
ENDBRANCH  20  21
ENDBRANCH  19  20
ENDBRANCH  18  19
ENDBRANCH  17  18
ENDBRANCH   3  17
TORSDOF 10
ENDMDL
MODEL 3
REMARK VINA RESULT:      -5.5      1.501      1.926
REMARK  10 active torsions:
REMARK  status: ('A' for Active; 'I' for Inactive)
REMARK    1  A    between atoms: C_1  and  C_7 
REMARK    2  A    between atoms: C_4  and  S_17 
REMARK       I    between atoms: C_7  and  N_9 
REMARK    3  A    between atoms: N_9  and  C_10 
REMARK    4  A    between atoms: C_10  and  C_11 
REMARK    5  A    between atoms: C_11  and  C_12 
REMARK    6  A    between atoms: C_12  and  C_13 
REMARK    7  A    between atoms: C_13  and  N_14 
REMARK    8  A    between atoms: N_14  and  C_15 
REMARK    9  A    between atoms: C_15  and  S_16 
REMARK   10  A    between atoms: S_17  and  N_20 
ROOT
HETATM    1  C   UNK N   1      28.126  18.102   8.636  0.00  0.00     0.251 C 
HETATM    2  O   UNK N   1      27.655  17.395   9.517  0.00  0.00    -0.268 OA
HETATM    3  N   UNK N   1      27.318  19.034   8.060  0.00  0.00    -0.357 N 
HETATM    4  H   UNK N   1      26.362  19.012   8.293  0.00  0.00     0.162 HD
ENDROOT
BRANCH   1   5
HETATM    5  C   UNK N   1      29.556  17.904   8.254  0.00  0.00     0.032 A 
HETATM    6  C   UNK N   1      30.565  18.553   8.986  0.00  0.00     0.018 A 
HETATM    7  C   UNK N   1      31.911  18.387   8.642  0.00  0.00     0.026 A 
HETATM    8  C   UNK N   1      32.261  17.553   7.576  0.00  0.00     0.079 A 
HETATM    9  C   UNK N   1      31.269  16.887   6.858  0.00  0.00     0.026 A 
HETATM   10  C   UNK N   1      29.927  17.064   7.193  0.00  0.00     0.018 A 
BRANCH   8  11
HETATM   11  S   UNK N   1      33.972  17.359   7.104  0.00  0.00     0.256 S 
HETATM   12  O   UNK N   1      34.867  18.467   7.678  0.00  0.00    -0.201 OA
HETATM   13  O   UNK N   1      34.201  17.498   5.591  0.00  0.00    -0.201 OA
BRANCH  11  14
HETATM   14  N   UNK N   1      34.775  15.853   7.553  0.00  0.00    -0.324 N 
HETATM   15  H   UNK N   1      34.707  14.952   7.081  0.00  0.00     0.169 HD
HETATM   16  H   UNK N   1      35.373  15.889   8.379  0.00  0.00     0.169 HD
ENDBRANCH  11  14
ENDBRANCH   8  11
ENDBRANCH   1   5
BRANCH   3  17
HETATM   17  C   UNK N   1      27.757  20.056   7.135  0.00  0.00     0.123 C 
BRANCH  17  18
HETATM   18  C   UNK N   1      27.603  19.611   5.688  0.00  0.00     0.021 C 
BRANCH  18  19
HETATM   19  C   UNK N   1      26.674  20.529   4.924  0.00  0.00     0.021 C 
BRANCH  19  20
HETATM   20  C   UNK N   1      25.695  19.675   4.140  0.00  0.00     0.114 C 
BRANCH  20  21
HETATM   21  N   UNK N   1      24.720  20.516   3.467  0.00  0.00    -0.413 N 
HETATM   22  H   UNK N   1      24.884  21.454   3.100  0.00  0.00     0.153 HD
BRANCH  21  23
HETATM   23  C   UNK N   1      23.468  19.780   3.408  0.00  0.00     0.185 C 
BRANCH  23  24
HETATM   24  S   UNK N   1      23.604  18.285   4.428  0.00  0.00    -0.163 SA
HETATM   25  H   UNK N   1      24.424  17.844   5.418  0.00  0.00     0.103 HD
ENDBRANCH  23  24
ENDBRANCH  21  23
ENDBRANCH  20  21
ENDBRANCH  19  20
ENDBRANCH  18  19
ENDBRANCH  17  18
ENDBRANCH   3  17
TORSDOF 10
ENDMDL
MODEL 4
REMARK VINA RESULT:      -5.5      3.778      8.463
REMARK  10 active torsions:
REMARK  status: ('A' for Active; 'I' for Inactive)
REMARK    1  A    between atoms: C_1  and  C_7 
REMARK    2  A    between atoms: C_4  and  S_17 
REMARK       I    between atoms: C_7  and  N_9 
REMARK    3  A    between atoms: N_9  and  C_10 
REMARK    4  A    between atoms: C_10  and  C_11 
REMARK    5  A    between atoms: C_11  and  C_12 
REMARK    6  A    between atoms: C_12  and  C_13 
REMARK    7  A    between atoms: C_13  and  N_14 
REMARK    8  A    between atoms: N_14  and  C_15 
REMARK    9  A    between atoms: C_15  and  S_16 
REMARK   10  A    between atoms: S_17  and  N_20 
ROOT
HETATM    1  C   UNK N   1      34.068  16.940   7.116  0.00  0.00     0.251 C 
HETATM    2  O   UNK N   1      34.596  17.744   6.360  0.00  0.00    -0.268 OA
HETATM    3  N   UNK N   1      34.844  15.962   7.657  0.00  0.00    -0.357 N 
HETATM    4  H   UNK N   1      35.764  15.872   7.319  0.00  0.00     0.162 HD
ENDROOT
BRANCH   1   5
HETATM    5  C   UNK N   1      32.609  17.087   7.403  0.00  0.00     0.032 A 
HETATM    6  C   UNK N   1      32.191  17.915   8.459  0.00  0.00     0.018 A 
HETATM    7  C   UNK N   1      30.830  18.063   8.750  0.00  0.00     0.026 A 
HETATM    8  C   UNK N   1      29.875  17.401   7.974  0.00  0.00     0.079 A 
HETATM    9  C   UNK N   1      30.279  16.595   6.910  0.00  0.00     0.026 A 
HETATM   10  C   UNK N   1      31.635  16.438   6.629  0.00  0.00     0.018 A 
BRANCH   8  11
HETATM   11  S   UNK N   1      28.137  17.553   8.355  0.00  0.00     0.256 S 
HETATM   12  O   UNK N   1      27.793  17.005   9.748  0.00  0.00    -0.201 OA
HETATM   13  O   UNK N   1      27.241  16.708   7.436  0.00  0.00    -0.201 OA
BRANCH  11  14
HETATM   14  N   UNK N   1      27.435  19.171   8.320  0.00  0.00    -0.324 N 
HETATM   15  H   UNK N   1      27.034  19.654   7.516  0.00  0.00     0.169 HD
HETATM   16  H   UNK N   1      27.429  19.680   9.204  0.00  0.00     0.169 HD
ENDBRANCH  11  14
ENDBRANCH   8  11
ENDBRANCH   1   5
BRANCH   3  17
HETATM   17  C   UNK N   1      34.420  15.043   8.692  0.00  0.00     0.123 C 
BRANCH  17  18
HETATM   18  C   UNK N   1      34.701  15.593  10.083  0.00  0.00     0.021 C 
BRANCH  18  19
HETATM   19  C   UNK N   1      36.173  15.514  10.422  0.00  0.00     0.021 C 
BRANCH  19  20
HETATM   20  C   UNK N   1      36.586  14.054  10.429  0.00  0.00     0.114 C 
BRANCH  20  21
HETATM   21  N   UNK N   1      37.456  13.782  11.560  0.00  0.00    -0.413 N 
HETATM   22  H   UNK N   1      38.411  14.118  11.680  0.00  0.00     0.153 HD
BRANCH  21  23
HETATM   23  C   UNK N   1      36.719  12.945  12.492  0.00  0.00     0.185 C 
BRANCH  23  24
HETATM   24  S   UNK N   1      36.220  13.938  13.926  0.00  0.00    -0.163 SA
HETATM   25  H   UNK N   1      35.346  14.953  14.160  0.00  0.00     0.103 HD
ENDBRANCH  23  24
ENDBRANCH  21  23
ENDBRANCH  20  21
ENDBRANCH  19  20
ENDBRANCH  18  19
ENDBRANCH  17  18
ENDBRANCH   3  17
TORSDOF 10
ENDMDL
MODEL 5
REMARK VINA RESULT:      -5.4     11.748     13.841
REMARK  10 active torsions:
REMARK  status: ('A' for Active; 'I' for Inactive)
REMARK    1  A    between atoms: C_1  and  C_7 
REMARK    2  A    between atoms: C_4  and  S_17 
REMARK       I    between atoms: C_7  and  N_9 
REMARK    3  A    between atoms: N_9  and  C_10 
REMARK    4  A    between atoms: C_10  and  C_11 
REMARK    5  A    between atoms: C_11  and  C_12 
REMARK    6  A    between atoms: C_12  and  C_13 
REMARK    7  A    between atoms: C_13  and  N_14 
REMARK    8  A    between atoms: N_14  and  C_15 
REMARK    9  A    between atoms: C_15  and  S_16 
REMARK   10  A    between atoms: S_17  and  N_20 
ROOT
HETATM    1  C   UNK N   1      25.798  24.110  -6.377  0.00  0.00     0.251 C 
HETATM    2  O   UNK N   1      25.080  23.200  -6.768  0.00  0.00    -0.268 OA
HETATM    3  N   UNK N   1      25.434  25.387  -6.674  0.00  0.00    -0.357 N 
HETATM    4  H   UNK N   1      24.679  25.512  -7.294  0.00  0.00     0.162 HD
ENDROOT
BRANCH   1   5
HETATM    5  C   UNK N   1      27.021  23.765  -5.593  0.00  0.00     0.032 A 
HETATM    6  C   UNK N   1      28.068  23.064  -6.215  0.00  0.00     0.018 A 
HETATM    7  C   UNK N   1      29.221  22.725  -5.498  0.00  0.00     0.026 A 
HETATM    8  C   UNK N   1      29.346  23.103  -4.158  0.00  0.00     0.079 A 
HETATM    9  C   UNK N   1      28.322  23.819  -3.538  0.00  0.00     0.026 A 
HETATM   10  C   UNK N   1      27.168  24.144  -4.250  0.00  0.00     0.018 A 
BRANCH   8  11
HETATM   11  S   UNK N   1      30.796  22.648  -3.221  0.00  0.00     0.256 S 
HETATM   12  O   UNK N   1      30.684  23.040  -1.740  0.00  0.00    -0.201 OA
HETATM   13  O   UNK N   1      32.063  23.394  -3.667  0.00  0.00    -0.201 OA
BRANCH  11  14
HETATM   14  N   UNK N   1      31.251  20.943  -3.203  0.00  0.00    -0.324 N 
HETATM   15  H   UNK N   1      31.748  20.428  -3.929  0.00  0.00     0.169 HD
HETATM   16  H   UNK N   1      30.986  20.414  -2.372  0.00  0.00     0.169 HD
ENDBRANCH  11  14
ENDBRANCH   8  11
ENDBRANCH   1   5
BRANCH   3  17
HETATM   17  C   UNK N   1      26.069  26.576  -6.148  0.00  0.00     0.123 C 
BRANCH  17  18
HETATM   18  C   UNK N   1      25.108  27.406  -5.310  0.00  0.00     0.021 C 
BRANCH  18  19
HETATM   19  C   UNK N   1      25.569  27.500  -3.871  0.00  0.00     0.021 C 
BRANCH  19  20
HETATM   20  C   UNK N   1      26.205  28.861  -3.660  0.00  0.00     0.114 C 
BRANCH  20  21
HETATM   21  N   UNK N   1      27.126  28.817  -2.536  0.00  0.00    -0.413 N 
HETATM   22  H   UNK N   1      26.908  28.499  -1.592  0.00  0.00     0.153 HD
BRANCH  21  23
HETATM   23  C   UNK N   1      28.412  29.307  -3.001  0.00  0.00     0.185 C 
BRANCH  23  24
HETATM   24  S   UNK N   1      29.313  27.955  -3.809  0.00  0.00    -0.163 SA
HETATM   25  H   UNK N   1      29.691  26.691  -3.477  0.00  0.00     0.103 HD
ENDBRANCH  23  24
ENDBRANCH  21  23
ENDBRANCH  20  21
ENDBRANCH  19  20
ENDBRANCH  18  19
ENDBRANCH  17  18
ENDBRANCH   3  17
TORSDOF 10
ENDMDL
MODEL 6
REMARK VINA RESULT:      -5.3     11.688     13.741
REMARK  10 active torsions:
REMARK  status: ('A' for Active; 'I' for Inactive)
REMARK    1  A    between atoms: C_1  and  C_7 
REMARK    2  A    between atoms: C_4  and  S_17 
REMARK       I    between atoms: C_7  and  N_9 
REMARK    3  A    between atoms: N_9  and  C_10 
REMARK    4  A    between atoms: C_10  and  C_11 
REMARK    5  A    between atoms: C_11  and  C_12 
REMARK    6  A    between atoms: C_12  and  C_13 
REMARK    7  A    between atoms: C_13  and  N_14 
REMARK    8  A    between atoms: N_14  and  C_15 
REMARK    9  A    between atoms: C_15  and  S_16 
REMARK   10  A    between atoms: S_17  and  N_20 
ROOT
HETATM    1  C   UNK N   1      25.938  27.142  -4.035  0.00  0.00     0.251 C 
HETATM    2  O   UNK N   1      25.476  27.715  -3.057  0.00  0.00    -0.268 OA
HETATM    3  N   UNK N   1      25.423  27.444  -5.258  0.00  0.00    -0.357 N 
HETATM    4  H   UNK N   1      24.621  28.015  -5.285  0.00  0.00     0.162 HD
ENDROOT
BRANCH   1   5
HETATM    5  C   UNK N   1      27.041  26.157  -3.827  0.00  0.00     0.032 A 
HETATM    6  C   UNK N   1      26.736  24.860  -3.378  0.00  0.00     0.018 A 
HETATM    7  C   UNK N   1      27.754  23.923  -3.171  0.00  0.00     0.026 A 
HETATM    8  C   UNK N   1      29.083  24.267  -3.431  0.00  0.00     0.079 A 
HETATM    9  C   UNK N   1      29.394  25.543  -3.898  0.00  0.00     0.026 A 
HETATM   10  C   UNK N   1      28.380  26.481  -4.091  0.00  0.00     0.018 A 
BRANCH   8  11
HETATM   11  S   UNK N   1      30.395  23.092  -3.138  0.00  0.00     0.256 S 
HETATM   12  O   UNK N   1      30.737  22.955  -1.647  0.00  0.00    -0.201 OA
HETATM   13  O   UNK N   1      31.738  23.521  -3.749  0.00  0.00    -0.201 OA
BRANCH  11  14
HETATM   14  N   UNK N   1      30.145  21.437  -3.697  0.00  0.00    -0.324 N 
HETATM   15  H   UNK N   1      29.581  20.712  -3.252  0.00  0.00     0.169 HD
HETATM   16  H   UNK N   1      30.619  21.175  -4.562  0.00  0.00     0.169 HD
ENDBRANCH  11  14
ENDBRANCH   8  11
ENDBRANCH   1   5
BRANCH   3  17
HETATM   17  C   UNK N   1      25.964  26.991  -6.522  0.00  0.00     0.123 C 
BRANCH  17  18
HETATM   18  C   UNK N   1      25.601  25.540  -6.803  0.00  0.00     0.021 C 
BRANCH  18  19
HETATM   19  C   UNK N   1      26.801  24.753  -7.282  0.00  0.00     0.021 C 
BRANCH  19  20
HETATM   20  C   UNK N   1      26.659  23.321  -6.801  0.00  0.00     0.114 C 
BRANCH  20  21
HETATM   21  N   UNK N   1      25.255  22.957  -6.710  0.00  0.00    -0.413 N 
HETATM   22  H   UNK N   1      24.555  23.401  -6.116  0.00  0.00     0.153 HD
BRANCH  21  23
HETATM   23  C   UNK N   1      25.028  21.848  -7.621  0.00  0.00     0.185 C 
BRANCH  23  24
HETATM   24  S   UNK N   1      26.624  21.233  -8.227  0.00  0.00    -0.163 SA
HETATM   25  H   UNK N   1      27.047  20.445  -9.251  0.00  0.00     0.103 HD
ENDBRANCH  23  24
ENDBRANCH  21  23
ENDBRANCH  20  21
ENDBRANCH  19  20
ENDBRANCH  18  19
ENDBRANCH  17  18
ENDBRANCH   3  17
TORSDOF 10
ENDMDL
MODEL 7
REMARK VINA RESULT:      -5.3      3.737      6.662
REMARK  10 active torsions:
REMARK  status: ('A' for Active; 'I' for Inactive)
REMARK    1  A    between atoms: C_1  and  C_7 
REMARK    2  A    between atoms: C_4  and  S_17 
REMARK       I    between atoms: C_7  and  N_9 
REMARK    3  A    between atoms: N_9  and  C_10 
REMARK    4  A    between atoms: C_10  and  C_11 
REMARK    5  A    between atoms: C_11  and  C_12 
REMARK    6  A    between atoms: C_12  and  C_13 
REMARK    7  A    between atoms: C_13  and  N_14 
REMARK    8  A    between atoms: N_14  and  C_15 
REMARK    9  A    between atoms: C_15  and  S_16 
REMARK   10  A    between atoms: S_17  and  N_20 
ROOT
HETATM    1  C   UNK N   1      34.491  18.015   8.373  0.00  0.00     0.251 C 
HETATM    2  O   UNK N   1      34.952  19.148   8.397  0.00  0.00    -0.268 OA
HETATM    3  N   UNK N   1      34.996  17.098   9.243  0.00  0.00    -0.357 N 
HETATM    4  H   UNK N   1      35.792  17.356   9.763  0.00  0.00     0.162 HD
ENDROOT
BRANCH   1   5
HETATM    5  C   UNK N   1      33.399  17.712   7.400  0.00  0.00     0.032 A 
HETATM    6  C   UNK N   1      32.065  17.687   7.841  0.00  0.00     0.018 A 
HETATM    7  C   UNK N   1      31.027  17.399   6.949  0.00  0.00     0.026 A 
HETATM    8  C   UNK N   1      31.311  17.155   5.602  0.00  0.00     0.079 A 
HETATM    9  C   UNK N   1      32.630  17.200   5.150  0.00  0.00     0.026 A 
HETATM   10  C   UNK N   1      33.665  17.474   6.043  0.00  0.00     0.018 A 
BRANCH   8  11
HETATM   11  S   UNK N   1      30.000  16.753   4.459  0.00  0.00     0.256 S 
HETATM   12  O   UNK N   1      28.784  17.678   4.614  0.00  0.00    -0.201 OA
HETATM   13  O   UNK N   1      29.393  15.362   4.701  0.00  0.00    -0.201 OA
BRANCH  11  14
HETATM   14  N   UNK N   1      30.381  16.793   2.737  0.00  0.00    -0.324 N 
HETATM   15  H   UNK N   1      30.667  16.010   2.148  0.00  0.00     0.169 HD
HETATM   16  H   UNK N   1      30.307  17.701   2.278  0.00  0.00     0.169 HD
ENDBRANCH  11  14
ENDBRANCH   8  11
ENDBRANCH   1   5
BRANCH   3  17
HETATM   17  C   UNK N   1      34.453  15.775   9.464  0.00  0.00     0.123 C 
BRANCH  17  18
HETATM   18  C   UNK N   1      35.249  14.708   8.726  0.00  0.00     0.021 C 
BRANCH  18  19
HETATM   19  C   UNK N   1      34.337  13.722   8.029  0.00  0.00     0.021 C 
BRANCH  19  20
HETATM   20  C   UNK N   1      32.901  14.157   8.253  0.00  0.00     0.114 C 
BRANCH  20  21
HETATM   21  N   UNK N   1      32.115  13.939   7.049  0.00  0.00    -0.413 N 
HETATM   22  H   UNK N   1      31.191  14.324   6.855  0.00  0.00     0.153 HD
BRANCH  21  23
HETATM   23  C   UNK N   1      32.885  13.074   6.172  0.00  0.00     0.185 C 
BRANCH  23  24
HETATM   24  S   UNK N   1      32.471  13.448   4.446  0.00  0.00    -0.163 SA
HETATM   25  H   UNK N   1      31.603  14.274   3.802  0.00  0.00     0.103 HD
ENDBRANCH  23  24
ENDBRANCH  21  23
ENDBRANCH  20  21
ENDBRANCH  19  20
ENDBRANCH  18  19
ENDBRANCH  17  18
ENDBRANCH   3  17
TORSDOF 10
ENDMDL
MODEL 8
REMARK VINA RESULT:      -5.3      4.118      8.118
REMARK  10 active torsions:
REMARK  status: ('A' for Active; 'I' for Inactive)
REMARK    1  A    between atoms: C_1  and  C_7 
REMARK    2  A    between atoms: C_4  and  S_17 
REMARK       I    between atoms: C_7  and  N_9 
REMARK    3  A    between atoms: N_9  and  C_10 
REMARK    4  A    between atoms: C_10  and  C_11 
REMARK    5  A    between atoms: C_11  and  C_12 
REMARK    6  A    between atoms: C_12  and  C_13 
REMARK    7  A    between atoms: C_13  and  N_14 
REMARK    8  A    between atoms: N_14  and  C_15 
REMARK    9  A    between atoms: C_15  and  S_16 
REMARK   10  A    between atoms: S_17  and  N_20 
ROOT
HETATM    1  C   UNK N   1      34.511  18.122   8.449  0.00  0.00     0.251 C 
HETATM    2  O   UNK N   1      35.025  19.230   8.373  0.00  0.00    -0.268 OA
HETATM    3  N   UNK N   1      34.940  17.281   9.430  0.00  0.00    -0.357 N 
HETATM    4  H   UNK N   1      35.728  17.556   9.952  0.00  0.00     0.162 HD
ENDROOT
BRANCH   1   5
HETATM    5  C   UNK N   1      33.441  17.766   7.469  0.00  0.00     0.032 A 
HETATM    6  C   UNK N   1      33.783  17.522   6.128  0.00  0.00     0.018 A 
HETATM    7  C   UNK N   1      32.797  17.193   5.192  0.00  0.00     0.026 A 
HETATM    8  C   UNK N   1      31.462  17.082   5.594  0.00  0.00     0.079 A 
HETATM    9  C   UNK N   1      31.116  17.300   6.927  0.00  0.00     0.026 A 
HETATM   10  C   UNK N   1      32.098  17.641   7.856  0.00  0.00     0.018 A 
BRANCH   8  11
HETATM   11  S   UNK N   1      30.189  16.697   4.403  0.00  0.00     0.256 S 
HETATM   12  O   UNK N   1      29.360  15.469   4.809  0.00  0.00    -0.201 OA
HETATM   13  O   UNK N   1      30.748  16.281   3.034  0.00  0.00    -0.201 OA
BRANCH  11  14
HETATM   14  N   UNK N   1      28.998  17.949   4.051  0.00  0.00    -0.324 N 
HETATM   15  H   UNK N   1      28.048  17.819   3.701  0.00  0.00     0.169 HD
HETATM   16  H   UNK N   1      29.292  18.912   4.215  0.00  0.00     0.169 HD
ENDBRANCH  11  14
ENDBRANCH   8  11
ENDBRANCH   1   5
BRANCH   3  17
HETATM   17  C   UNK N   1      34.325  16.014   9.765  0.00  0.00     0.123 C 
BRANCH  17  18
HETATM   18  C   UNK N   1      35.101  14.840   9.184  0.00  0.00     0.021 C 
BRANCH  18  19
HETATM   19  C   UNK N   1      35.909  14.131  10.249  0.00  0.00     0.021 C 
BRANCH  19  20
HETATM   20  C   UNK N   1      35.099  12.955  10.761  0.00  0.00     0.114 C 
BRANCH  20  21
HETATM   21  N   UNK N   1      34.679  13.191  12.132  0.00  0.00    -0.413 N 
HETATM   22  H   UNK N   1      33.874  12.770  12.596  0.00  0.00     0.153 HD
BRANCH  21  23
HETATM   23  C   UNK N   1      35.613  14.133  12.723  0.00  0.00     0.185 C 
BRANCH  23  24
HETATM   24  S   UNK N   1      36.210  13.475  14.304  0.00  0.00    -0.163 SA
HETATM   25  H   UNK N   1      35.684  13.261  15.540  0.00  0.00     0.103 HD
ENDBRANCH  23  24
ENDBRANCH  21  23
ENDBRANCH  20  21
ENDBRANCH  19  20
ENDBRANCH  18  19
ENDBRANCH  17  18
ENDBRANCH   3  17
TORSDOF 10
ENDMDL
MODEL 9
REMARK VINA RESULT:      -5.3      4.071      5.557
REMARK  10 active torsions:
REMARK  status: ('A' for Active; 'I' for Inactive)
REMARK    1  A    between atoms: C_1  and  C_7 
REMARK    2  A    between atoms: C_4  and  S_17 
REMARK       I    between atoms: C_7  and  N_9 
REMARK    3  A    between atoms: N_9  and  C_10 
REMARK    4  A    between atoms: C_10  and  C_11 
REMARK    5  A    between atoms: C_11  and  C_12 
REMARK    6  A    between atoms: C_12  and  C_13 
REMARK    7  A    between atoms: C_13  and  N_14 
REMARK    8  A    between atoms: N_14  and  C_15 
REMARK    9  A    between atoms: C_15  and  S_16 
REMARK   10  A    between atoms: S_17  and  N_20 
ROOT
HETATM    1  C   UNK N   1      33.741  17.576   7.999  0.00  0.00     0.251 C 
HETATM    2  O   UNK N   1      34.551  17.932   7.155  0.00  0.00    -0.268 OA
HETATM    3  N   UNK N   1      32.455  18.004   7.875  0.00  0.00    -0.357 N 
HETATM    4  H   UNK N   1      32.265  18.678   7.184  0.00  0.00     0.162 HD
ENDROOT
BRANCH   1   5
HETATM    5  C   UNK N   1      34.210  16.690   9.106  0.00  0.00     0.032 A 
HETATM    6  C   UNK N   1      35.083  17.201  10.082  0.00  0.00     0.018 A 
HETATM    7  C   UNK N   1      35.539  16.388  11.124  0.00  0.00     0.026 A 
HETATM    8  C   UNK N   1      35.110  15.060  11.213  0.00  0.00     0.079 A 
HETATM    9  C   UNK N   1      34.227  14.549  10.262  0.00  0.00     0.026 A 
HETATM   10  C   UNK N   1      33.783  15.358   9.217  0.00  0.00     0.018 A 
BRANCH   8  11
HETATM   11  S   UNK N   1      35.711  14.001  12.517  0.00  0.00     0.256 S 
HETATM   12  O   UNK N   1      36.572  12.846  11.984  0.00  0.00    -0.201 OA
HETATM   13  O   UNK N   1      34.588  13.261  13.261  0.00  0.00    -0.201 OA
BRANCH  11  14
HETATM   14  N   UNK N   1      36.688  14.744  13.784  0.00  0.00    -0.324 N 
HETATM   15  H   UNK N   1      37.280  14.270  14.467  0.00  0.00     0.169 HD
HETATM   16  H   UNK N   1      36.658  15.762  13.840  0.00  0.00     0.169 HD
ENDBRANCH  11  14
ENDBRANCH   8  11
ENDBRANCH   1   5
BRANCH   3  17
HETATM   17  C   UNK N   1      31.345  17.542   8.681  0.00  0.00     0.123 C 
BRANCH  17  18
HETATM   18  C   UNK N   1      30.430  18.688   9.091  0.00  0.00     0.021 C 
BRANCH  18  19
HETATM   19  C   UNK N   1      28.981  18.253   9.123  0.00  0.00     0.021 C 
BRANCH  19  20
HETATM   20  C   UNK N   1      28.281  18.830   7.907  0.00  0.00     0.114 C 
BRANCH  20  21
HETATM   21  N   UNK N   1      27.422  17.828   7.298  0.00  0.00    -0.413 N 
HETATM   22  H   UNK N   1      26.402  17.815   7.320  0.00  0.00     0.153 HD
BRANCH  21  23
HETATM   23  C   UNK N   1      28.277  16.848   6.651  0.00  0.00     0.185 C 
BRANCH  23  24
HETATM   24  S   UNK N   1      29.222  17.655   5.329  0.00  0.00    -0.163 SA
HETATM   25  H   UNK N   1      30.293  17.338   4.554  0.00  0.00     0.103 HD
ENDBRANCH  23  24
ENDBRANCH  21  23
ENDBRANCH  20  21
ENDBRANCH  19  20
ENDBRANCH  18  19
ENDBRANCH  17  18
ENDBRANCH   3  17
TORSDOF 10
ENDMDL
