MODEL 1
REMARK VINA RESULT:      -4.9      0.000      0.000
REMARK  8 active torsions:
REMARK  status: ('A' for Active; 'I' for Inactive)
REMARK    1  A    between atoms: C_2  and  C_5 
REMARK    2  A    between atoms: C_3  and  C_4 
REMARK    3  A    between atoms: C_3  and  N_10 
REMARK    4  A    between atoms: C_4  and  C_5 
REMARK    5  A    between atoms: C_4  and  C_7 
REMARK    6  A    between atoms: C_7  and  O_13 
REMARK    7  A    between atoms: C_8  and  N_10 
REMARK    8  A    between atoms: O_9  and  N_10 
ROOT
HETATM    1  C   UNK N   1      22.209  13.136  10.194  0.00  0.00     0.104 C 
ENDROOT
BRANCH   1   2
HETATM    2  C   UNK N   1      22.786  11.811  10.717  0.00  0.00     0.173 C 
BRANCH   2   3
HETATM    3  N   UNK N   1      23.663  11.994  11.856  0.00  0.00    -0.235 N 
BRANCH   3   4
HETATM    4  C   UNK N   1      23.156  11.887  13.105  0.00  0.00     0.376 C 
HETATM    5  O   UNK N   1      23.789  12.294  14.070  0.00  0.00    -0.281 OA
ENDBRANCH   3   4
BRANCH   3   6
HETATM    6  O   UNK N   1      24.948  12.325  11.680  0.00  0.00    -0.285 OA
HETATM    7  H   UNK N   1      25.451  12.783  12.371  0.00  0.00     0.245 HD
ENDBRANCH   3   6
ENDBRANCH   2   3
ENDBRANCH   1   2
BRANCH   1   8
HETATM    8  C   UNK N   1      22.843  13.473   8.827  0.00  0.00     0.020 C 
BRANCH   8   9
HETATM    9  C   UNK N   1      23.554  12.342   8.092  0.00  0.00    -0.022 C 
HETATM   10  C   UNK N   1      24.812  12.882   7.444  0.00  0.00     0.009 C 
HETATM   11  C   UNK N   1      22.650  11.843   6.979  0.00  0.00     0.009 C 
ENDBRANCH   8   9
ENDBRANCH   1   8
BRANCH   1  12
HETATM   12  C   UNK N   1      20.689  13.157  10.211  0.00  0.00     0.145 C 
HETATM   13  O   UNK N   1      20.058  12.516  11.033  0.00  0.00    -0.650 OA
BRANCH  12  14
HETATM   14  O   UNK N   1      20.014  13.860   9.283  0.00  0.00    -0.776 OA
HETATM   15  H   UNK N   1      20.063  14.795   9.276  0.00  0.00     0.167 HD
ENDBRANCH  12  14
ENDBRANCH   1  12
TORSDOF 8
ENDMDL
MODEL 2
REMARK VINA RESULT:      -4.7     10.491     11.853
REMARK  8 active torsions:
REMARK  status: ('A' for Active; 'I' for Inactive)
REMARK    1  A    between atoms: C_2  and  C_5 
REMARK    2  A    between atoms: C_3  and  C_4 
REMARK    3  A    between atoms: C_3  and  N_10 
REMARK    4  A    between atoms: C_4  and  C_5 
REMARK    5  A    between atoms: C_4  and  C_7 
REMARK    6  A    between atoms: C_7  and  O_13 
REMARK    7  A    between atoms: C_8  and  N_10 
REMARK    8  A    between atoms: O_9  and  N_10 
ROOT
HETATM    1  C   UNK N   1      33.598  15.372   8.238  0.00  0.00     0.104 C 
ENDROOT
BRANCH   1   2
HETATM    2  C   UNK N   1      34.729  14.962   9.195  0.00  0.00     0.173 C 
BRANCH   2   3
HETATM    3  N   UNK N   1      34.532  15.463  10.541  0.00  0.00    -0.235 N 
BRANCH   3   4
HETATM    4  C   UNK N   1      35.354  16.427  11.015  0.00  0.00     0.376 C 
HETATM    5  O   UNK N   1      35.611  17.412  10.337  0.00  0.00    -0.281 OA
ENDBRANCH   3   4
BRANCH   3   6
HETATM    6  O   UNK N   1      33.587  14.939  11.331  0.00  0.00    -0.285 OA
HETATM    7  H   UNK N   1      33.800  14.592  12.211  0.00  0.00     0.245 HD
ENDBRANCH   3   6
ENDBRANCH   2   3
ENDBRANCH   1   2
BRANCH   1   8
HETATM    8  C   UNK N   1      34.202  15.921   6.928  0.00  0.00     0.020 C 
BRANCH   8   9
HETATM    9  C   UNK N   1      33.878  17.367   6.564  0.00  0.00    -0.022 C 
HETATM   10  C   UNK N   1      33.278  18.060   7.770  0.00  0.00     0.009 C 
HETATM   11  C   UNK N   1      32.825  17.368   5.470  0.00  0.00     0.009 C 
ENDBRANCH   8   9
ENDBRANCH   1   8
BRANCH   1  12
HETATM   12  C   UNK N   1      32.566  14.271   8.050  0.00  0.00     0.145 C 
HETATM   13  O   UNK N   1      31.978  14.133   6.992  0.00  0.00    -0.650 OA
BRANCH  12  14
HETATM   14  O   UNK N   1      32.258  13.455   9.074  0.00  0.00    -0.776 OA
HETATM   15  H   UNK N   1      31.630  13.724   9.714  0.00  0.00     0.167 HD
ENDBRANCH  12  14
ENDBRANCH   1  12
TORSDOF 8
ENDMDL
MODEL 3
REMARK VINA RESULT:      -4.7     10.034     11.699
REMARK  8 active torsions:
REMARK  status: ('A' for Active; 'I' for Inactive)
REMARK    1  A    between atoms: C_2  and  C_5 
REMARK    2  A    between atoms: C_3  and  C_4 
REMARK    3  A    between atoms: C_3  and  N_10 
REMARK    4  A    between atoms: C_4  and  C_5 
REMARK    5  A    between atoms: C_4  and  C_7 
REMARK    6  A    between atoms: C_7  and  O_13 
REMARK    7  A    between atoms: C_8  and  N_10 
REMARK    8  A    between atoms: O_9  and  N_10 
ROOT
HETATM    1  C   UNK N   1      32.074  17.370   7.552  0.00  0.00     0.104 C 
ENDROOT
BRANCH   1   2
HETATM    2  C   UNK N   1      33.077  16.616   8.440  0.00  0.00     0.173 C 
BRANCH   2   3
HETATM    3  N   UNK N   1      34.121  17.477   8.960  0.00  0.00    -0.235 N 
BRANCH   3   4
HETATM    4  C   UNK N   1      34.608  18.469   8.180  0.00  0.00     0.376 C 
HETATM    5  O   UNK N   1      35.407  19.278   8.631  0.00  0.00    -0.281 OA
ENDBRANCH   3   4
BRANCH   3   6
HETATM    6  O   UNK N   1      34.642  17.260  10.173  0.00  0.00    -0.285 OA
HETATM    7  H   UNK N   1      35.430  16.708  10.293  0.00  0.00     0.245 HD
ENDBRANCH   3   6
ENDBRANCH   2   3
ENDBRANCH   1   2
BRANCH   1   8
HETATM    8  C   UNK N   1      31.982  16.679   6.174  0.00  0.00     0.020 C 
BRANCH   8   9
HETATM    9  C   UNK N   1      33.005  17.091   5.120  0.00  0.00    -0.022 C 
HETATM   10  C   UNK N   1      32.277  17.596   3.891  0.00  0.00     0.009 C 
HETATM   11  C   UNK N   1      33.795  15.863   4.704  0.00  0.00     0.009 C 
ENDBRANCH   8   9
ENDBRANCH   1   8
BRANCH   1  12
HETATM   12  C   UNK N   1      30.737  17.592   8.241  0.00  0.00     0.145 C 
HETATM   13  O   UNK N   1      29.696  17.612   7.607  0.00  0.00    -0.650 OA
BRANCH  12  14
HETATM   14  O   UNK N   1      30.692  17.814   9.567  0.00  0.00    -0.776 OA
HETATM   15  H   UNK N   1      30.083  17.343  10.100  0.00  0.00     0.167 HD
ENDBRANCH  12  14
ENDBRANCH   1  12
TORSDOF 8
ENDMDL
MODEL 4
REMARK VINA RESULT:      -4.7     10.762     12.148
REMARK  8 active torsions:
REMARK  status: ('A' for Active; 'I' for Inactive)
REMARK    1  A    between atoms: C_2  and  C_5 
REMARK    2  A    between atoms: C_3  and  C_4 
REMARK    3  A    between atoms: C_3  and  N_10 
REMARK    4  A    between atoms: C_4  and  C_5 
REMARK    5  A    between atoms: C_4  and  C_7 
REMARK    6  A    between atoms: C_7  and  O_13 
REMARK    7  A    between atoms: C_8  and  N_10 
REMARK    8  A    between atoms: O_9  and  N_10 
ROOT
HETATM    1  C   UNK N   1      33.745  16.958   8.024  0.00  0.00     0.104 C 
ENDROOT
BRANCH   1   2
HETATM    2  C   UNK N   1      32.644  16.367   8.919  0.00  0.00     0.173 C 
BRANCH   2   3
HETATM    3  N   UNK N   1      33.057  15.146   9.582  0.00  0.00    -0.235 N 
BRANCH   3   4
HETATM    4  C   UNK N   1      33.232  14.023   8.849  0.00  0.00     0.376 C 
HETATM    5  O   UNK N   1      32.333  13.603   8.132  0.00  0.00    -0.281 OA
ENDBRANCH   3   4
BRANCH   3   6
HETATM    6  O   UNK N   1      33.208  15.110  10.911  0.00  0.00    -0.285 OA
HETATM    7  H   UNK N   1      32.834  14.390  11.442  0.00  0.00     0.245 HD
ENDBRANCH   3   6
ENDBRANCH   2   3
ENDBRANCH   1   2
BRANCH   1   8
HETATM    8  C   UNK N   1      33.105  17.637   6.794  0.00  0.00     0.020 C 
BRANCH   8   9
HETATM    9  C   UNK N   1      33.692  17.298   5.428  0.00  0.00    -0.022 C 
HETATM   10  C   UNK N   1      32.639  17.525   4.363  0.00  0.00     0.009 C 
HETATM   11  C   UNK N   1      34.049  15.823   5.405  0.00  0.00     0.009 C 
ENDBRANCH   8   9
ENDBRANCH   1   8
BRANCH   1  12
HETATM   12  C   UNK N   1      34.718  17.834   8.798  0.00  0.00     0.145 C 
HETATM   13  O   UNK N   1      35.219  17.452   9.841  0.00  0.00    -0.650 OA
BRANCH  12  14
HETATM   14  O   UNK N   1      35.006  19.072   8.357  0.00  0.00    -0.776 OA
HETATM   15  H   UNK N   1      34.344  19.735   8.356  0.00  0.00     0.167 HD
ENDBRANCH  12  14
ENDBRANCH   1  12
TORSDOF 8
ENDMDL
MODEL 5
REMARK VINA RESULT:      -4.7      9.722     11.543
REMARK  8 active torsions:
REMARK  status: ('A' for Active; 'I' for Inactive)
REMARK    1  A    between atoms: C_2  and  C_5 
REMARK    2  A    between atoms: C_3  and  C_4 
REMARK    3  A    between atoms: C_3  and  N_10 
REMARK    4  A    between atoms: C_4  and  C_5 
REMARK    5  A    between atoms: C_4  and  C_7 
REMARK    6  A    between atoms: C_7  and  O_13 
REMARK    7  A    between atoms: C_8  and  N_10 
REMARK    8  A    between atoms: O_9  and  N_10 
ROOT
HETATM    1  C   UNK N   1      33.288  17.118   8.201  0.00  0.00     0.104 C 
ENDROOT
BRANCH   1   2
HETATM    2  C   UNK N   1      33.970  16.556   9.459  0.00  0.00     0.173 C 
BRANCH   2   3
HETATM    3  N   UNK N   1      33.485  15.238   9.816  0.00  0.00    -0.235 N 
BRANCH   3   4
HETATM    4  C   UNK N   1      33.364  14.295   8.853  0.00  0.00     0.376 C 
HETATM    5  O   UNK N   1      32.310  13.694   8.702  0.00  0.00    -0.281 OA
ENDBRANCH   3   4
BRANCH   3   6
HETATM    6  O   UNK N   1      33.103  14.968  11.070  0.00  0.00    -0.285 OA
HETATM    7  H   UNK N   1      33.753  14.813  11.774  0.00  0.00     0.245 HD
ENDBRANCH   3   6
ENDBRANCH   2   3
ENDBRANCH   1   2
BRANCH   1   8
HETATM    8  C   UNK N   1      31.955  17.792   8.593  0.00  0.00     0.020 C 
BRANCH   8   9
HETATM    9  C   UNK N   1      30.672  17.029   8.279  0.00  0.00    -0.022 C 
HETATM   10  C   UNK N   1      30.735  16.511   6.857  0.00  0.00     0.009 C 
HETATM   11  C   UNK N   1      29.502  17.993   8.359  0.00  0.00     0.009 C 
ENDBRANCH   8   9
ENDBRANCH   1   8
BRANCH   1  12
HETATM   12  C   UNK N   1      34.220  17.988   7.372  0.00  0.00     0.145 C 
HETATM   13  O   UNK N   1      34.972  18.788   7.900  0.00  0.00    -0.650 OA
BRANCH  12  14
HETATM   14  O   UNK N   1      34.193  17.913   6.030  0.00  0.00    -0.776 OA
HETATM   15  H   UNK N   1      33.708  17.232   5.607  0.00  0.00     0.167 HD
ENDBRANCH  12  14
ENDBRANCH   1  12
TORSDOF 8
ENDMDL
MODEL 6
REMARK VINA RESULT:      -4.6     13.244     14.637
REMARK  8 active torsions:
REMARK  status: ('A' for Active; 'I' for Inactive)
REMARK    1  A    between atoms: C_2  and  C_5 
REMARK    2  A    between atoms: C_3  and  C_4 
REMARK    3  A    between atoms: C_3  and  N_10 
REMARK    4  A    between atoms: C_4  and  C_5 
REMARK    5  A    between atoms: C_4  and  C_7 
REMARK    6  A    between atoms: C_7  and  O_13 
REMARK    7  A    between atoms: C_8  and  N_10 
REMARK    8  A    between atoms: O_9  and  N_10 
ROOT
HETATM    1  C   UNK N   1      36.189  12.919  15.848  0.00  0.00     0.104 C 
ENDROOT
BRANCH   1   2
HETATM    2  C   UNK N   1      34.962  13.375  16.654  0.00  0.00     0.173 C 
BRANCH   2   3
HETATM    3  N   UNK N   1      35.287  13.699  18.029  0.00  0.00    -0.235 N 
BRANCH   3   4
HETATM    4  C   UNK N   1      35.178  12.740  18.978  0.00  0.00     0.376 C 
HETATM    5  O   UNK N   1      35.656  12.911  20.091  0.00  0.00    -0.281 OA
ENDBRANCH   3   4
BRANCH   3   6
HETATM    6  O   UNK N   1      35.633  14.945  18.373  0.00  0.00    -0.285 OA
HETATM    7  H   UNK N   1      35.089  15.708  18.122  0.00  0.00     0.245 HD
ENDBRANCH   3   6
ENDBRANCH   2   3
ENDBRANCH   1   2
BRANCH   1   8
HETATM    8  C   UNK N   1      35.787  11.766  14.903  0.00  0.00     0.020 C 
BRANCH   8   9
HETATM    9  C   UNK N   1      34.635  10.870  15.348  0.00  0.00    -0.022 C 
HETATM   10  C   UNK N   1      35.179   9.502  15.704  0.00  0.00     0.009 C 
HETATM   11  C   UNK N   1      33.681  10.689  14.181  0.00  0.00     0.009 C 
ENDBRANCH   8   9
ENDBRANCH   1   8
BRANCH   1  12
HETATM   12  C   UNK N   1      36.904  14.076  15.169  0.00  0.00     0.145 C 
HETATM   13  O   UNK N   1      37.481  14.930  15.820  0.00  0.00    -0.650 OA
BRANCH  12  14
HETATM   14  O   UNK N   1      36.873  14.194  13.829  0.00  0.00    -0.776 OA
HETATM   15  H   UNK N   1      36.406  13.566  13.314  0.00  0.00     0.167 HD
ENDBRANCH  12  14
ENDBRANCH   1  12
TORSDOF 8
ENDMDL
MODEL 7
REMARK VINA RESULT:      -4.6     10.246     12.038
REMARK  8 active torsions:
REMARK  status: ('A' for Active; 'I' for Inactive)
REMARK    1  A    between atoms: C_2  and  C_5 
REMARK    2  A    between atoms: C_3  and  C_4 
REMARK    3  A    between atoms: C_3  and  N_10 
REMARK    4  A    between atoms: C_4  and  C_5 
REMARK    5  A    between atoms: C_4  and  C_7 
REMARK    6  A    between atoms: C_7  and  O_13 
REMARK    7  A    between atoms: C_8  and  N_10 
REMARK    8  A    between atoms: O_9  and  N_10 
ROOT
HETATM    1  C   UNK N   1      33.432  16.807   8.174  0.00  0.00     0.104 C 
ENDROOT
BRANCH   1   2
HETATM    2  C   UNK N   1      34.277  16.621   9.444  0.00  0.00     0.173 C 
BRANCH   2   3
HETATM    3  N   UNK N   1      34.096  15.316  10.050  0.00  0.00    -0.235 N 
BRANCH   3   4
HETATM    4  C   UNK N   1      34.832  14.273   9.605  0.00  0.00     0.376 C 
HETATM    5  O   UNK N   1      35.892  14.464   9.024  0.00  0.00    -0.281 OA
ENDBRANCH   3   4
BRANCH   3   6
HETATM    6  O   UNK N   1      33.169  15.127  10.996  0.00  0.00    -0.285 OA
HETATM    7  H   UNK N   1      33.005  14.249  11.375  0.00  0.00     0.245 HD
ENDBRANCH   3   6
ENDBRANCH   2   3
ENDBRANCH   1   2
BRANCH   1   8
HETATM    8  C   UNK N   1      32.396  17.929   8.401  0.00  0.00     0.020 C 
BRANCH   8   9
HETATM    9  C   UNK N   1      30.938  17.508   8.560  0.00  0.00    -0.022 C 
HETATM   10  C   UNK N   1      30.335  17.277   7.189  0.00  0.00     0.009 C 
HETATM   11  C   UNK N   1      30.171  18.648   9.206  0.00  0.00     0.009 C 
ENDBRANCH   8   9
ENDBRANCH   1   8
BRANCH   1  12
HETATM   12  C   UNK N   1      34.285  16.974   6.926  0.00  0.00     0.145 C 
HETATM   13  O   UNK N   1      34.211  17.979   6.241  0.00  0.00    -0.650 OA
BRANCH  12  14
HETATM   14  O   UNK N   1      35.108  15.984   6.536  0.00  0.00    -0.776 OA
HETATM   15  H   UNK N   1      35.326  15.294   7.131  0.00  0.00     0.167 HD
ENDBRANCH  12  14
ENDBRANCH   1  12
TORSDOF 8
ENDMDL
MODEL 8
REMARK VINA RESULT:      -4.5      8.534      9.755
REMARK  8 active torsions:
REMARK  status: ('A' for Active; 'I' for Inactive)
REMARK    1  A    between atoms: C_2  and  C_5 
REMARK    2  A    between atoms: C_3  and  C_4 
REMARK    3  A    between atoms: C_3  and  N_10 
REMARK    4  A    between atoms: C_4  and  C_5 
REMARK    5  A    between atoms: C_4  and  C_7 
REMARK    6  A    between atoms: C_7  and  O_13 
REMARK    7  A    between atoms: C_8  and  N_10 
REMARK    8  A    between atoms: O_9  and  N_10 
ROOT
HETATM    1  C   UNK N   1      29.205  18.380   7.757  0.00  0.00     0.104 C 
ENDROOT
BRANCH   1   2
HETATM    2  C   UNK N   1      29.966  17.080   7.453  0.00  0.00     0.173 C 
BRANCH   2   3
HETATM    3  N   UNK N   1      31.255  17.020   8.114  0.00  0.00    -0.235 N 
BRANCH   3   4
HETATM    4  C   UNK N   1      32.340  17.542   7.497  0.00  0.00     0.376 C 
HETATM    5  O   UNK N   1      33.074  18.322   8.087  0.00  0.00    -0.281 OA
ENDBRANCH   3   4
BRANCH   3   6
HETATM    6  O   UNK N   1      31.387  16.403   9.294  0.00  0.00    -0.285 OA
HETATM    7  H   UNK N   1      32.154  15.842   9.488  0.00  0.00     0.245 HD
ENDBRANCH   3   6
ENDBRANCH   2   3
ENDBRANCH   1   2
BRANCH   1   8
HETATM    8  C   UNK N   1      28.123  18.610   6.680  0.00  0.00     0.020 C 
BRANCH   8   9
HETATM    9  C   UNK N   1      28.015  20.012   6.090  0.00  0.00    -0.022 C 
HETATM   10  C   UNK N   1      26.786  20.696   6.654  0.00  0.00     0.009 C 
HETATM   11  C   UNK N   1      27.818  19.895   4.589  0.00  0.00     0.009 C 
ENDBRANCH   8   9
ENDBRANCH   1   8
BRANCH   1  12
HETATM   12  C   UNK N   1      28.697  18.437   9.189  0.00  0.00     0.145 C 
HETATM   13  O   UNK N   1      29.441  18.720  10.111  0.00  0.00    -0.650 OA
BRANCH  12  14
HETATM   14  O   UNK N   1      27.416  18.131   9.462  0.00  0.00    -0.776 OA
HETATM   15  H   UNK N   1      26.972  17.478   8.958  0.00  0.00     0.167 HD
ENDBRANCH  12  14
ENDBRANCH   1  12
TORSDOF 8
ENDMDL
MODEL 9
REMARK VINA RESULT:      -4.4     17.994     19.170
REMARK  8 active torsions:
REMARK  status: ('A' for Active; 'I' for Inactive)
REMARK    1  A    between atoms: C_2  and  C_5 
REMARK    2  A    between atoms: C_3  and  C_4 
REMARK    3  A    between atoms: C_3  and  N_10 
REMARK    4  A    between atoms: C_4  and  C_5 
REMARK    5  A    between atoms: C_4  and  C_7 
REMARK    6  A    between atoms: C_7  and  O_13 
REMARK    7  A    between atoms: C_8  and  N_10 
REMARK    8  A    between atoms: O_9  and  N_10 
ROOT
HETATM    1  C   UNK N   1      29.723  22.750  -3.585  0.00  0.00     0.104 C 
ENDROOT
BRANCH   1   2
HETATM    2  C   UNK N   1      29.067  24.132  -3.732  0.00  0.00     0.173 C 
BRANCH   2   3
HETATM    3  N   UNK N   1      27.619  24.072  -3.675  0.00  0.00    -0.235 N 
BRANCH   3   4
HETATM    4  C   UNK N   1      26.906  24.238  -4.812  0.00  0.00     0.376 C 
HETATM    5  O   UNK N   1      27.089  23.503  -5.773  0.00  0.00    -0.281 OA
ENDBRANCH   3   4
BRANCH   3   6
HETATM    6  O   UNK N   1      26.989  23.914  -2.505  0.00  0.00    -0.285 OA
HETATM    7  H   UNK N   1      26.095  24.262  -2.362  0.00  0.00     0.245 HD
ENDBRANCH   3   6
ENDBRANCH   2   3
ENDBRANCH   1   2
BRANCH   1   8
HETATM    8  C   UNK N   1      30.428  22.369  -4.905  0.00  0.00     0.020 C 
BRANCH   8   9
HETATM    9  C   UNK N   1      30.143  20.981  -5.470  0.00  0.00    -0.022 C 
HETATM   10  C   UNK N   1      31.447  20.224  -5.613  0.00  0.00     0.009 C 
HETATM   11  C   UNK N   1      29.553  21.135  -6.860  0.00  0.00     0.009 C 
ENDBRANCH   8   9
ENDBRANCH   1   8
BRANCH   1  12
HETATM   12  C   UNK N   1      30.598  22.649  -2.346  0.00  0.00     0.145 C 
HETATM   13  O   UNK N   1      30.245  23.129  -1.283  0.00  0.00    -0.650 OA
BRANCH  12  14
HETATM   14  O   UNK N   1      31.804  22.057  -2.420  0.00  0.00    -0.776 OA
HETATM   15  H   UNK N   1      31.875  21.126  -2.351  0.00  0.00     0.167 HD
ENDBRANCH  12  14
ENDBRANCH   1  12
TORSDOF 8
ENDMDL
