MODEL 1
REMARK VINA RESULT:      -6.0      0.000      0.000
REMARK  2 active torsions:
REMARK  status: ('A' for Active; 'I' for Inactive)
REMARK    1  A    between atoms: C_6  and  C_7 
REMARK    2  A    between atoms: C_15  and  O_16 
ROOT
HETATM    1  C   UNK N   1      21.362  16.981   6.254  0.00  0.00     0.049 C 
HETATM    2  C   UNK N   1      20.698  17.146   5.096  0.00  0.00     0.047 A 
HETATM    3  C   UNK N   1      19.497  16.483   4.538  0.00  0.00     0.257 A 
HETATM    4  O   UNK N   1      18.858  15.582   5.048  0.00  0.00    -0.267 OA
HETATM    5  N   UNK N   1      19.151  17.050   3.359  0.00  0.00    -0.322 N 
HETATM    6  C   UNK N   1      20.083  18.076   3.104  0.00  0.00     0.046 A 
HETATM    7  C   UNK N   1      20.102  18.939   2.013  0.00  0.00     0.033 A 
HETATM    8  C   UNK N   1      21.119  19.909   1.960  0.00  0.00     0.039 A 
HETATM    9  C   UNK N   1      22.092  20.000   2.993  0.00  0.00     0.069 A 
HETATM   10  C   UNK N   1      22.037  19.111   4.081  0.00  0.00     0.051 A 
HETATM   11  C   UNK N   1      21.020  18.163   4.108  0.00  0.00     0.009 A 
HETATM   12  H   UNK N   1      18.391  16.793   2.788  0.00  0.00     0.169 HD
ENDROOT
BRANCH   1  13
HETATM   13  C   UNK N   1      21.097  15.983   7.304  0.00  0.00     0.049 A 
HETATM   14  N   UNK N   1      21.237  14.665   7.096  0.00  0.00    -0.351 N 
HETATM   15  C   UNK N   1      20.911  14.087   8.268  0.00  0.00     0.180 A 
HETATM   16  H   UNK N   1      21.519  14.217   6.267  0.00  0.00     0.166 HD
HETATM   17  N   UNK N   1      20.560  15.002   9.196  0.00  0.00    -0.360 N 
HETATM   18  C   UNK N   1      20.674  16.200   8.594  0.00  0.00     0.118 A 
ATOM     19  HN  UNK N   1      20.269  14.822  10.157  1.00  0.00     0.166 HD
ENDBRANCH   1  13
BRANCH   9  20
HETATM   20  O   UNK N   1      23.077  20.928   2.961  0.00  0.00    -0.356 OA
HETATM   21  C   UNK N   1      24.412  20.608   2.885  0.00  0.00     0.210 C 
ENDBRANCH   9  20
TORSDOF 2
ENDMDL
MODEL 2
REMARK VINA RESULT:      -6.0     13.484     14.897
REMARK  2 active torsions:
REMARK  status: ('A' for Active; 'I' for Inactive)
REMARK    1  A    between atoms: C_6  and  C_7 
REMARK    2  A    between atoms: C_15  and  O_16 
ROOT
HETATM    1  C   UNK N   1      35.511  14.372   9.488  0.00  0.00     0.049 C 
HETATM    2  C   UNK N   1      35.038  15.562   9.076  0.00  0.00     0.047 A 
HETATM    3  C   UNK N   1      34.940  16.878   9.748  0.00  0.00     0.257 A 
HETATM    4  O   UNK N   1      35.268  17.139  10.891  0.00  0.00    -0.267 OA
HETATM    5  N   UNK N   1      34.460  17.809   8.893  0.00  0.00    -0.322 N 
HETATM    6  C   UNK N   1      34.230  17.162   7.662  0.00  0.00     0.046 A 
HETATM    7  C   UNK N   1      33.757  17.738   6.487  0.00  0.00     0.033 A 
HETATM    8  C   UNK N   1      33.615  16.909   5.360  0.00  0.00     0.039 A 
HETATM    9  C   UNK N   1      33.946  15.528   5.426  0.00  0.00     0.069 A 
HETATM   10  C   UNK N   1      34.423  14.984   6.631  0.00  0.00     0.051 A 
HETATM   11  C   UNK N   1      34.555  15.827   7.729  0.00  0.00     0.009 A 
HETATM   12  H   UNK N   1      34.300  18.760   9.093  0.00  0.00     0.169 HD
ENDROOT
BRANCH   1  13
HETATM   13  C   UNK N   1      36.020  14.026  10.825  0.00  0.00     0.049 A 
HETATM   14  N   UNK N   1      35.302  14.223  11.941  0.00  0.00    -0.351 N 
HETATM   15  C   UNK N   1      36.087  13.790  12.946  0.00  0.00     0.180 A 
HETATM   16  H   UNK N   1      34.396  14.602  12.011  0.00  0.00     0.166 HD
HETATM   17  N   UNK N   1      37.275  13.340  12.494  0.00  0.00    -0.360 N 
HETATM   18  C   UNK N   1      37.241  13.487  11.157  0.00  0.00     0.118 A 
ATOM     19  HN  UNK N   1      38.043  12.965  13.051  1.00  0.00     0.166 HD
ENDBRANCH   1  13
BRANCH   9  20
HETATM   20  O   UNK N   1      33.818  14.715   4.351  0.00  0.00    -0.356 OA
HETATM   21  C   UNK N   1      33.634  15.182   3.071  0.00  0.00     0.210 C 
ENDBRANCH   9  20
TORSDOF 2
ENDMDL
MODEL 3
REMARK VINA RESULT:      -6.0     13.009     14.324
REMARK  2 active torsions:
REMARK  status: ('A' for Active; 'I' for Inactive)
REMARK    1  A    between atoms: C_6  and  C_7 
REMARK    2  A    between atoms: C_15  and  O_16 
ROOT
HETATM    1  C   UNK N   1      34.594  14.305  10.130  0.00  0.00     0.049 C 
HETATM    2  C   UNK N   1      34.282  15.480   9.556  0.00  0.00     0.047 A 
HETATM    3  C   UNK N   1      34.802  16.852   9.759  0.00  0.00     0.257 A 
HETATM    4  O   UNK N   1      35.649  17.201  10.559  0.00  0.00    -0.267 OA
HETATM    5  N   UNK N   1      34.228  17.707   8.881  0.00  0.00    -0.322 N 
HETATM    6  C   UNK N   1      33.336  16.954   8.092  0.00  0.00     0.046 A 
HETATM    7  C   UNK N   1      32.545  17.418   7.045  0.00  0.00     0.033 A 
HETATM    8  C   UNK N   1      31.732  16.487   6.374  0.00  0.00     0.039 A 
HETATM    9  C   UNK N   1      31.724  15.118   6.757  0.00  0.00     0.069 A 
HETATM   10  C   UNK N   1      32.540  14.688   7.818  0.00  0.00     0.051 A 
HETATM   11  C   UNK N   1      33.334  15.629   8.463  0.00  0.00     0.009 A 
HETATM   12  H   UNK N   1      34.401  18.674   8.808  0.00  0.00     0.169 HD
ENDROOT
BRANCH   1  13
HETATM   13  C   UNK N   1      35.542  14.071  11.233  0.00  0.00     0.049 A 
HETATM   14  N   UNK N   1      35.337  14.547  12.471  0.00  0.00    -0.351 N 
HETATM   15  C   UNK N   1      36.400  14.133  13.187  0.00  0.00     0.180 A 
HETATM   16  H   UNK N   1      34.575  15.083  12.787  0.00  0.00     0.166 HD
HETATM   17  N   UNK N   1      37.265  13.424  12.433  0.00  0.00    -0.360 N 
HETATM   18  C   UNK N   1      36.731  13.382  11.200  0.00  0.00     0.118 A 
ATOM     19  HN  UNK N   1      38.145  13.005  12.737  1.00  0.00     0.166 HD
ENDBRANCH   1  13
BRANCH   9  20
HETATM   20  O   UNK N   1      30.949  14.207   6.122  0.00  0.00    -0.356 OA
HETATM   21  C   UNK N   1      29.944  14.551   5.249  0.00  0.00     0.210 C 
ENDBRANCH   9  20
TORSDOF 2
ENDMDL
MODEL 4
REMARK VINA RESULT:      -5.9     11.269     12.733
REMARK  2 active torsions:
REMARK  status: ('A' for Active; 'I' for Inactive)
REMARK    1  A    between atoms: C_6  and  C_7 
REMARK    2  A    between atoms: C_15  and  O_16 
ROOT
HETATM    1  C   UNK N   1      33.418  16.253   9.056  0.00  0.00     0.049 C 
HETATM    2  C   UNK N   1      33.154  16.537   7.769  0.00  0.00     0.047 A 
HETATM    3  C   UNK N   1      34.000  16.516   6.553  0.00  0.00     0.257 A 
HETATM    4  O   UNK N   1      35.184  16.244   6.494  0.00  0.00    -0.267 OA
HETATM    5  N   UNK N   1      33.261  16.807   5.459  0.00  0.00    -0.322 N 
HETATM    6  C   UNK N   1      31.939  17.026   5.899  0.00  0.00     0.046 A 
HETATM    7  C   UNK N   1      30.833  17.331   5.111  0.00  0.00     0.033 A 
HETATM    8  C   UNK N   1      29.593  17.494   5.755  0.00  0.00     0.039 A 
HETATM    9  C   UNK N   1      29.481  17.349   7.165  0.00  0.00     0.069 A 
HETATM   10  C   UNK N   1      30.621  17.036   7.925  0.00  0.00     0.051 A 
HETATM   11  C   UNK N   1      31.833  16.880   7.262  0.00  0.00     0.009 A 
HETATM   12  H   UNK N   1      33.584  16.858   4.530  0.00  0.00     0.169 HD
ENDROOT
BRANCH   1  13
HETATM   13  C   UNK N   1      34.720  15.895   9.645  0.00  0.00     0.049 A 
HETATM   14  N   UNK N   1      35.418  14.821   9.246  0.00  0.00    -0.351 N 
HETATM   15  C   UNK N   1      36.533  14.826  10.002  0.00  0.00     0.180 A 
HETATM   16  H   UNK N   1      35.171  14.170   8.551  0.00  0.00     0.166 HD
HETATM   17  N   UNK N   1      36.546  15.861  10.867  0.00  0.00    -0.360 N 
HETATM   18  C   UNK N   1      35.405  16.539  10.648  0.00  0.00     0.118 A 
ATOM     19  HN  UNK N   1      37.272  16.085  11.547  1.00  0.00     0.166 HD
ENDBRANCH   1  13
BRANCH   9  20
HETATM   20  O   UNK N   1      28.296  17.499   7.802  0.00  0.00    -0.356 OA
HETATM   21  C   UNK N   1      28.176  18.078   9.044  0.00  0.00     0.210 C 
ENDBRANCH   9  20
TORSDOF 2
ENDMDL
MODEL 5
REMARK VINA RESULT:      -5.8      3.433      5.982
REMARK  2 active torsions:
REMARK  status: ('A' for Active; 'I' for Inactive)
REMARK    1  A    between atoms: C_6  and  C_7 
REMARK    2  A    between atoms: C_15  and  O_16 
ROOT
HETATM    1  C   UNK N   1      24.550  18.674   4.381  0.00  0.00     0.049 C 
HETATM    2  C   UNK N   1      23.502  19.216   3.737  0.00  0.00     0.047 A 
HETATM    3  C   UNK N   1      23.374  20.424   2.891  0.00  0.00     0.257 A 
HETATM    4  O   UNK N   1      24.251  21.225   2.625  0.00  0.00    -0.267 OA
HETATM    5  N   UNK N   1      22.121  20.519   2.390  0.00  0.00    -0.322 N 
HETATM    6  C   UNK N   1      21.398  19.409   2.873  0.00  0.00     0.046 A 
HETATM    7  C   UNK N   1      20.073  19.087   2.595  0.00  0.00     0.033 A 
HETATM    8  C   UNK N   1      19.547  17.916   3.172  0.00  0.00     0.039 A 
HETATM    9  C   UNK N   1      20.350  17.094   4.010  0.00  0.00     0.069 A 
HETATM   10  C   UNK N   1      21.685  17.452   4.263  0.00  0.00     0.051 A 
HETATM   11  C   UNK N   1      22.179  18.614   3.679  0.00  0.00     0.009 A 
HETATM   12  H   UNK N   1      21.779  21.229   1.800  0.00  0.00     0.169 HD
ENDROOT
BRANCH   1  13
HETATM   13  C   UNK N   1      25.916  19.215   4.483  0.00  0.00     0.049 A 
HETATM   14  N   UNK N   1      26.193  20.352   5.140  0.00  0.00    -0.351 N 
HETATM   15  C   UNK N   1      27.524  20.516   5.015  0.00  0.00     0.180 A 
HETATM   16  H   UNK N   1      25.560  20.940   5.611  0.00  0.00     0.166 HD
HETATM   17  N   UNK N   1      28.083  19.525   4.291  0.00  0.00    -0.360 N 
HETATM   18  C   UNK N   1      27.076  18.702   3.951  0.00  0.00     0.118 A 
ATOM     19  HN  UNK N   1      29.070  19.421   4.051  1.00  0.00     0.166 HD
ENDBRANCH   1  13
BRANCH   9  20
HETATM   20  O   UNK N   1      19.862  15.963   4.572  0.00  0.00    -0.356 OA
HETATM   21  C   UNK N   1      19.200  15.946   5.777  0.00  0.00     0.210 C 
ENDBRANCH   9  20
TORSDOF 2
ENDMDL
MODEL 6
REMARK VINA RESULT:      -5.6     17.200     19.863
REMARK  2 active torsions:
REMARK  status: ('A' for Active; 'I' for Inactive)
REMARK    1  A    between atoms: C_6  and  C_7 
REMARK    2  A    between atoms: C_15  and  O_16 
ROOT
HETATM    1  C   UNK N   1      34.864  10.159  14.986  0.00  0.00     0.049 C 
HETATM    2  C   UNK N   1      34.960  11.334  15.633  0.00  0.00     0.047 A 
HETATM    3  C   UNK N   1      34.842  12.735  15.169  0.00  0.00     0.257 A 
HETATM    4  O   UNK N   1      34.650  13.111  14.027  0.00  0.00    -0.267 OA
HETATM    5  N   UNK N   1      34.935  13.588  16.214  0.00  0.00    -0.322 N 
HETATM    6  C   UNK N   1      35.114  12.805  17.373  0.00  0.00     0.046 A 
HETATM    7  C   UNK N   1      35.234  13.260  18.682  0.00  0.00     0.033 A 
HETATM    8  C   UNK N   1      35.390  12.300  19.698  0.00  0.00     0.039 A 
HETATM    9  C   UNK N   1      35.422  10.913  19.391  0.00  0.00     0.069 A 
HETATM   10  C   UNK N   1      35.293  10.493  18.056  0.00  0.00     0.051 A 
HETATM   11  C   UNK N   1      35.139  11.463  17.071  0.00  0.00     0.009 A 
HETATM   12  H   UNK N   1      34.888  14.571  16.174  0.00  0.00     0.169 HD
ENDROOT
BRANCH   1  13
HETATM   13  C   UNK N   1      34.679   9.945  13.541  0.00  0.00     0.049 A 
HETATM   14  N   UNK N   1      33.582  10.355  12.888  0.00  0.00    -0.351 N 
HETATM   15  C   UNK N   1      33.776   9.987  11.607  0.00  0.00     0.180 A 
HETATM   16  H   UNK N   1      32.802  10.824  13.263  0.00  0.00     0.166 HD
HETATM   17  N   UNK N   1      34.954   9.351  11.443  0.00  0.00    -0.360 N 
HETATM   18  C   UNK N   1      35.529   9.320  12.659  0.00  0.00     0.118 A 
ATOM     19  HN  UNK N   1      35.333   8.972  10.575  1.00  0.00     0.166 HD
ENDBRANCH   1  13
BRANCH   9  20
HETATM   20  O   UNK N   1      35.568   9.974  20.356  0.00  0.00    -0.356 OA
HETATM   21  C   UNK N   1      36.757   9.745  21.009  0.00  0.00     0.210 C 
ENDBRANCH   9  20
TORSDOF 2
ENDMDL
MODEL 7
REMARK VINA RESULT:      -5.6      8.313     10.034
REMARK  2 active torsions:
REMARK  status: ('A' for Active; 'I' for Inactive)
REMARK    1  A    between atoms: C_6  and  C_7 
REMARK    2  A    between atoms: C_15  and  O_16 
ROOT
HETATM    1  C   UNK N   1      28.494  16.932   6.564  0.00  0.00     0.049 C 
HETATM    2  C   UNK N   1      29.544  17.015   5.728  0.00  0.00     0.047 A 
HETATM    3  C   UNK N   1      29.636  17.049   4.251  0.00  0.00     0.257 A 
HETATM    4  O   UNK N   1      28.714  16.975   3.461  0.00  0.00    -0.267 OA
HETATM    5  N   UNK N   1      30.920  17.221   3.862  0.00  0.00    -0.322 N 
HETATM    6  C   UNK N   1      31.700  17.304   5.035  0.00  0.00     0.046 A 
HETATM    7  C   UNK N   1      33.074  17.503   5.115  0.00  0.00     0.033 A 
HETATM    8  C   UNK N   1      33.654  17.572   6.394  0.00  0.00     0.039 A 
HETATM    9  C   UNK N   1      32.855  17.441   7.563  0.00  0.00     0.069 A 
HETATM   10  C   UNK N   1      31.469  17.244   7.440  0.00  0.00     0.051 A 
HETATM   11  C   UNK N   1      30.922  17.182   6.163  0.00  0.00     0.009 A 
HETATM   12  H   UNK N   1      31.249  17.277   2.936  0.00  0.00     0.169 HD
ENDROOT
BRANCH   1  13
HETATM   13  C   UNK N   1      27.075  16.768   6.205  0.00  0.00     0.049 A 
HETATM   14  N   UNK N   1      26.410  17.671   5.469  0.00  0.00    -0.351 N 
HETATM   15  C   UNK N   1      25.161  17.180   5.353  0.00  0.00     0.180 A 
HETATM   16  H   UNK N   1      26.759  18.511   5.093  0.00  0.00     0.166 HD
HETATM   17  N   UNK N   1      25.023  16.006   6.003  0.00  0.00    -0.360 N 
HETATM   18  C   UNK N   1      26.226  15.741   6.544  0.00  0.00     0.118 A 
ATOM     19  HN  UNK N   1      24.180  15.436   6.071  1.00  0.00     0.166 HD
ENDBRANCH   1  13
BRANCH   9  20
HETATM   20  O   UNK N   1      33.395  17.506   8.803  0.00  0.00    -0.356 OA
HETATM   21  C   UNK N   1      34.611  16.951   9.126  0.00  0.00     0.210 C 
ENDBRANCH   9  20
TORSDOF 2
ENDMDL
MODEL 8
REMARK VINA RESULT:      -5.5     16.702     18.422
REMARK  2 active torsions:
REMARK  status: ('A' for Active; 'I' for Inactive)
REMARK    1  A    between atoms: C_6  and  C_7 
REMARK    2  A    between atoms: C_15  and  O_16 
ROOT
HETATM    1  C   UNK N   1      35.111  12.134  15.840  0.00  0.00     0.049 C 
HETATM    2  C   UNK N   1      35.648  12.960  14.925  0.00  0.00     0.047 A 
HETATM    3  C   UNK N   1      36.535  14.140  15.052  0.00  0.00     0.257 A 
HETATM    4  O   UNK N   1      36.949  14.632  16.085  0.00  0.00    -0.267 OA
HETATM    5  N   UNK N   1      36.880  14.604  13.830  0.00  0.00    -0.322 N 
HETATM    6  C   UNK N   1      36.252  13.773  12.879  0.00  0.00     0.046 A 
HETATM    7  C   UNK N   1      36.345  13.865  11.494  0.00  0.00     0.033 A 
HETATM    8  C   UNK N   1      35.646  12.918  10.725  0.00  0.00     0.039 A 
HETATM    9  C   UNK N   1      34.872  11.901  11.349  0.00  0.00     0.069 A 
HETATM   10  C   UNK N   1      34.806  11.840  12.752  0.00  0.00     0.051 A 
HETATM   11  C   UNK N   1      35.508  12.788  13.488  0.00  0.00     0.009 A 
HETATM   12  H   UNK N   1      37.460  15.377  13.640  0.00  0.00     0.169 HD
ENDROOT
BRANCH   1  13
HETATM   13  C   UNK N   1      35.210  12.235  17.306  0.00  0.00     0.049 A 
HETATM   14  N   UNK N   1      34.993  13.384  17.964  0.00  0.00    -0.351 N 
HETATM   15  C   UNK N   1      35.171  13.085  19.265  0.00  0.00     0.180 A 
HETATM   16  H   UNK N   1      34.754  14.258  17.579  0.00  0.00     0.166 HD
HETATM   17  N   UNK N   1      35.504  11.789  19.438  0.00  0.00    -0.360 N 
HETATM   18  C   UNK N   1      35.531  11.247  18.207  0.00  0.00     0.118 A 
ATOM     19  HN  UNK N   1      35.696  11.316  20.321  1.00  0.00     0.166 HD
ENDBRANCH   1  13
BRANCH   9  20
HETATM   20  O   UNK N   1      34.194  10.979  10.626  0.00  0.00    -0.356 OA
HETATM   21  C   UNK N   1      33.538   9.911  11.192  0.00  0.00     0.210 C 
ENDBRANCH   9  20
TORSDOF 2
ENDMDL
MODEL 9
REMARK VINA RESULT:      -5.4     13.399     15.562
REMARK  2 active torsions:
REMARK  status: ('A' for Active; 'I' for Inactive)
REMARK    1  A    between atoms: C_6  and  C_7 
REMARK    2  A    between atoms: C_15  and  O_16 
ROOT
HETATM    1  C   UNK N   1      33.821  15.315   7.784  0.00  0.00     0.049 C 
HETATM    2  C   UNK N   1      34.378  15.805   8.905  0.00  0.00     0.047 A 
HETATM    3  C   UNK N   1      34.702  17.186   9.331  0.00  0.00     0.257 A 
HETATM    4  O   UNK N   1      34.538  18.205   8.688  0.00  0.00    -0.267 OA
HETATM    5  N   UNK N   1      35.187  17.188  10.594  0.00  0.00    -0.322 N 
HETATM    6  C   UNK N   1      35.201  15.848  11.034  0.00  0.00     0.046 A 
HETATM    7  C   UNK N   1      35.602  15.380  12.281  0.00  0.00     0.033 A 
HETATM    8  C   UNK N   1      35.520  13.997  12.521  0.00  0.00     0.039 A 
HETATM    9  C   UNK N   1      35.042  13.111  11.516  0.00  0.00     0.069 A 
HETATM   10  C   UNK N   1      34.643  13.624  10.270  0.00  0.00     0.051 A 
HETATM   11  C   UNK N   1      34.734  14.996  10.061  0.00  0.00     0.009 A 
HETATM   12  H   UNK N   1      35.477  17.976  11.108  0.00  0.00     0.169 HD
ENDROOT
BRANCH   1  13
HETATM   13  C   UNK N   1      33.429  16.064   6.578  0.00  0.00     0.049 A 
HETATM   14  N   UNK N   1      32.422  16.950   6.576  0.00  0.00    -0.351 N 
HETATM   15  C   UNK N   1      32.369  17.421   5.316  0.00  0.00     0.180 A 
HETATM   16  H   UNK N   1      31.845  17.202   7.333  0.00  0.00     0.166 HD
HETATM   17  N   UNK N   1      33.303  16.849   4.529  0.00  0.00    -0.360 N 
HETATM   18  C   UNK N   1      33.975  15.991   5.318  0.00  0.00     0.118 A 
ATOM     19  HN  UNK N   1      33.467  17.030   3.538  1.00  0.00     0.166 HD
ENDBRANCH   1  13
BRANCH   9  20
HETATM   20  O   UNK N   1      34.954  11.777  11.728  0.00  0.00    -0.356 OA
HETATM   21  C   UNK N   1      34.743  11.224  12.970  0.00  0.00     0.210 C 
ENDBRANCH   9  20
TORSDOF 2
ENDMDL
