REMARK  2 active torsions:
REMARK  status: ('A' for Active; 'I' for Inactive)
REMARK    1  A    between atoms: C_6  and  C_7 
REMARK    2  A    between atoms: C_15  and  O_16 
ROOT
HETATM    1  C   UNK N   1      -1.206  -1.418  -0.010  0.00  0.00     0.049 C 
HETATM    2  C   UNK N   1      -0.734  -0.159  -0.024  0.00  0.00     0.047 A 
HETATM    3  C   UNK N   1      -1.412   1.156   0.042  0.00  0.00     0.257 A 
HETATM    4  O   UNK N   1      -2.611   1.356   0.097  0.00  0.00    -0.267 OA
HETATM    5  N   UNK N   1      -0.501   2.155   0.077  0.00  0.00    -0.322 N 
HETATM    6  C   UNK N   1       0.774   1.554   0.036  0.00  0.00     0.046 A 
HETATM    7  C   UNK N   1       2.006   2.199   0.074  0.00  0.00     0.033 A 
HETATM    8  C   UNK N   1       3.165   1.403   0.038  0.00  0.00     0.039 A 
HETATM    9  C   UNK N   1       3.073  -0.014  -0.034  0.00  0.00     0.069 A 
HETATM   10  C   UNK N   1       1.809  -0.628  -0.067  0.00  0.00     0.051 A 
HETATM   11  C   UNK N   1       0.680   0.183  -0.029  0.00  0.00     0.009 A 
HETATM   12  H   UNK N   1      -0.692   3.120   0.122  0.00  0.00     0.169 HD
ENDROOT
BRANCH   1  13
HETATM   13  C   UNK N   1      -2.615  -1.846  -0.000  0.00  0.00     0.049 A 
HETATM   14  N   UNK N   1      -2.988  -3.085   0.355  0.00  0.00    -0.351 N 
HETATM   15  C   UNK N   1      -4.330  -3.095   0.241  0.00  0.00     0.180 A 
HETATM   16  H   UNK N   1      -2.407  -3.827   0.638  0.00  0.00     0.166 HD
HETATM   17  N   UNK N   1      -4.804  -1.906  -0.185  0.00  0.00    -0.360 N 
HETATM   18  C   UNK N   1      -3.728  -1.114  -0.340  0.00  0.00     0.118 A 
ATOM     19  HN  UNK N   1      -5.779  -1.658  -0.354  1.00  0.00     0.166 HD
ENDBRANCH   1  13
BRANCH   9  20
HETATM   20  O   UNK N   1       4.177  -0.797  -0.067  0.00  0.00    -0.356 OA
HETATM   21  C   UNK N   1       5.457  -0.297  -0.012  0.00  0.00     0.210 C 
ENDBRANCH   9  20
TORSDOF 2
