MODEL 1
REMARK VINA RESULT:      -3.8      0.000      0.000
REMARK  6 active torsions:
REMARK  status: ('A' for Active; 'I' for Inactive)
REMARK    1  A    between atoms: P_1  and  O_3 
REMARK    2  A    between atoms: P_1  and  O_6 
REMARK    3  A    between atoms: P_1  and  O_9 
REMARK    4  A    between atoms: O_3  and  C_4 
REMARK    5  A    between atoms: O_6  and  C_7 
REMARK    6  A    between atoms: O_9  and  C_10 
ROOT
HETATM    1  P   UNK N   1      20.390  14.911   8.972  0.00  0.00     0.477 P 
HETATM    2  O   UNK N   1      19.156  14.468   9.801  0.00  0.00    -0.227 OA
ENDROOT
BRANCH   1   3
HETATM    3  O   UNK N   1      19.063  15.695   8.165  0.00  0.00    -0.293 OA
BRANCH   3   4
HETATM    4  C   UNK N   1      18.618  16.676   9.055  0.00  0.00     0.176 C 
HETATM    5  C   UNK N   1      19.512  17.894   8.956  0.00  0.00     0.034 C 
ENDBRANCH   3   4
ENDBRANCH   1   3
BRANCH   1   6
HETATM    6  O   UNK N   1      20.492  13.175   8.993  0.00  0.00    -0.293 OA
BRANCH   6   7
HETATM    7  C   UNK N   1      21.762  12.888   9.502  0.00  0.00     0.176 C 
HETATM    8  C   UNK N   1      21.624  12.239  10.861  0.00  0.00     0.034 C 
ENDBRANCH   6   7
ENDBRANCH   1   6
BRANCH   1   9
HETATM    9  O   UNK N   1      20.305  14.323   7.334  0.00  0.00    -0.293 OA
BRANCH   9  10
HETATM   10  C   UNK N   1      20.871  15.333   6.549  0.00  0.00     0.176 C 
HETATM   11  C   UNK N   1      22.346  15.455   6.865  0.00  0.00     0.034 C 
ENDBRANCH   9  10
ENDBRANCH   1   9
TORSDOF 6
ENDMDL
MODEL 2
REMARK VINA RESULT:      -3.7     15.408     17.007
REMARK  6 active torsions:
REMARK  status: ('A' for Active; 'I' for Inactive)
REMARK    1  A    between atoms: P_1  and  O_3 
REMARK    2  A    between atoms: P_1  and  O_6 
REMARK    3  A    between atoms: P_1  and  O_9 
REMARK    4  A    between atoms: O_3  and  C_4 
REMARK    5  A    between atoms: O_6  and  C_7 
REMARK    6  A    between atoms: O_9  and  C_10 
ROOT
HETATM    1  P   UNK N   1      35.402  12.480  14.925  0.00  0.00     0.477 P 
HETATM    2  O   UNK N   1      34.813  13.029  13.599  0.00  0.00    -0.227 OA
ENDROOT
BRANCH   1   3
HETATM    3  O   UNK N   1      33.752  11.929  14.960  0.00  0.00    -0.293 OA
BRANCH   3   4
HETATM    4  C   UNK N   1      33.759  10.698  14.298  0.00  0.00     0.176 C 
HETATM    5  C   UNK N   1      34.833   9.810  14.891  0.00  0.00     0.034 C 
ENDBRANCH   3   4
ENDBRANCH   1   3
BRANCH   1   6
HETATM    6  O   UNK N   1      35.752  14.182  14.978  0.00  0.00    -0.293 OA
BRANCH   6   7
HETATM    7  C   UNK N   1      37.113  14.268  15.283  0.00  0.00     0.176 C 
HETATM    8  C   UNK N   1      37.386  15.567  16.007  0.00  0.00     0.034 C 
ENDBRANCH   6   7
ENDBRANCH   1   6
BRANCH   1   9
HETATM    9  O   UNK N   1      34.610  13.173  16.314  0.00  0.00    -0.293 OA
BRANCH   9  10
HETATM   10  C   UNK N   1      35.104  12.465  17.414  0.00  0.00     0.176 C 
HETATM   11  C   UNK N   1      35.193  13.386  18.612  0.00  0.00     0.034 C 
ENDBRANCH   9  10
ENDBRANCH   1   9
TORSDOF 6
ENDMDL
MODEL 3
REMARK VINA RESULT:      -3.7     24.363     25.802
REMARK  6 active torsions:
REMARK  status: ('A' for Active; 'I' for Inactive)
REMARK    1  A    between atoms: P_1  and  O_3 
REMARK    2  A    between atoms: P_1  and  O_6 
REMARK    3  A    between atoms: P_1  and  O_9 
REMARK    4  A    between atoms: O_3  and  C_4 
REMARK    5  A    between atoms: O_6  and  C_7 
REMARK    6  A    between atoms: O_9  and  C_10 
ROOT
HETATM    1  P   UNK N   1      43.907  23.132   2.348  0.00  0.00     0.477 P 
HETATM    2  O   UNK N   1      43.229  24.272   1.542  0.00  0.00    -0.227 OA
ENDROOT
BRANCH   1   3
HETATM    3  O   UNK N   1      42.212  22.892   2.660  0.00  0.00    -0.293 OA
BRANCH   3   4
HETATM    4  C   UNK N   1      41.751  22.098   1.606  0.00  0.00     0.176 C 
HETATM    5  C   UNK N   1      40.423  21.476   1.982  0.00  0.00     0.034 C 
ENDBRANCH   3   4
ENDBRANCH   1   3
BRANCH   1   6
HETATM    6  O   UNK N   1      44.698  24.577   2.907  0.00  0.00    -0.293 OA
BRANCH   6   7
HETATM    7  C   UNK N   1      45.829  24.711   2.098  0.00  0.00     0.176 C 
HETATM    8  C   UNK N   1      46.232  26.168   2.034  0.00  0.00     0.034 C 
ENDBRANCH   6   7
ENDBRANCH   1   6
BRANCH   1   9
HETATM    9  O   UNK N   1      43.622  23.303   4.059  0.00  0.00    -0.293 OA
BRANCH   9  10
HETATM   10  C   UNK N   1      43.877  22.040   4.604  0.00  0.00     0.176 C 
HETATM   11  C   UNK N   1      45.076  21.423   3.917  0.00  0.00     0.034 C 
ENDBRANCH   9  10
ENDBRANCH   1   9
TORSDOF 6
ENDMDL
MODEL 4
REMARK VINA RESULT:      -3.6     13.007     13.965
REMARK  6 active torsions:
REMARK  status: ('A' for Active; 'I' for Inactive)
REMARK    1  A    between atoms: P_1  and  O_3 
REMARK    2  A    between atoms: P_1  and  O_6 
REMARK    3  A    between atoms: P_1  and  O_9 
REMARK    4  A    between atoms: O_3  and  C_4 
REMARK    5  A    between atoms: O_6  and  C_7 
REMARK    6  A    between atoms: O_9  and  C_10 
ROOT
HETATM    1  P   UNK N   1      33.566  16.671   6.150  0.00  0.00     0.477 P 
HETATM    2  O   UNK N   1      34.192  16.015   4.890  0.00  0.00    -0.227 OA
ENDROOT
BRANCH   1   3
HETATM    3  O   UNK N   1      33.430  17.914   4.940  0.00  0.00    -0.293 OA
BRANCH   3   4
HETATM    4  C   UNK N   1      32.485  17.438   4.026  0.00  0.00     0.176 C 
HETATM    5  C   UNK N   1      31.099  17.552   4.624  0.00  0.00     0.034 C 
ENDBRANCH   3   4
ENDBRANCH   1   3
BRANCH   1   6
HETATM    6  O   UNK N   1      35.136  16.143   6.681  0.00  0.00    -0.293 OA
BRANCH   6   7
HETATM    7  C   UNK N   1      35.022  14.759   6.841  0.00  0.00     0.176 C 
HETATM    8  C   UNK N   1      34.630  14.448   8.269  0.00  0.00     0.034 C 
ENDBRANCH   6   7
ENDBRANCH   1   6
BRANCH   1   9
HETATM    9  O   UNK N   1      34.481  18.060   6.669  0.00  0.00    -0.293 OA
BRANCH   9  10
HETATM   10  C   UNK N   1      34.190  18.209   8.029  0.00  0.00     0.176 C 
HETATM   11  C   UNK N   1      32.709  17.996   8.256  0.00  0.00     0.034 C 
ENDBRANCH   9  10
ENDBRANCH   1   9
TORSDOF 6
ENDMDL
MODEL 5
REMARK VINA RESULT:      -3.6     24.244     25.550
REMARK  6 active torsions:
REMARK  status: ('A' for Active; 'I' for Inactive)
REMARK    1  A    between atoms: P_1  and  O_3 
REMARK    2  A    between atoms: P_1  and  O_6 
REMARK    3  A    between atoms: P_1  and  O_9 
REMARK    4  A    between atoms: O_3  and  C_4 
REMARK    5  A    between atoms: O_6  and  C_7 
REMARK    6  A    between atoms: O_9  and  C_10 
ROOT
HETATM    1  P   UNK N   1      44.323  22.743   2.687  0.00  0.00     0.477 P 
HETATM    2  O   UNK N   1      44.780  22.635   4.166  0.00  0.00    -0.227 OA
ENDROOT
BRANCH   1   3
HETATM    3  O   UNK N   1      44.739  24.381   3.100  0.00  0.00    -0.293 OA
BRANCH   3   4
HETATM    4  C   UNK N   1      45.748  24.743   2.202  0.00  0.00     0.176 C 
HETATM    5  C   UNK N   1      45.847  26.252   2.132  0.00  0.00     0.034 C 
ENDBRANCH   3   4
ENDBRANCH   1   3
BRANCH   1   6
HETATM    6  O   UNK N   1      42.994  21.956   3.485  0.00  0.00    -0.293 OA
BRANCH   6   7
HETATM    7  C   UNK N   1      43.241  20.588   3.347  0.00  0.00     0.176 C 
HETATM    8  C   UNK N   1      41.938  19.864   3.089  0.00  0.00     0.034 C 
ENDBRANCH   6   7
ENDBRANCH   1   6
BRANCH   1   9
HETATM    9  O   UNK N   1      42.902  23.739   2.527  0.00  0.00    -0.293 OA
BRANCH   9  10
HETATM   10  C   UNK N   1      42.408  23.476   1.245  0.00  0.00     0.176 C 
HETATM   11  C   UNK N   1      40.949  23.869   1.173  0.00  0.00     0.034 C 
ENDBRANCH   9  10
ENDBRANCH   1   9
TORSDOF 6
ENDMDL
MODEL 6
REMARK VINA RESULT:      -3.5     15.299     16.631
REMARK  6 active torsions:
REMARK  status: ('A' for Active; 'I' for Inactive)
REMARK    1  A    between atoms: P_1  and  O_3 
REMARK    2  A    between atoms: P_1  and  O_6 
REMARK    3  A    between atoms: P_1  and  O_9 
REMARK    4  A    between atoms: O_3  and  C_4 
REMARK    5  A    between atoms: O_6  and  C_7 
REMARK    6  A    between atoms: O_9  and  C_10 
ROOT
HETATM    1  P   UNK N   1      35.820  13.093  13.721  0.00  0.00     0.477 P 
HETATM    2  O   UNK N   1      34.589  13.336  12.808  0.00  0.00    -0.227 OA
ENDROOT
BRANCH   1   3
HETATM    3  O   UNK N   1      34.473  12.704  14.751  0.00  0.00    -0.293 OA
BRANCH   3   4
HETATM    4  C   UNK N   1      34.054  11.433  14.346  0.00  0.00     0.176 C 
HETATM    5  C   UNK N   1      34.340  10.431  15.445  0.00  0.00     0.034 C 
ENDBRANCH   3   4
ENDBRANCH   1   3
BRANCH   1   6
HETATM    6  O   UNK N   1      36.033  14.720  13.145  0.00  0.00    -0.293 OA
BRANCH   6   7
HETATM    7  C   UNK N   1      35.429  14.745  11.885  0.00  0.00     0.176 C 
HETATM    8  C   UNK N   1      35.695  16.081  11.226  0.00  0.00     0.034 C 
ENDBRANCH   6   7
ENDBRANCH   1   6
BRANCH   1   9
HETATM    9  O   UNK N   1      35.828  14.176  15.086  0.00  0.00    -0.293 OA
BRANCH   9  10
HETATM   10  C   UNK N   1      37.176  14.347  15.416  0.00  0.00     0.176 C 
HETATM   11  C   UNK N   1      37.345  15.621  16.215  0.00  0.00     0.034 C 
ENDBRANCH   9  10
ENDBRANCH   1   9
TORSDOF 6
ENDMDL
MODEL 7
REMARK VINA RESULT:      -3.5     22.553     23.874
REMARK  6 active torsions:
REMARK  status: ('A' for Active; 'I' for Inactive)
REMARK    1  A    between atoms: P_1  and  O_3 
REMARK    2  A    between atoms: P_1  and  O_6 
REMARK    3  A    between atoms: P_1  and  O_9 
REMARK    4  A    between atoms: O_3  and  C_4 
REMARK    5  A    between atoms: O_6  and  C_7 
REMARK    6  A    between atoms: O_9  and  C_10 
ROOT
HETATM    1  P   UNK N   1      42.159  22.868   1.610  0.00  0.00     0.477 P 
HETATM    2  O   UNK N   1      42.942  23.874   2.495  0.00  0.00    -0.227 OA
ENDROOT
BRANCH   1   3
HETATM    3  O   UNK N   1      41.137  24.276   1.617  0.00  0.00    -0.293 OA
BRANCH   3   4
HETATM    4  C   UNK N   1      40.812  24.503   0.276  0.00  0.00     0.176 C 
HETATM    5  C   UNK N   1      40.063  25.812   0.151  0.00  0.00     0.034 C 
ENDBRANCH   3   4
ENDBRANCH   1   3
BRANCH   1   6
HETATM    6  O   UNK N   1      42.451  21.998   3.087  0.00  0.00    -0.293 OA
BRANCH   6   7
HETATM    7  C   UNK N   1      43.655  22.506   3.580  0.00  0.00     0.176 C 
HETATM    8  C   UNK N   1      44.599  21.362   3.881  0.00  0.00     0.034 C 
ENDBRANCH   6   7
ENDBRANCH   1   6
BRANCH   1   9
HETATM    9  O   UNK N   1      40.627  22.444   2.324  0.00  0.00    -0.293 OA
BRANCH   9  10
HETATM   10  C   UNK N   1      40.525  21.056   2.185  0.00  0.00     0.176 C 
HETATM   11  C   UNK N   1      39.835  20.726   0.879  0.00  0.00     0.034 C 
ENDBRANCH   9  10
ENDBRANCH   1   9
TORSDOF 6
ENDMDL
MODEL 8
REMARK VINA RESULT:      -3.5     15.410     16.374
REMARK  6 active torsions:
REMARK  status: ('A' for Active; 'I' for Inactive)
REMARK    1  A    between atoms: P_1  and  O_3 
REMARK    2  A    between atoms: P_1  and  O_6 
REMARK    3  A    between atoms: P_1  and  O_9 
REMARK    4  A    between atoms: O_3  and  C_4 
REMARK    5  A    between atoms: O_6  and  C_7 
REMARK    6  A    between atoms: O_9  and  C_10 
ROOT
HETATM    1  P   UNK N   1      36.133  13.108  13.668  0.00  0.00     0.477 P 
HETATM    2  O   UNK N   1      36.318  14.647  13.593  0.00  0.00    -0.227 OA
ENDROOT
BRANCH   1   3
HETATM    3  O   UNK N   1      35.688  13.487  12.029  0.00  0.00    -0.293 OA
BRANCH   3   4
HETATM    4  C   UNK N   1      36.896  13.597  11.334  0.00  0.00     0.176 C 
HETATM    5  C   UNK N   1      36.678  14.383  10.059  0.00  0.00     0.034 C 
ENDBRANCH   3   4
ENDBRANCH   1   3
BRANCH   1   6
HETATM    6  O   UNK N   1      35.181  13.716  14.990  0.00  0.00    -0.293 OA
BRANCH   6   7
HETATM    7  C   UNK N   1      35.922  13.428  16.139  0.00  0.00     0.176 C 
HETATM    8  C   UNK N   1      34.984  13.022  17.255  0.00  0.00     0.034 C 
ENDBRANCH   6   7
ENDBRANCH   1   6
BRANCH   1   9
HETATM    9  O   UNK N   1      34.470  12.651  13.420  0.00  0.00    -0.293 OA
BRANCH   9  10
HETATM   10  C   UNK N   1      34.473  11.253  13.376  0.00  0.00     0.176 C 
HETATM   11  C   UNK N   1      33.633  10.708  14.511  0.00  0.00     0.034 C 
ENDBRANCH   9  10
ENDBRANCH   1   9
TORSDOF 6
ENDMDL
MODEL 9
REMARK VINA RESULT:      -3.4     18.265     19.789
REMARK  6 active torsions:
REMARK  status: ('A' for Active; 'I' for Inactive)
REMARK    1  A    between atoms: P_1  and  O_3 
REMARK    2  A    between atoms: P_1  and  O_6 
REMARK    3  A    between atoms: P_1  and  O_9 
REMARK    4  A    between atoms: O_3  and  C_4 
REMARK    5  A    between atoms: O_6  and  C_7 
REMARK    6  A    between atoms: O_9  and  C_10 
ROOT
HETATM    1  P   UNK N   1      25.878  28.115  -4.207  0.00  0.00     0.477 P 
HETATM    2  O   UNK N   1      25.864  27.545  -2.764  0.00  0.00    -0.227 OA
ENDROOT
BRANCH   1   3
HETATM    3  O   UNK N   1      25.779  26.396  -4.456  0.00  0.00    -0.293 OA
BRANCH   3   4
HETATM    4  C   UNK N   1      26.618  25.834  -3.489  0.00  0.00     0.176 C 
HETATM    5  C   UNK N   1      26.743  24.345  -3.730  0.00  0.00     0.034 C 
ENDBRANCH   3   4
ENDBRANCH   1   3
BRANCH   1   6
HETATM    6  O   UNK N   1      27.290  28.807  -3.463  0.00  0.00    -0.293 OA
BRANCH   6   7
HETATM    7  C   UNK N   1      26.887  30.065  -3.010  0.00  0.00     0.176 C 
HETATM    8  C   UNK N   1      26.808  31.020  -4.181  0.00  0.00     0.034 C 
ENDBRANCH   6   7
ENDBRANCH   1   6
BRANCH   1   9
HETATM    9  O   UNK N   1      27.289  27.595  -5.087  0.00  0.00    -0.293 OA
BRANCH   9  10
HETATM   10  C   UNK N   1      27.036  27.927  -6.423  0.00  0.00     0.176 C 
HETATM   11  C   UNK N   1      28.122  28.850  -6.930  0.00  0.00     0.034 C 
ENDBRANCH   9  10
ENDBRANCH   1   9
TORSDOF 6
ENDMDL
