MODEL 1
REMARK VINA RESULT:      -5.3      0.000      0.000
REMARK  3 active torsions:
REMARK  status: ('A' for Active; 'I' for Inactive)
REMARK    1  A    between atoms: C_4  and  O_12 
REMARK    2  A    between atoms: C_5  and  C_6 
REMARK    3  A    between atoms: C_7  and  C_8 
ROOT
HETATM    1  S   UNK N   1      22.379  15.154   7.133  0.00  0.00    -0.067 SA
HETATM    2  C   UNK N   1      21.158  16.367   7.583  0.00  0.00     0.218 A 
HETATM    3  C   UNK N   1      20.163  15.886   8.511  0.00  0.00     0.026 A 
HETATM    4  C   UNK N   1      20.372  14.633   8.891  0.00  0.00     0.076 A 
HETATM    5  C   UNK N   1      21.588  13.952   8.304  0.00  0.00     0.079 A 
HETATM    6  O   UNK N   1      21.161  17.501   7.131  0.00  0.00    -0.280 OA
HETATM    7  C   UNK N   1      19.009  16.714   8.981  0.00  0.00     0.056 C 
HETATM    8  C   UNK N   1      21.120  12.760   7.492  0.00  0.00     0.039 C 
ENDROOT
BRANCH   5   9
HETATM    9  C   UNK N   1      22.476  13.432   9.426  0.00  0.00     0.007 C 
HETATM   10  C   UNK N   1      23.694  12.852   9.405  0.00  0.00    -0.065 C 
HETATM   11  C   UNK N   1      24.488  12.651   8.151  0.00  0.00     0.048 C 
BRANCH  10  12
HETATM   12  C   UNK N   1      24.244  12.377  10.690  0.00  0.00    -0.004 C 
HETATM   13  C   UNK N   1      23.463  11.924  11.672  0.00  0.00     0.012 C 
ENDBRANCH  10  12
ENDBRANCH   5   9
BRANCH   4  14
HETATM   14  O   UNK N   1      19.539  14.000   9.744  0.00  0.00    -0.362 OA
HETATM   15  H   UNK N   1      18.606  14.048   9.820  0.00  0.00     0.217 HD
ENDBRANCH   4  14
TORSDOF 3
ENDMDL
MODEL 2
REMARK VINA RESULT:      -5.2     17.430     19.478
REMARK  3 active torsions:
REMARK  status: ('A' for Active; 'I' for Inactive)
REMARK    1  A    between atoms: C_4  and  O_12 
REMARK    2  A    between atoms: C_5  and  C_6 
REMARK    3  A    between atoms: C_7  and  C_8 
ROOT
HETATM    1  S   UNK N   1      27.334  27.365  -6.605  0.00  0.00    -0.067 SA
HETATM    2  C   UNK N   1      27.678  29.040  -6.115  0.00  0.00     0.218 A 
HETATM    3  C   UNK N   1      26.979  29.462  -4.925  0.00  0.00     0.026 A 
HETATM    4  C   UNK N   1      26.237  28.501  -4.392  0.00  0.00     0.076 A 
HETATM    5  C   UNK N   1      26.263  27.166  -5.103  0.00  0.00     0.079 A 
HETATM    6  O   UNK N   1      28.431  29.767  -6.743  0.00  0.00    -0.280 OA
HETATM    7  C   UNK N   1      27.070  30.846  -4.365  0.00  0.00     0.056 C 
HETATM    8  C   UNK N   1      24.858  26.854  -5.579  0.00  0.00     0.039 C 
ENDROOT
BRANCH   5   9
HETATM    9  C   UNK N   1      26.678  26.073  -4.127  0.00  0.00     0.007 C 
HETATM   10  C   UNK N   1      26.801  24.739  -4.282  0.00  0.00    -0.065 C 
HETATM   11  C   UNK N   1      26.582  24.037  -5.587  0.00  0.00     0.048 C 
BRANCH  10  12
HETATM   12  C   UNK N   1      27.146  23.944  -3.086  0.00  0.00    -0.004 C 
HETATM   13  C   UNK N   1      28.395  23.556  -2.828  0.00  0.00     0.012 C 
ENDBRANCH  10  12
ENDBRANCH   5   9
BRANCH   4  14
HETATM   14  O   UNK N   1      25.495  28.707  -3.284  0.00  0.00    -0.362 OA
HETATM   15  H   UNK N   1      25.172  28.093  -2.653  0.00  0.00     0.217 HD
ENDBRANCH   4  14
TORSDOF 3
ENDMDL
MODEL 3
REMARK VINA RESULT:      -5.2      7.582      8.730
REMARK  3 active torsions:
REMARK  status: ('A' for Active; 'I' for Inactive)
REMARK    1  A    between atoms: C_4  and  O_12 
REMARK    2  A    between atoms: C_5  and  C_6 
REMARK    3  A    between atoms: C_7  and  C_8 
ROOT
HETATM    1  S   UNK N   1      28.659  17.966   4.882  0.00  0.00    -0.067 SA
HETATM    2  C   UNK N   1      27.809  19.528   4.855  0.00  0.00     0.218 A 
HETATM    3  C   UNK N   1      27.378  19.987   6.153  0.00  0.00     0.026 A 
HETATM    4  C   UNK N   1      27.735  19.173   7.136  0.00  0.00     0.076 A 
HETATM    5  C   UNK N   1      28.519  17.944   6.731  0.00  0.00     0.079 A 
HETATM    6  O   UNK N   1      27.602  20.146   3.823  0.00  0.00    -0.280 OA
HETATM    7  C   UNK N   1      26.593  21.244   6.362  0.00  0.00     0.056 C 
HETATM    8  C   UNK N   1      27.713  16.719   7.116  0.00  0.00     0.039 C 
ENDROOT
BRANCH   5   9
HETATM    9  C   UNK N   1      29.832  17.898   7.500  0.00  0.00     0.007 C 
HETATM   10  C   UNK N   1      30.887  17.060   7.416  0.00  0.00    -0.065 C 
HETATM   11  C   UNK N   1      30.979  15.951   6.412  0.00  0.00     0.048 C 
BRANCH  10  12
HETATM   12  C   UNK N   1      31.982  17.245   8.388  0.00  0.00    -0.004 C 
HETATM   13  C   UNK N   1      33.052  17.994   8.117  0.00  0.00     0.012 C 
ENDBRANCH  10  12
ENDBRANCH   5   9
BRANCH   4  14
HETATM   14  O   UNK N   1      27.409  19.422   8.421  0.00  0.00    -0.362 OA
HETATM   15  H   UNK N   1      27.242  18.827   9.126  0.00  0.00     0.217 HD
ENDBRANCH   4  14
TORSDOF 3
ENDMDL
MODEL 4
REMARK VINA RESULT:      -5.1     13.748     15.094
REMARK  3 active torsions:
REMARK  status: ('A' for Active; 'I' for Inactive)
REMARK    1  A    between atoms: C_4  and  O_12 
REMARK    2  A    between atoms: C_5  and  C_6 
REMARK    3  A    between atoms: C_7  and  C_8 
ROOT
HETATM    1  S   UNK N   1      37.062  11.419  12.481  0.00  0.00    -0.067 SA
HETATM    2  C   UNK N   1      37.433  12.840  11.476  0.00  0.00     0.218 A 
HETATM    3  C   UNK N   1      36.310  13.720  11.263  0.00  0.00     0.026 A 
HETATM    4  C   UNK N   1      35.214  13.325  11.896  0.00  0.00     0.076 A 
HETATM    5  C   UNK N   1      35.337  12.058  12.714  0.00  0.00     0.079 A 
HETATM    6  O   UNK N   1      38.540  13.039  11.002  0.00  0.00    -0.280 OA
HETATM    7  C   UNK N   1      36.375  14.942  10.403  0.00  0.00     0.056 C 
HETATM    8  C   UNK N   1      34.384  11.028  12.140  0.00  0.00     0.039 C 
ENDROOT
BRANCH   5   9
HETATM    9  C   UNK N   1      34.915  12.333  14.151  0.00  0.00     0.007 C 
HETATM   10  C   UNK N   1      35.468  13.101  15.112  0.00  0.00    -0.065 C 
HETATM   11  C   UNK N   1      36.687  13.945  14.892  0.00  0.00     0.048 C 
BRANCH  10  12
HETATM   12  C   UNK N   1      34.841  13.075  16.448  0.00  0.00    -0.004 C 
HETATM   13  C   UNK N   1      35.271  12.267  17.419  0.00  0.00     0.012 C 
ENDBRANCH  10  12
ENDBRANCH   5   9
BRANCH   4  14
HETATM   14  O   UNK N   1      34.054  14.009  11.806  0.00  0.00    -0.362 OA
HETATM   15  H   UNK N   1      33.372  14.123  12.439  0.00  0.00     0.217 HD
ENDBRANCH   4  14
TORSDOF 3
ENDMDL
MODEL 5
REMARK VINA RESULT:      -5.0     17.613     20.033
REMARK  3 active torsions:
REMARK  status: ('A' for Active; 'I' for Inactive)
REMARK    1  A    between atoms: C_4  and  O_12 
REMARK    2  A    between atoms: C_5  and  C_6 
REMARK    3  A    between atoms: C_7  and  C_8 
ROOT
HETATM    1  S   UNK N   1      26.284  26.420  -3.670  0.00  0.00    -0.067 SA
HETATM    2  C   UNK N   1      26.293  24.677  -4.025  0.00  0.00     0.218 A 
HETATM    3  C   UNK N   1      26.015  24.355  -5.404  0.00  0.00     0.026 A 
HETATM    4  C   UNK N   1      25.846  25.429  -6.163  0.00  0.00     0.076 A 
HETATM    5  C   UNK N   1      25.979  26.765  -5.466  0.00  0.00     0.079 A 
HETATM    6  O   UNK N   1      26.504  23.833  -3.169  0.00  0.00    -0.280 OA
HETATM    7  C   UNK N   1      25.913  22.954  -5.916  0.00  0.00     0.056 C 
HETATM    8  C   UNK N   1      24.652  27.492  -5.576  0.00  0.00     0.039 C 
ENDROOT
BRANCH   5   9
HETATM    9  C   UNK N   1      27.031  27.609  -6.173  0.00  0.00     0.007 C 
HETATM   10  C   UNK N   1      27.490  28.854  -5.926  0.00  0.00    -0.065 C 
HETATM   11  C   UNK N   1      27.036  29.683  -4.764  0.00  0.00     0.048 C 
BRANCH  10  12
HETATM   12  C   UNK N   1      28.469  29.418  -6.876  0.00  0.00    -0.004 C 
HETATM   13  C   UNK N   1      29.691  29.795  -6.495  0.00  0.00     0.012 C 
ENDBRANCH  10  12
ENDBRANCH   5   9
BRANCH   4  14
HETATM   14  O   UNK N   1      25.561  25.333  -7.478  0.00  0.00    -0.362 OA
HETATM   15  H   UNK N   1      25.267  24.596  -7.978  0.00  0.00     0.217 HD
ENDBRANCH   4  14
TORSDOF 3
ENDMDL
MODEL 6
REMARK VINA RESULT:      -5.0     10.591     12.648
REMARK  3 active torsions:
REMARK  status: ('A' for Active; 'I' for Inactive)
REMARK    1  A    between atoms: C_4  and  O_12 
REMARK    2  A    between atoms: C_5  and  C_6 
REMARK    3  A    between atoms: C_7  and  C_8 
ROOT
HETATM    1  S   UNK N   1      33.134  15.041   7.611  0.00  0.00    -0.067 SA
HETATM    2  C   UNK N   1      34.401  14.485   8.729  0.00  0.00     0.218 A 
HETATM    3  C   UNK N   1      35.119  15.551   9.384  0.00  0.00     0.026 A 
HETATM    4  C   UNK N   1      34.668  16.755   9.059  0.00  0.00     0.076 A 
HETATM    5  C   UNK N   1      33.506  16.794   8.092  0.00  0.00     0.079 A 
HETATM    6  O   UNK N   1      34.644  13.303   8.911  0.00  0.00    -0.280 OA
HETATM    7  C   UNK N   1      36.264  15.319  10.318  0.00  0.00     0.056 C 
HETATM    8  C   UNK N   1      33.952  17.528   6.843  0.00  0.00     0.039 C 
ENDROOT
BRANCH   5   9
HETATM    9  C   UNK N   1      32.354  17.577   8.707  0.00  0.00     0.007 C 
HETATM   10  C   UNK N   1      31.081  17.760   8.298  0.00  0.00    -0.065 C 
HETATM   11  C   UNK N   1      30.508  17.112   7.074  0.00  0.00     0.048 C 
BRANCH  10  12
HETATM   12  C   UNK N   1      30.234  18.667   9.097  0.00  0.00    -0.004 C 
HETATM   13  C   UNK N   1      28.994  18.339   9.466  0.00  0.00     0.012 C 
ENDBRANCH  10  12
ENDBRANCH   5   9
BRANCH   4  14
HETATM   14  O   UNK N   1      35.223  17.881   9.557  0.00  0.00    -0.362 OA
HETATM   15  H   UNK N   1      34.983  18.389  10.307  0.00  0.00     0.217 HD
ENDBRANCH   4  14
TORSDOF 3
ENDMDL
MODEL 7
REMARK VINA RESULT:      -5.0      3.405      4.905
REMARK  3 active torsions:
REMARK  status: ('A' for Active; 'I' for Inactive)
REMARK    1  A    between atoms: C_4  and  O_12 
REMARK    2  A    between atoms: C_5  and  C_6 
REMARK    3  A    between atoms: C_7  and  C_8 
ROOT
HETATM    1  S   UNK N   1      21.863  12.451   9.021  0.00  0.00    -0.067 SA
HETATM    2  C   UNK N   1      21.694  12.339  10.788  0.00  0.00     0.218 A 
HETATM    3  C   UNK N   1      22.935  12.106  11.485  0.00  0.00     0.026 A 
HETATM    4  C   UNK N   1      23.984  12.061  10.675  0.00  0.00     0.076 A 
HETATM    5  C   UNK N   1      23.699  12.265   9.204  0.00  0.00     0.079 A 
HETATM    6  O   UNK N   1      20.616  12.439  11.352  0.00  0.00    -0.280 OA
HETATM    7  C   UNK N   1      23.023  11.918  12.967  0.00  0.00     0.056 C 
HETATM    8  C   UNK N   1      24.110  11.008   8.462  0.00  0.00     0.039 C 
ENDROOT
BRANCH   5   9
HETATM    9  C   UNK N   1      24.544  13.416   8.673  0.00  0.00     0.007 C 
HETATM   10  C   UNK N   1      24.694  13.912   7.428  0.00  0.00    -0.065 C 
HETATM   11  C   UNK N   1      23.938  13.399   6.240  0.00  0.00     0.048 C 
BRANCH  10  12
HETATM   12  C   UNK N   1      25.677  14.998   7.242  0.00  0.00    -0.004 C 
HETATM   13  C   UNK N   1      25.698  15.756   6.145  0.00  0.00     0.012 C 
ENDBRANCH  10  12
ENDBRANCH   5   9
BRANCH   4  14
HETATM   14  O   UNK N   1      25.232  11.836  11.138  0.00  0.00    -0.362 OA
HETATM   15  H   UNK N   1      25.716  12.284  11.804  0.00  0.00     0.217 HD
ENDBRANCH   4  14
TORSDOF 3
ENDMDL
MODEL 8
REMARK VINA RESULT:      -4.9     11.163     12.300
REMARK  3 active torsions:
REMARK  status: ('A' for Active; 'I' for Inactive)
REMARK    1  A    between atoms: C_4  and  O_12 
REMARK    2  A    between atoms: C_5  and  C_6 
REMARK    3  A    between atoms: C_7  and  C_8 
ROOT
HETATM    1  S   UNK N   1      34.990  15.408   7.579  0.00  0.00    -0.067 SA
HETATM    2  C   UNK N   1      34.099  16.944   7.493  0.00  0.00     0.218 A 
HETATM    3  C   UNK N   1      32.887  16.968   8.277  0.00  0.00     0.026 A 
HETATM    4  C   UNK N   1      32.686  15.846   8.953  0.00  0.00     0.076 A 
HETATM    5  C   UNK N   1      33.739  14.773   8.793  0.00  0.00     0.079 A 
HETATM    6  O   UNK N   1      34.478  17.887   6.818  0.00  0.00    -0.280 OA
HETATM    7  C   UNK N   1      31.950  18.134   8.306  0.00  0.00     0.056 C 
HETATM    8  C   UNK N   1      33.083  13.551   8.180  0.00  0.00     0.039 C 
ENDROOT
BRANCH   5   9
HETATM    9  C   UNK N   1      34.278  14.375  10.161  0.00  0.00     0.007 C 
HETATM   10  C   UNK N   1      34.989  15.066  11.075  0.00  0.00    -0.065 C 
HETATM   11  C   UNK N   1      35.362  16.508  10.910  0.00  0.00     0.048 C 
BRANCH  10  12
HETATM   12  C   UNK N   1      35.434  14.340  12.281  0.00  0.00    -0.004 C 
HETATM   13  C   UNK N   1      35.125  13.060  12.494  0.00  0.00     0.012 C 
ENDBRANCH  10  12
ENDBRANCH   5   9
BRANCH   4  14
HETATM   14  O   UNK N   1      31.597  15.670   9.732  0.00  0.00    -0.362 OA
HETATM   15  H   UNK N   1      31.518  15.679  10.665  0.00  0.00     0.217 HD
ENDBRANCH   4  14
TORSDOF 3
ENDMDL
MODEL 9
REMARK VINA RESULT:      -4.8      7.347      8.956
REMARK  3 active torsions:
REMARK  status: ('A' for Active; 'I' for Inactive)
REMARK    1  A    between atoms: C_4  and  O_12 
REMARK    2  A    between atoms: C_5  and  C_6 
REMARK    3  A    between atoms: C_7  and  C_8 
ROOT
HETATM    1  S   UNK N   1      29.752  17.651   4.983  0.00  0.00    -0.067 SA
HETATM    2  C   UNK N   1      28.802  16.747   3.781  0.00  0.00     0.218 A 
HETATM    3  C   UNK N   1      27.432  16.511   4.169  0.00  0.00     0.026 A 
HETATM    4  C   UNK N   1      27.124  17.053   5.339  0.00  0.00     0.076 A 
HETATM    5  C   UNK N   1      28.233  17.809   6.036  0.00  0.00     0.079 A 
HETATM    6  O   UNK N   1      29.278  16.353   2.728  0.00  0.00    -0.280 OA
HETATM    7  C   UNK N   1      26.468  15.721   3.341  0.00  0.00     0.056 C 
HETATM    8  C   UNK N   1      28.518  17.124   7.358  0.00  0.00     0.039 C 
ENDROOT
BRANCH   5   9
HETATM    9  C   UNK N   1      27.774  19.229   6.337  0.00  0.00     0.007 C 
HETATM   10  C   UNK N   1      27.430  20.248   5.522  0.00  0.00    -0.065 C 
HETATM   11  C   UNK N   1      27.382  20.127   4.029  0.00  0.00     0.048 C 
BRANCH  10  12
HETATM   12  C   UNK N   1      27.113  21.545   6.150  0.00  0.00    -0.004 C 
HETATM   13  C   UNK N   1      26.278  21.647   7.186  0.00  0.00     0.012 C 
ENDBRANCH  10  12
ENDBRANCH   5   9
BRANCH   4  14
HETATM   14  O   UNK N   1      25.894  16.926   5.880  0.00  0.00    -0.362 OA
HETATM   15  H   UNK N   1      25.578  17.189   6.722  0.00  0.00     0.217 HD
ENDBRANCH   4  14
TORSDOF 3
ENDMDL
