MODEL 1
REMARK VINA RESULT:      -6.1      0.000      0.000
REMARK  6 active torsions:
REMARK  status: ('A' for Active; 'I' for Inactive)
REMARK    1  A    between atoms: S_1  and  C_2 
REMARK    2  A    between atoms: C_2  and  C_3 
REMARK    3  A    between atoms: C_3  and  N_4 
REMARK       I    between atoms: N_4  and  C_5 
REMARK    4  A    between atoms: C_6  and  C_5 
REMARK    5  A    between atoms: N_7  and  S_8 
REMARK    6  A    between atoms: S_8  and  C_9 
ROOT
HETATM    1  C   UNK N   1      36.708  14.136  10.223  0.00  0.00     0.166 C 
HETATM    2  N   UNK N   1      36.537  13.147  11.331  0.00  0.00    -0.193 NA
HETATM    3  C   UNK N   1      37.725  12.292  11.300  0.00  0.00     0.109 C 
HETATM    4  C   UNK N   1      38.657  12.807  10.216  0.00  0.00     0.018 C 
HETATM    5  C   UNK N   1      38.197  14.221   9.977  0.00  0.00     0.031 C 
ENDROOT
BRANCH   2   6
HETATM    6  S   UNK N   1      36.238  13.606  13.052  0.00  0.00     0.244 S 
HETATM    7  O   UNK N   1      36.239  12.075  12.930  0.00  0.00    -0.206 OA
HETATM    8  O   UNK N   1      34.725  13.783  12.872  0.00  0.00    -0.206 OA
BRANCH   6   9
HETATM    9  C   UNK N   1      36.038  12.715  14.648  0.00  0.00     0.074 A 
HETATM   10  C   UNK N   1      36.711  11.490  14.895  0.00  0.00     0.025 A 
HETATM   11  C   UNK N   1      36.594  10.848  16.126  0.00  0.00     0.008 A 
HETATM   12  C   UNK N   1      35.792  11.398  17.124  0.00  0.00    -0.062 A 
HETATM   13  C   UNK N   1      35.090  12.586  16.886  0.00  0.00     0.008 A 
HETATM   14  C   UNK N   1      35.688  10.716  18.440  0.00  0.00     0.048 C 
HETATM   15  C   UNK N   1      35.207  13.242  15.654  0.00  0.00     0.025 A 
ENDBRANCH   6   9
ENDBRANCH   2   6
BRANCH   1  16
HETATM   16  C   UNK N   1      35.925  15.463  10.319  0.00  0.00     0.236 C 
HETATM   17  N   UNK N   1      34.608  15.609  10.019  0.00  0.00    -0.359 N 
HETATM   18  H   UNK N   1      34.241  16.522  10.063  0.00  0.00     0.162 HD
HETATM   19  O   UNK N   1      36.518  16.451  10.730  0.00  0.00    -0.272 OA
BRANCH  17  20
HETATM   20  C   UNK N   1      33.694  14.559   9.642  0.00  0.00     0.132 C 
BRANCH  20  21
HETATM   21  C   UNK N   1      32.410  15.181   9.113  0.00  0.00     0.090 C 
BRANCH  21  22
HETATM   22  S   UNK N   1      32.736  16.832   8.421  0.00  0.00    -0.181 SA
HETATM   23  H   UNK N   1      32.342  17.943   9.098  0.00  0.00     0.101 HD
ENDBRANCH  21  22
ENDBRANCH  20  21
ENDBRANCH  17  20
ENDBRANCH   1  16
TORSDOF 6
ENDMDL
MODEL 2
REMARK VINA RESULT:      -5.9      1.891      2.458
REMARK  6 active torsions:
REMARK  status: ('A' for Active; 'I' for Inactive)
REMARK    1  A    between atoms: S_1  and  C_2 
REMARK    2  A    between atoms: C_2  and  C_3 
REMARK    3  A    between atoms: C_3  and  N_4 
REMARK       I    between atoms: N_4  and  C_5 
REMARK    4  A    between atoms: C_6  and  C_5 
REMARK    5  A    between atoms: N_7  and  S_8 
REMARK    6  A    between atoms: S_8  and  C_9 
ROOT
HETATM    1  C   UNK N   1      35.741  12.788  11.150  0.00  0.00     0.166 C 
HETATM    2  N   UNK N   1      35.155  12.540  12.504  0.00  0.00    -0.193 NA
HETATM    3  C   UNK N   1      34.531  11.218  12.441  0.00  0.00     0.109 C 
HETATM    4  C   UNK N   1      34.801  10.627  11.067  0.00  0.00     0.018 C 
HETATM    5  C   UNK N   1      35.969  11.422  10.547  0.00  0.00     0.031 C 
ENDROOT
BRANCH   2   6
HETATM    6  S   UNK N   1      36.101  12.627  14.039  0.00  0.00     0.244 S 
HETATM    7  O   UNK N   1      34.620  12.388  14.370  0.00  0.00    -0.206 OA
HETATM    8  O   UNK N   1      36.044  14.157  14.133  0.00  0.00    -0.206 OA
BRANCH   6   9
HETATM    9  C   UNK N   1      35.746  12.411  15.831  0.00  0.00     0.074 A 
HETATM   10  C   UNK N   1      35.759  11.126  16.432  0.00  0.00     0.025 A 
HETATM   11  C   UNK N   1      35.539  10.977  17.800  0.00  0.00     0.008 A 
HETATM   12  C   UNK N   1      35.282  12.096  18.589  0.00  0.00    -0.062 A 
HETATM   13  C   UNK N   1      35.228  13.368  18.008  0.00  0.00     0.008 A 
HETATM   14  C   UNK N   1      35.068  11.929  20.051  0.00  0.00     0.048 C 
HETATM   15  C   UNK N   1      35.455  13.529  16.635  0.00  0.00     0.025 A 
ENDBRANCH   6   9
ENDBRANCH   2   6
BRANCH   1  16
HETATM   16  C   UNK N   1      36.887  13.815  11.042  0.00  0.00     0.236 C 
HETATM   17  N   UNK N   1      36.728  15.164  11.089  0.00  0.00    -0.359 N 
HETATM   18  H   UNK N   1      37.533  15.712  10.947  0.00  0.00     0.162 HD
HETATM   19  O   UNK N   1      38.031  13.391  10.945  0.00  0.00    -0.272 OA
BRANCH  17  20
HETATM   20  C   UNK N   1      35.494  15.873  11.325  0.00  0.00     0.132 C 
BRANCH  20  21
HETATM   21  C   UNK N   1      35.277  16.884  10.210  0.00  0.00     0.090 C 
BRANCH  21  22
HETATM   22  S   UNK N   1      33.965  16.320   9.082  0.00  0.00    -0.181 SA
HETATM   23  H   UNK N   1      33.565  17.115   8.053  0.00  0.00     0.101 HD
ENDBRANCH  21  22
ENDBRANCH  20  21
ENDBRANCH  17  20
ENDBRANCH   1  16
TORSDOF 6
ENDMDL
MODEL 3
REMARK VINA RESULT:      -5.6      8.401     12.099
REMARK  6 active torsions:
REMARK  status: ('A' for Active; 'I' for Inactive)
REMARK    1  A    between atoms: S_1  and  C_2 
REMARK    2  A    between atoms: C_2  and  C_3 
REMARK    3  A    between atoms: C_3  and  N_4 
REMARK       I    between atoms: N_4  and  C_5 
REMARK    4  A    between atoms: C_6  and  C_5 
REMARK    5  A    between atoms: N_7  and  S_8 
REMARK    6  A    between atoms: S_8  and  C_9 
ROOT
HETATM    1  C   UNK N   1      30.827  17.119   8.008  0.00  0.00     0.166 C 
HETATM    2  N   UNK N   1      29.494  17.088   7.330  0.00  0.00    -0.193 NA
HETATM    3  C   UNK N   1      28.579  17.828   8.200  0.00  0.00     0.109 C 
HETATM    4  C   UNK N   1      29.372  18.373   9.376  0.00  0.00     0.018 C 
HETATM    5  C   UNK N   1      30.801  18.335   8.905  0.00  0.00     0.031 C 
ENDROOT
BRANCH   2   6
HETATM    6  S   UNK N   1      29.214  17.649   5.637  0.00  0.00     0.244 S 
HETATM    7  O   UNK N   1      27.947  17.900   6.470  0.00  0.00    -0.206 OA
HETATM    8  O   UNK N   1      28.796  16.268   5.117  0.00  0.00    -0.206 OA
BRANCH   6   9
HETATM    9  C   UNK N   1      27.862  18.503   4.729  0.00  0.00     0.074 A 
HETATM   10  C   UNK N   1      26.816  17.772   4.110  0.00  0.00     0.025 A 
HETATM   11  C   UNK N   1      25.769  18.429   3.467  0.00  0.00     0.008 A 
HETATM   12  C   UNK N   1      25.753  19.822   3.410  0.00  0.00    -0.062 A 
HETATM   13  C   UNK N   1      26.796  20.561   3.982  0.00  0.00     0.008 A 
HETATM   14  C   UNK N   1      24.623  20.515   2.739  0.00  0.00     0.048 C 
HETATM   15  C   UNK N   1      27.849  19.908   4.636  0.00  0.00     0.025 A 
ENDBRANCH   6   9
ENDBRANCH   2   6
BRANCH   1  16
HETATM   16  C   UNK N   1      32.081  16.905   7.134  0.00  0.00     0.236 C 
HETATM   17  N   UNK N   1      32.383  15.753   6.479  0.00  0.00    -0.359 N 
HETATM   18  H   UNK N   1      33.244  15.724   6.004  0.00  0.00     0.162 HD
HETATM   19  O   UNK N   1      32.844  17.849   6.984  0.00  0.00    -0.272 OA
BRANCH  17  20
HETATM   20  C   UNK N   1      31.565  14.566   6.413  0.00  0.00     0.132 C 
BRANCH  20  21
HETATM   21  C   UNK N   1      31.775  13.889   5.067  0.00  0.00     0.090 C 
BRANCH  21  22
HETATM   22  S   UNK N   1      31.981  15.130   3.752  0.00  0.00    -0.181 SA
HETATM   23  H   UNK N   1      33.135  15.175   3.034  0.00  0.00     0.101 HD
ENDBRANCH  21  22
ENDBRANCH  20  21
ENDBRANCH  17  20
ENDBRANCH   1  16
TORSDOF 6
ENDMDL
MODEL 4
REMARK VINA RESULT:      -5.5     19.893     22.701
REMARK  6 active torsions:
REMARK  status: ('A' for Active; 'I' for Inactive)
REMARK    1  A    between atoms: S_1  and  C_2 
REMARK    2  A    between atoms: C_2  and  C_3 
REMARK    3  A    between atoms: C_3  and  N_4 
REMARK       I    between atoms: N_4  and  C_5 
REMARK    4  A    between atoms: C_6  and  C_5 
REMARK    5  A    between atoms: N_7  and  S_8 
REMARK    6  A    between atoms: S_8  and  C_9 
ROOT
HETATM    1  C   UNK N   1      25.672  26.696  -4.858  0.00  0.00     0.166 C 
HETATM    2  N   UNK N   1      26.084  25.273  -4.656  0.00  0.00    -0.193 NA
HETATM    3  C   UNK N   1      26.017  24.639  -5.973  0.00  0.00     0.109 C 
HETATM    4  C   UNK N   1      25.632  25.698  -6.994  0.00  0.00     0.018 C 
HETATM    5  C   UNK N   1      25.952  27.000  -6.311  0.00  0.00     0.031 C 
ENDROOT
BRANCH   2   6
HETATM    6  S   UNK N   1      27.641  24.777  -3.889  0.00  0.00     0.244 S 
HETATM    7  O   UNK N   1      27.226  23.718  -4.921  0.00  0.00    -0.206 OA
HETATM    8  O   UNK N   1      26.975  24.100  -2.684  0.00  0.00    -0.206 OA
BRANCH   6   9
HETATM    9  C   UNK N   1      28.852  23.410  -4.106  0.00  0.00     0.074 A 
HETATM   10  C   UNK N   1      29.556  22.868  -3.000  0.00  0.00     0.025 A 
HETATM   11  C   UNK N   1      30.432  21.799  -3.166  0.00  0.00     0.008 A 
HETATM   12  C   UNK N   1      30.642  21.262  -4.435  0.00  0.00    -0.062 A 
HETATM   13  C   UNK N   1      29.986  21.806  -5.545  0.00  0.00     0.008 A 
HETATM   14  C   UNK N   1      31.565  20.109  -4.600  0.00  0.00     0.048 C 
HETATM   15  C   UNK N   1      29.096  22.877  -5.386  0.00  0.00     0.025 A 
ENDBRANCH   6   9
ENDBRANCH   2   6
BRANCH   1  16
HETATM   16  C   UNK N   1      26.134  27.732  -3.812  0.00  0.00     0.236 C 
HETATM   17  N   UNK N   1      27.258  28.489  -3.912  0.00  0.00    -0.359 N 
HETATM   18  H   UNK N   1      27.473  29.070  -3.147  0.00  0.00     0.162 HD
HETATM   19  O   UNK N   1      25.419  27.920  -2.836  0.00  0.00    -0.272 OA
BRANCH  17  20
HETATM   20  C   UNK N   1      28.170  28.523  -5.030  0.00  0.00     0.132 C 
BRANCH  20  21
HETATM   21  C   UNK N   1      28.103  29.893  -5.687  0.00  0.00     0.090 C 
BRANCH  21  22
HETATM   22  S   UNK N   1      29.445  30.087  -6.901  0.00  0.00    -0.181 SA
HETATM   23  H   UNK N   1      29.726  31.314  -7.414  0.00  0.00     0.101 HD
ENDBRANCH  21  22
ENDBRANCH  20  21
ENDBRANCH  17  20
ENDBRANCH   1  16
TORSDOF 6
ENDMDL
MODEL 5
REMARK VINA RESULT:      -5.5     15.799     17.406
REMARK  6 active torsions:
REMARK  status: ('A' for Active; 'I' for Inactive)
REMARK    1  A    between atoms: S_1  and  C_2 
REMARK    2  A    between atoms: C_2  and  C_3 
REMARK    3  A    between atoms: C_3  and  N_4 
REMARK       I    between atoms: N_4  and  C_5 
REMARK    4  A    between atoms: C_6  and  C_5 
REMARK    5  A    between atoms: N_7  and  S_8 
REMARK    6  A    between atoms: S_8  and  C_9 
ROOT
HETATM    1  C   UNK N   1      21.141  18.192   2.731  0.00  0.00     0.166 C 
HETATM    2  N   UNK N   1      21.526  17.190   3.772  0.00  0.00    -0.193 NA
HETATM    3  C   UNK N   1      22.743  17.706   4.402  0.00  0.00     0.109 C 
HETATM    4  C   UNK N   1      23.059  19.063   3.793  0.00  0.00     0.018 C 
HETATM    5  C   UNK N   1      21.758  19.499   3.173  0.00  0.00     0.031 C 
ENDROOT
BRANCH   2   6
HETATM    6  S   UNK N   1      20.423  16.632   5.087  0.00  0.00     0.244 S 
HETATM    7  O   UNK N   1      21.821  16.038   5.314  0.00  0.00    -0.206 OA
HETATM    8  O   UNK N   1      19.869  15.446   4.289  0.00  0.00    -0.206 OA
BRANCH   6   9
HETATM    9  C   UNK N   1      20.588  15.639   6.626  0.00  0.00     0.074 A 
HETATM   10  C   UNK N   1      20.272  16.191   7.895  0.00  0.00     0.025 A 
HETATM   11  C   UNK N   1      20.351  15.416   9.050  0.00  0.00     0.008 A 
HETATM   12  C   UNK N   1      20.765  14.088   8.969  0.00  0.00    -0.062 A 
HETATM   13  C   UNK N   1      21.118  13.536   7.732  0.00  0.00     0.008 A 
HETATM   14  C   UNK N   1      20.829  13.263  10.204  0.00  0.00     0.048 C 
HETATM   15  C   UNK N   1      21.034  14.305   6.564  0.00  0.00     0.025 A 
ENDBRANCH   6   9
ENDBRANCH   2   6
BRANCH   1  16
HETATM   16  C   UNK N   1      19.668  18.220   2.272  0.00  0.00     0.236 C 
HETATM   17  N   UNK N   1      19.182  17.570   1.182  0.00  0.00    -0.359 N 
HETATM   18  H   UNK N   1      18.234  17.717   0.962  0.00  0.00     0.162 HD
HETATM   19  O   UNK N   1      18.864  18.838   2.958  0.00  0.00    -0.272 OA
BRANCH  17  20
HETATM   20  C   UNK N   1      19.921  16.687   0.313  0.00  0.00     0.132 C 
BRANCH  20  21
HETATM   21  C   UNK N   1      19.785  15.259   0.819  0.00  0.00     0.090 C 
BRANCH  21  22
HETATM   22  S   UNK N   1      21.424  14.521   1.099  0.00  0.00    -0.181 SA
HETATM   23  H   UNK N   1      21.624  13.687   2.155  0.00  0.00     0.101 HD
ENDBRANCH  21  22
ENDBRANCH  20  21
ENDBRANCH  17  20
ENDBRANCH   1  16
TORSDOF 6
ENDMDL
MODEL 6
REMARK VINA RESULT:      -5.3     23.671     25.458
REMARK  6 active torsions:
REMARK  status: ('A' for Active; 'I' for Inactive)
REMARK    1  A    between atoms: S_1  and  C_2 
REMARK    2  A    between atoms: C_2  and  C_3 
REMARK    3  A    between atoms: C_3  and  N_4 
REMARK       I    between atoms: N_4  and  C_5 
REMARK    4  A    between atoms: C_6  and  C_5 
REMARK    5  A    between atoms: N_7  and  S_8 
REMARK    6  A    between atoms: S_8  and  C_9 
ROOT
HETATM    1  C   UNK N   1      26.205  24.045  -9.275  0.00  0.00     0.166 C 
HETATM    2  N   UNK N   1      26.783  25.181  -8.493  0.00  0.00    -0.193 NA
HETATM    3  C   UNK N   1      26.829  26.322  -9.407  0.00  0.00     0.109 C 
HETATM    4  C   UNK N   1      26.209  25.902 -10.729  0.00  0.00     0.018 C 
HETATM    5  C   UNK N   1      25.399  24.681 -10.384  0.00  0.00     0.031 C 
ENDROOT
BRANCH   2   6
HETATM    6  S   UNK N   1      26.112  25.763  -6.921  0.00  0.00     0.244 S 
HETATM    7  O   UNK N   1      27.155  26.769  -7.430  0.00  0.00    -0.206 OA
HETATM    8  O   UNK N   1      27.082  24.944  -6.061  0.00  0.00    -0.206 OA
BRANCH   6   9
HETATM    9  C   UNK N   1      26.299  27.261  -5.872  0.00  0.00     0.074 A 
HETATM   10  C   UNK N   1      25.519  27.440  -4.700  0.00  0.00     0.025 A 
HETATM   11  C   UNK N   1      25.704  28.553  -3.883  0.00  0.00     0.008 A 
HETATM   12  C   UNK N   1      26.650  29.518  -4.226  0.00  0.00    -0.062 A 
HETATM   13  C   UNK N   1      27.404  29.378  -5.397  0.00  0.00     0.008 A 
HETATM   14  C   UNK N   1      26.853  30.693  -3.338  0.00  0.00     0.048 C 
HETATM   15  C   UNK N   1      27.230  28.258  -6.220  0.00  0.00     0.025 A 
ENDBRANCH   6   9
ENDBRANCH   2   6
BRANCH   1  16
HETATM   16  C   UNK N   1      25.548  22.892  -8.488  0.00  0.00     0.236 C 
HETATM   17  N   UNK N   1      26.227  21.911  -7.836  0.00  0.00    -0.359 N 
HETATM   18  H   UNK N   1      25.689  21.199  -7.422  0.00  0.00     0.162 HD
HETATM   19  O   UNK N   1      24.327  22.875  -8.407  0.00  0.00    -0.272 OA
BRANCH  17  20
HETATM   20  C   UNK N   1      27.658  21.811  -7.694  0.00  0.00     0.132 C 
BRANCH  20  21
HETATM   21  C   UNK N   1      28.188  20.780  -8.679  0.00  0.00     0.090 C 
BRANCH  21  22
HETATM   22  S   UNK N   1      29.181  19.522  -7.816  0.00  0.00    -0.181 SA
HETATM   23  H   UNK N   1      29.820  18.555  -8.527  0.00  0.00     0.101 HD
ENDBRANCH  21  22
ENDBRANCH  20  21
ENDBRANCH  17  20
ENDBRANCH   1  16
TORSDOF 6
ENDMDL
MODEL 7
REMARK VINA RESULT:      -5.2      4.376      9.418
REMARK  6 active torsions:
REMARK  status: ('A' for Active; 'I' for Inactive)
REMARK    1  A    between atoms: S_1  and  C_2 
REMARK    2  A    between atoms: C_2  and  C_3 
REMARK    3  A    between atoms: C_3  and  N_4 
REMARK       I    between atoms: N_4  and  C_5 
REMARK    4  A    between atoms: C_6  and  C_5 
REMARK    5  A    between atoms: N_7  and  S_8 
REMARK    6  A    between atoms: S_8  and  C_9 
ROOT
HETATM    1  C   UNK N   1      33.917  14.969   7.838  0.00  0.00     0.166 C 
HETATM    2  N   UNK N   1      33.099  16.184   7.535  0.00  0.00    -0.193 NA
HETATM    3  C   UNK N   1      33.546  16.658   6.224  0.00  0.00     0.109 C 
HETATM    4  C   UNK N   1      34.587  15.686   5.693  0.00  0.00     0.018 C 
HETATM    5  C   UNK N   1      34.365  14.433   6.498  0.00  0.00     0.031 C 
ENDROOT
BRANCH   2   6
HETATM    6  S   UNK N   1      31.294  16.208   7.541  0.00  0.00     0.244 S 
HETATM    7  O   UNK N   1      31.816  17.541   6.984  0.00  0.00    -0.206 OA
HETATM    8  O   UNK N   1      31.181  16.673   8.998  0.00  0.00    -0.206 OA
BRANCH   6   9
HETATM    9  C   UNK N   1      29.980  17.362   6.974  0.00  0.00     0.074 A 
HETATM   10  C   UNK N   1      29.666  17.498   5.597  0.00  0.00     0.025 A 
HETATM   11  C   UNK N   1      28.635  18.337   5.179  0.00  0.00     0.008 A 
HETATM   12  C   UNK N   1      27.913  19.070   6.118  0.00  0.00    -0.062 A 
HETATM   13  C   UNK N   1      28.232  18.979   7.478  0.00  0.00     0.008 A 
HETATM   14  C   UNK N   1      26.802  19.948   5.666  0.00  0.00     0.048 C 
HETATM   15  C   UNK N   1      29.262  18.133   7.907  0.00  0.00     0.025 A 
ENDBRANCH   6   9
ENDBRANCH   2   6
BRANCH   1  16
HETATM   16  C   UNK N   1      33.349  13.957   8.856  0.00  0.00     0.236 C 
HETATM   17  N   UNK N   1      33.555  14.008  10.198  0.00  0.00    -0.359 N 
HETATM   18  H   UNK N   1      33.188  13.268  10.732  0.00  0.00     0.162 HD
HETATM   19  O   UNK N   1      32.627  13.063   8.434  0.00  0.00    -0.272 OA
BRANCH  17  20
HETATM   20  C   UNK N   1      34.261  15.040  10.917  0.00  0.00     0.132 C 
BRANCH  20  21
HETATM   21  C   UNK N   1      35.656  14.543  11.263  0.00  0.00     0.090 C 
BRANCH  21  22
HETATM   22  S   UNK N   1      35.704  13.902  12.965  0.00  0.00    -0.181 SA
HETATM   23  H   UNK N   1      35.047  12.752  13.278  0.00  0.00     0.101 HD
ENDBRANCH  21  22
ENDBRANCH  20  21
ENDBRANCH  17  20
ENDBRANCH   1  16
TORSDOF 6
ENDMDL
MODEL 8
REMARK VINA RESULT:      -5.2      2.876      4.462
REMARK  6 active torsions:
REMARK  status: ('A' for Active; 'I' for Inactive)
REMARK    1  A    between atoms: S_1  and  C_2 
REMARK    2  A    between atoms: C_2  and  C_3 
REMARK    3  A    between atoms: C_3  and  N_4 
REMARK       I    between atoms: N_4  and  C_5 
REMARK    4  A    between atoms: C_6  and  C_5 
REMARK    5  A    between atoms: N_7  and  S_8 
REMARK    6  A    between atoms: S_8  and  C_9 
ROOT
HETATM    1  C   UNK N   1      33.790  16.020   6.923  0.00  0.00     0.166 C 
HETATM    2  N   UNK N   1      34.192  14.973   7.913  0.00  0.00    -0.193 NA
HETATM    3  C   UNK N   1      34.757  13.872   7.132  0.00  0.00     0.109 C 
HETATM    4  C   UNK N   1      34.766  14.278   5.668  0.00  0.00     0.018 C 
HETATM    5  C   UNK N   1      34.647  15.779   5.702  0.00  0.00     0.031 C 
ENDROOT
BRANCH   2   6
HETATM    6  S   UNK N   1      35.297  15.280   9.307  0.00  0.00     0.244 S 
HETATM    7  O   UNK N   1      34.590  13.931   9.509  0.00  0.00    -0.206 OA
HETATM    8  O   UNK N   1      34.279  16.117  10.091  0.00  0.00    -0.206 OA
BRANCH   6   9
HETATM    9  C   UNK N   1      35.832  14.357  10.805  0.00  0.00     0.074 A 
HETATM   10  C   UNK N   1      36.422  13.071  10.704  0.00  0.00     0.025 A 
HETATM   11  C   UNK N   1      36.870  12.400  11.840  0.00  0.00     0.008 A 
HETATM   12  C   UNK N   1      36.722  12.985  13.096  0.00  0.00    -0.062 A 
HETATM   13  C   UNK N   1      36.108  14.237  13.221  0.00  0.00     0.008 A 
HETATM   14  C   UNK N   1      37.220  12.271  14.301  0.00  0.00     0.048 C 
HETATM   15  C   UNK N   1      35.661  14.921  12.083  0.00  0.00     0.025 A 
ENDBRANCH   6   9
ENDBRANCH   2   6
BRANCH   1  16
HETATM   16  C   UNK N   1      33.662  17.473   7.427  0.00  0.00     0.236 C 
HETATM   17  N   UNK N   1      32.602  17.962   8.122  0.00  0.00    -0.359 N 
HETATM   18  H   UNK N   1      32.614  18.923   8.334  0.00  0.00     0.162 HD
HETATM   19  O   UNK N   1      34.597  18.236   7.224  0.00  0.00    -0.272 OA
BRANCH  17  20
HETATM   20  C   UNK N   1      31.458  17.212   8.580  0.00  0.00     0.132 C 
BRANCH  20  21
HETATM   21  C   UNK N   1      30.200  17.778   7.939  0.00  0.00     0.090 C 
BRANCH  21  22
HETATM   22  S   UNK N   1      28.846  17.864   9.152  0.00  0.00    -0.181 SA
HETATM   23  H   UNK N   1      28.421  16.734   9.778  0.00  0.00     0.101 HD
ENDBRANCH  21  22
ENDBRANCH  20  21
ENDBRANCH  17  20
ENDBRANCH   1  16
TORSDOF 6
ENDMDL
MODEL 9
REMARK VINA RESULT:      -5.2     14.435     16.072
REMARK  6 active torsions:
REMARK  status: ('A' for Active; 'I' for Inactive)
REMARK    1  A    between atoms: S_1  and  C_2 
REMARK    2  A    between atoms: C_2  and  C_3 
REMARK    3  A    between atoms: C_3  and  N_4 
REMARK       I    between atoms: N_4  and  C_5 
REMARK    4  A    between atoms: C_6  and  C_5 
REMARK    5  A    between atoms: N_7  and  S_8 
REMARK    6  A    between atoms: S_8  and  C_9 
ROOT
HETATM    1  C   UNK N   1      20.475  17.558   4.018  0.00  0.00     0.166 C 
HETATM    2  N   UNK N   1      20.201  16.625   5.153  0.00  0.00    -0.193 NA
HETATM    3  C   UNK N   1      19.812  15.351   4.547  0.00  0.00     0.109 C 
HETATM    4  C   UNK N   1      19.920  15.486   3.037  0.00  0.00     0.018 C 
HETATM    5  C   UNK N   1      20.818  16.678   2.838  0.00  0.00     0.031 C 
ENDROOT
BRANCH   2   6
HETATM    6  S   UNK N   1      21.386  16.267   6.468  0.00  0.00     0.244 S 
HETATM    7  O   UNK N   1      20.187  15.314   6.593  0.00  0.00    -0.206 OA
HETATM    8  O   UNK N   1      20.841  17.339   7.420  0.00  0.00    -0.206 OA
BRANCH   6   9
HETATM    9  C   UNK N   1      21.541  15.020   7.811  0.00  0.00     0.074 A 
HETATM   10  C   UNK N   1      22.643  14.128   7.862  0.00  0.00     0.025 A 
HETATM   11  C   UNK N   1      22.779  13.221   8.910  0.00  0.00     0.008 A 
HETATM   12  C   UNK N   1      21.814  13.169   9.915  0.00  0.00    -0.062 A 
HETATM   13  C   UNK N   1      20.701  14.015   9.863  0.00  0.00     0.008 A 
HETATM   14  C   UNK N   1      21.978  12.212  11.040  0.00  0.00     0.048 C 
HETATM   15  C   UNK N   1      20.559  14.936   8.816  0.00  0.00     0.025 A 
ENDBRANCH   6   9
ENDBRANCH   2   6
BRANCH   1  16
HETATM   16  C   UNK N   1      21.389  18.771   4.291  0.00  0.00     0.236 C 
HETATM   17  N   UNK N   1      22.748  18.737   4.282  0.00  0.00    -0.359 N 
HETATM   18  H   UNK N   1      23.216  19.566   4.531  0.00  0.00     0.162 HD
HETATM   19  O   UNK N   1      20.859  19.856   4.493  0.00  0.00    -0.272 OA
BRANCH  17  20
HETATM   20  C   UNK N   1      23.573  17.603   3.942  0.00  0.00     0.132 C 
BRANCH  20  21
HETATM   21  C   UNK N   1      25.031  17.953   4.195  0.00  0.00     0.090 C 
BRANCH  21  22
HETATM   22  S   UNK N   1      25.307  19.740   3.984  0.00  0.00    -0.181 SA
HETATM   23  H   UNK N   1      24.466  20.470   3.205  0.00  0.00     0.101 HD
ENDBRANCH  21  22
ENDBRANCH  20  21
ENDBRANCH  17  20
ENDBRANCH   1  16
TORSDOF 6
ENDMDL
