REMARK  6 active torsions:
REMARK  status: ('A' for Active; 'I' for Inactive)
REMARK    1  A    between atoms: S_1  and  C_2 
REMARK    2  A    between atoms: C_2  and  C_3 
REMARK    3  A    between atoms: C_3  and  N_4 
REMARK       I    between atoms: N_4  and  C_5 
REMARK    4  A    between atoms: C_6  and  C_5 
REMARK    5  A    between atoms: N_7  and  S_8 
REMARK    6  A    between atoms: S_8  and  C_9 
ROOT
HETATM    1  C   UNK N   1      -0.444  -2.197   0.594  0.00  0.00     0.166 C 
HETATM    2  N   UNK N   1       0.986  -1.925   0.251  0.00  0.00    -0.193 NA
HETATM    3  C   UNK N   1       1.519  -3.176  -0.290  0.00  0.00     0.109 C 
HETATM    4  C   UNK N   1       0.391  -4.193  -0.345  0.00  0.00     0.018 C 
HETATM    5  C   UNK N   1      -0.860  -3.358  -0.279  0.00  0.00     0.031 C 
ENDROOT
BRANCH   2   6
HETATM    6  S   UNK N   1       1.522  -0.586  -0.835  0.00  0.00     0.244 S 
HETATM    7  O   UNK N   1       1.311  -0.034   0.583  0.00  0.00    -0.206 OA
HETATM    8  O   UNK N   1       0.111  -0.268  -1.345  0.00  0.00    -0.206 OA
BRANCH   6   9
HETATM    9  C   UNK N   1       1.952   1.191  -0.638  0.00  0.00     0.074 A 
HETATM   10  C   UNK N   1       0.955   2.199  -0.694  0.00  0.00     0.025 A 
HETATM   11  C   UNK N   1       1.282   3.538  -0.493  0.00  0.00     0.008 A 
HETATM   12  C   UNK N   1       2.606   3.902  -0.254  0.00  0.00    -0.062 A 
HETATM   13  C   UNK N   1       3.610   2.927  -0.232  0.00  0.00     0.008 A 
HETATM   14  C   UNK N   1       2.943   5.331  -0.022  0.00  0.00     0.048 C 
HETATM   15  C   UNK N   1       3.289   1.577  -0.426  0.00  0.00     0.025 A 
ENDBRANCH   6   9
ENDBRANCH   2   6
BRANCH   1  16
HETATM   16  C   UNK N   1      -1.403  -0.991   0.680  0.00  0.00     0.236 C 
HETATM   17  N   UNK N   1      -2.604  -0.908   0.049  0.00  0.00    -0.359 N 
HETATM   18  H   UNK N   1      -3.094  -0.059   0.136  0.00  0.00     0.162 HD
HETATM   19  O   UNK N   1      -1.083  -0.053   1.398  0.00  0.00    -0.272 OA
BRANCH  17  20
HETATM   20  C   UNK N   1      -3.231  -1.942  -0.737  0.00  0.00     0.132 C 
BRANCH  20  21
HETATM   21  C   UNK N   1      -4.551  -2.331  -0.089  0.00  0.00     0.090 C 
BRANCH  21  22
HETATM   22  S   UNK N   1      -5.719  -0.936  -0.128  0.00  0.00    -0.181 SA
HETATM   23  H   UNK N   1      -5.253   0.341  -0.157  0.00  0.00     0.101 HD
ENDBRANCH  21  22
ENDBRANCH  20  21
ENDBRANCH  17  20
ENDBRANCH   1  16
TORSDOF 6
