REMARK  11 active torsions:
REMARK  status: ('A' for Active; 'I' for Inactive)
REMARK    1  A    between atoms: P_1  and  O_2 
REMARK    2  A    between atoms: P_1  and  O_3 
REMARK    3  A    between atoms: P_1  and  C_5 
REMARK    4  A    between atoms: C_5  and  C_9 
REMARK    5  A    between atoms: C_13  and  C_18 
REMARK       I    between atoms: C_18  and  N_20 
REMARK    6  A    between atoms: C_21  and  N_20 
REMARK    7  A    between atoms: C_21  and  C_22 
REMARK    8  A    between atoms: C_21  and  C_25 
REMARK       I    between atoms: C_22  and  N_23 
REMARK    9  A    between atoms: C_25  and  C_26 
REMARK   10  A    between atoms: C_26  and  C_27 
REMARK   11  A    between atoms: C_27  and  O_29 
ROOT
HETATM    1  C   UNK N   1      -2.554  -1.381  -1.267  0.00  0.00     0.026 A 
HETATM    2  C   UNK N   1      -3.882  -0.996  -0.976  0.00  0.00     0.026 A 
HETATM    3  C   UNK N   1      -4.137   0.283  -0.466  0.00  0.00     0.015 A 
HETATM    4  C   UNK N   1      -3.088   1.139  -0.157  0.00  0.00     0.013 A 
HETATM    5  C   UNK N   1      -0.760   1.458   0.224  0.00  0.00     0.029 A 
HETATM    6  C   UNK N   1       0.566   1.007   0.215  0.00  0.00     0.032 A 
HETATM    7  C   UNK N   1       0.874  -0.173  -0.483  0.00  0.00     0.018 A 
HETATM    8  C   UNK N   1      -0.155  -0.934  -1.074  0.00  0.00     0.013 A 
HETATM    9  C   UNK N   1      -1.493  -0.524  -0.938  0.00  0.00    -0.025 A 
HETATM   10  C   UNK N   1      -1.776   0.717  -0.340  0.00  0.00    -0.025 A 
ENDROOT
BRANCH   6  11
HETATM   11  C   UNK N   1       1.420   1.540   1.321  0.00  0.00     0.252 C 
HETATM   12  O   UNK N   1       0.834   2.023   2.271  0.00  0.00    -0.268 OA
HETATM   13  N   UNK N   1       2.779   1.452   1.425  0.00  0.00    -0.344 N 
HETATM   14  H   UNK N   1       3.109   1.484   2.352  0.00  0.00     0.163 HD
BRANCH  13  15
HETATM   15  C   UNK N   1       3.823   1.321   0.439  0.00  0.00     0.177 C 
BRANCH  15  16
HETATM   16  C   UNK N   1       3.907   2.591  -0.383  0.00  0.00     0.238 C 
HETATM   17  N   UNK N   1       4.951   2.800  -1.206  0.00  0.00    -0.368 N 
HETATM   18  H   UNK N   1       5.465   2.216  -1.808  0.00  0.00     0.159 HD
HETATM   19  H   UNK N   1       5.265   3.733  -1.206  0.00  0.00     0.159 HD
HETATM   20  O   UNK N   1       3.066   3.470  -0.250  0.00  0.00    -0.271 OA
ENDBRANCH  15  16
BRANCH  15  21
HETATM   21  C   UNK N   1       3.756   0.039  -0.397  0.00  0.00     0.045 C 
BRANCH  21  22
HETATM   22  C   UNK N   1       5.005  -0.158  -1.263  0.00  0.00     0.112 C 
BRANCH  22  23
HETATM   23  C   UNK N   1       6.229  -0.368  -0.423  0.00  0.00     0.139 C 
HETATM   24  O   UNK N   1       7.128   0.457  -0.439  0.00  0.00    -0.650 OA
BRANCH  23  25
HETATM   25  O   UNK N   1       6.328  -1.453   0.366  0.00  0.00    -0.776 OA
HETATM   26  H   UNK N   1       5.709  -1.891   0.916  0.00  0.00     0.167 HD
ENDBRANCH  23  25
ENDBRANCH  22  23
ENDBRANCH  21  22
ENDBRANCH  15  21
ENDBRANCH  13  15
ENDBRANCH   6  11
BRANCH   2  27
HETATM   27  C   UNK N   1      -5.022  -1.970  -1.090  0.00  0.00     0.364 C 
HETATM   28  F   UNK N   1      -4.596  -3.163  -1.646  0.00  0.00    -0.187 F 
HETATM   29  F   UNK N   1      -6.020  -1.434  -1.881  0.00  0.00    -0.187 F 
BRANCH  27  30
HETATM   30  P   UNK N   1      -5.714  -2.348   0.618  0.00  0.00     0.315 P 
HETATM   31  O   UNK N   1      -6.229  -1.069   1.331  0.00  0.00    -0.649 OA
BRANCH  30  32
HETATM   32  O   UNK N   1      -7.086  -3.410   0.626  0.00  0.00    -0.325 OA
HETATM   33  H   UNK N   1      -7.983  -3.043   0.630  0.00  0.00     0.220 HD
ENDBRANCH  30  32
BRANCH  30  34
HETATM   34  O   UNK N   1      -4.572  -3.020   1.742  0.00  0.00    -0.325 OA
HETATM   35  H   UNK N   1      -4.578  -3.760   2.369  0.00  0.00     0.220 HD
ENDBRANCH  30  34
ENDBRANCH  27  30
ENDBRANCH   2  27
TORSDOF 11
