MODEL 1
REMARK VINA RESULT:      -7.6      0.000      0.000
REMARK  11 active torsions:
REMARK  status: ('A' for Active; 'I' for Inactive)
REMARK    1  A    between atoms: P_1  and  O_2 
REMARK    2  A    between atoms: P_1  and  O_3 
REMARK    3  A    between atoms: P_1  and  C_5 
REMARK    4  A    between atoms: C_5  and  C_9 
REMARK    5  A    between atoms: C_13  and  C_18 
REMARK       I    between atoms: C_18  and  N_20 
REMARK    6  A    between atoms: C_21  and  N_20 
REMARK    7  A    between atoms: C_21  and  C_22 
REMARK    8  A    between atoms: C_21  and  C_25 
REMARK       I    between atoms: C_22  and  N_23 
REMARK    9  A    between atoms: C_25  and  C_26 
REMARK   10  A    between atoms: C_26  and  C_27 
REMARK   11  A    between atoms: C_27  and  O_29 
ROOT
HETATM    1  C   UNK N   1      35.025  10.464  18.203  0.00  0.00     0.026 A 
HETATM    2  C   UNK N   1      35.171  10.921  19.532  0.00  0.00     0.026 A 
HETATM    3  C   UNK N   1      35.220  12.296  19.791  0.00  0.00     0.015 A 
HETATM    4  C   UNK N   1      35.221  13.209  18.745  0.00  0.00     0.013 A 
HETATM    5  C   UNK N   1      35.468  13.645  16.418  0.00  0.00     0.029 A 
HETATM    6  C   UNK N   1      35.610  13.221  15.090  0.00  0.00     0.032 A 
HETATM    7  C   UNK N   1      35.350  11.876  14.779  0.00  0.00     0.018 A 
HETATM    8  C   UNK N   1      35.052  10.957  15.805  0.00  0.00     0.013 A 
HETATM    9  C   UNK N   1      35.044  11.385  17.145  0.00  0.00    -0.025 A 
HETATM   10  C   UNK N   1      35.189  12.754  17.432  0.00  0.00    -0.025 A 
ENDROOT
BRANCH   6  11
HETATM   11  C   UNK N   1      36.470  14.099  14.238  0.00  0.00     0.252 C 
HETATM   12  O   UNK N   1      36.956  15.072  14.782  0.00  0.00    -0.268 OA
HETATM   13  N   UNK N   1      36.849  13.871  12.945  0.00  0.00    -0.344 N 
HETATM   14  H   UNK N   1      37.695  14.310  12.697  0.00  0.00     0.163 HD
BRANCH  13  15
HETATM   15  C   UNK N   1      36.250  13.113  11.875  0.00  0.00     0.177 C 
BRANCH  15  16
HETATM   16  C   UNK N   1      37.315  12.728  10.868  0.00  0.00     0.238 C 
HETATM   17  N   UNK N   1      38.478  13.402  10.819  0.00  0.00    -0.368 N 
HETATM   18  H   UNK N   1      39.074  13.775  11.507  0.00  0.00     0.159 HD
HETATM   19  H   UNK N   1      38.802  13.552   9.901  0.00  0.00     0.159 HD
HETATM   20  O   UNK N   1      37.096  11.853  10.042  0.00  0.00    -0.271 OA
ENDBRANCH  15  16
BRANCH  15  21
HETATM   21  C   UNK N   1      35.005  13.755  11.255  0.00  0.00     0.045 C 
BRANCH  21  22
HETATM   22  C   UNK N   1      35.352  14.702  10.101  0.00  0.00     0.112 C 
BRANCH  22  23
HETATM   23  C   UNK N   1      35.846  16.025  10.605  0.00  0.00     0.139 C 
HETATM   24  O   UNK N   1      35.058  16.936  10.799  0.00  0.00    -0.650 OA
BRANCH  23  25
HETATM   25  O   UNK N   1      37.154  16.201  10.867  0.00  0.00    -0.776 OA
HETATM   26  H   UNK N   1      37.840  15.601  11.081  0.00  0.00     0.167 HD
ENDBRANCH  23  25
ENDBRANCH  22  23
ENDBRANCH  21  22
ENDBRANCH  15  21
ENDBRANCH  13  15
ENDBRANCH   6  11
BRANCH   2  27
HETATM   27  C   UNK N   1      35.394   9.962  20.669  0.00  0.00     0.364 C 
HETATM   28  F   UNK N   1      36.408  10.409  21.497  0.00  0.00    -0.187 F 
HETATM   29  F   UNK N   1      35.731   8.717  20.174  0.00  0.00    -0.187 F 
BRANCH  27  30
HETATM   30  P   UNK N   1      33.829   9.821  21.703  0.00  0.00     0.315 P 
HETATM   31  O   UNK N   1      32.636   9.271  20.877  0.00  0.00    -0.649 OA
BRANCH  30  32
HETATM   32  O   UNK N   1      33.943   8.728  23.046  0.00  0.00    -0.325 OA
HETATM   33  H   UNK N   1      34.699   8.126  23.119  0.00  0.00     0.220 HD
ENDBRANCH  30  32
BRANCH  30  34
HETATM   34  O   UNK N   1      33.234  11.322  22.346  0.00  0.00    -0.325 OA
HETATM   35  H   UNK N   1      33.640  12.145  22.658  0.00  0.00     0.220 HD
ENDBRANCH  30  34
ENDBRANCH  27  30
ENDBRANCH   2  27
TORSDOF 11
ENDMDL
MODEL 2
REMARK VINA RESULT:      -7.6      8.128     12.280
REMARK  11 active torsions:
REMARK  status: ('A' for Active; 'I' for Inactive)
REMARK    1  A    between atoms: P_1  and  O_2 
REMARK    2  A    between atoms: P_1  and  O_3 
REMARK    3  A    between atoms: P_1  and  C_5 
REMARK    4  A    between atoms: C_5  and  C_9 
REMARK    5  A    between atoms: C_13  and  C_18 
REMARK       I    between atoms: C_18  and  N_20 
REMARK    6  A    between atoms: C_21  and  N_20 
REMARK    7  A    between atoms: C_21  and  C_22 
REMARK    8  A    between atoms: C_21  and  C_25 
REMARK       I    between atoms: C_22  and  N_23 
REMARK    9  A    between atoms: C_25  and  C_26 
REMARK   10  A    between atoms: C_26  and  C_27 
REMARK   11  A    between atoms: C_27  and  O_29 
ROOT
HETATM    1  C   UNK N   1      29.796  16.774   6.004  0.00  0.00     0.026 A 
HETATM    2  C   UNK N   1      28.633  16.818   6.805  0.00  0.00     0.026 A 
HETATM    3  C   UNK N   1      28.663  17.486   8.035  0.00  0.00     0.015 A 
HETATM    4  C   UNK N   1      29.850  18.023   8.515  0.00  0.00     0.013 A 
HETATM    5  C   UNK N   1      32.223  18.169   8.385  0.00  0.00     0.029 A 
HETATM    6  C   UNK N   1      33.444  17.898   7.755  0.00  0.00     0.032 A 
HETATM    7  C   UNK N   1      33.432  17.427   6.431  0.00  0.00     0.018 A 
HETATM    8  C   UNK N   1      32.207  17.140   5.794  0.00  0.00     0.013 A 
HETATM    9  C   UNK N   1      31.000  17.300   6.497  0.00  0.00    -0.025 A 
HETATM   10  C   UNK N   1      31.020  17.882   7.777  0.00  0.00    -0.025 A 
ENDROOT
BRANCH   6  11
HETATM   11  C   UNK N   1      34.596  17.676   8.683  0.00  0.00     0.252 C 
HETATM   12  O   UNK N   1      35.290  18.646   8.923  0.00  0.00    -0.268 OA
HETATM   13  N   UNK N   1      34.892  16.531   9.366  0.00  0.00    -0.344 N 
HETATM   14  H   UNK N   1      35.405  16.684  10.192  0.00  0.00     0.163 HD
BRANCH  13  15
HETATM   15  C   UNK N   1      34.597  15.143   9.111  0.00  0.00     0.177 C 
BRANCH  15  16
HETATM   16  C   UNK N   1      33.119  14.890   9.330  0.00  0.00     0.238 C 
HETATM   17  N   UNK N   1      32.576  15.050  10.551  0.00  0.00    -0.368 N 
HETATM   18  H   UNK N   1      32.707  15.710  11.268  0.00  0.00     0.159 HD
HETATM   19  H   UNK N   1      31.907  14.362  10.772  0.00  0.00     0.159 HD
HETATM   20  O   UNK N   1      32.423  14.465   8.418  0.00  0.00    -0.271 OA
ENDBRANCH  15  16
BRANCH  15  21
HETATM   21  C   UNK N   1      35.515  14.151   9.832  0.00  0.00     0.045 C 
BRANCH  21  22
HETATM   22  C   UNK N   1      36.368  14.826  10.912  0.00  0.00     0.112 C 
BRANCH  22  23
HETATM   23  C   UNK N   1      35.913  14.447  12.289  0.00  0.00     0.139 C 
HETATM   24  O   UNK N   1      34.775  14.041  12.465  0.00  0.00    -0.650 OA
BRANCH  23  25
HETATM   25  O   UNK N   1      36.763  14.530  13.328  0.00  0.00    -0.776 OA
HETATM   26  H   UNK N   1      37.699  14.528  13.379  0.00  0.00     0.167 HD
ENDBRANCH  23  25
ENDBRANCH  22  23
ENDBRANCH  21  22
ENDBRANCH  15  21
ENDBRANCH  13  15
ENDBRANCH   6  11
BRANCH   2  27
HETATM   27  C   UNK N   1      27.390  16.062   6.422  0.00  0.00     0.364 C 
HETATM   28  F   UNK N   1      26.597  15.826   7.531  0.00  0.00    -0.187 F 
HETATM   29  F   UNK N   1      27.734  14.854   5.847  0.00  0.00    -0.187 F 
BRANCH  27  30
HETATM   30  P   UNK N   1      26.379  17.071   5.198  0.00  0.00     0.315 P 
HETATM   31  O   UNK N   1      26.753  18.577   5.240  0.00  0.00    -0.649 OA
BRANCH  30  32
HETATM   32  O   UNK N   1      26.606  16.632   3.535  0.00  0.00    -0.325 OA
HETATM   33  H   UNK N   1      25.880  16.740   2.902  0.00  0.00     0.220 HD
ENDBRANCH  30  32
BRANCH  30  34
HETATM   34  O   UNK N   1      24.664  17.059   5.475  0.00  0.00    -0.325 OA
HETATM   35  H   UNK N   1      23.998  16.373   5.636  0.00  0.00     0.220 HD
ENDBRANCH  30  34
ENDBRANCH  27  30
ENDBRANCH   2  27
TORSDOF 11
ENDMDL
MODEL 3
REMARK VINA RESULT:      -7.5      9.694     13.193
REMARK  11 active torsions:
REMARK  status: ('A' for Active; 'I' for Inactive)
REMARK    1  A    between atoms: P_1  and  O_2 
REMARK    2  A    between atoms: P_1  and  O_3 
REMARK    3  A    between atoms: P_1  and  C_5 
REMARK    4  A    between atoms: C_5  and  C_9 
REMARK    5  A    between atoms: C_13  and  C_18 
REMARK       I    between atoms: C_18  and  N_20 
REMARK    6  A    between atoms: C_21  and  N_20 
REMARK    7  A    between atoms: C_21  and  C_22 
REMARK    8  A    between atoms: C_21  and  C_25 
REMARK       I    between atoms: C_22  and  N_23 
REMARK    9  A    between atoms: C_25  and  C_26 
REMARK   10  A    between atoms: C_26  and  C_27 
REMARK   11  A    between atoms: C_27  and  O_29 
ROOT
HETATM    1  C   UNK N   1      32.535  16.541   8.650  0.00  0.00     0.026 A 
HETATM    2  C   UNK N   1      33.436  15.804   7.849  0.00  0.00     0.026 A 
HETATM    3  C   UNK N   1      33.271  15.784   6.459  0.00  0.00     0.015 A 
HETATM    4  C   UNK N   1      32.176  16.405   5.872  0.00  0.00     0.013 A 
HETATM    5  C   UNK N   1      30.026  17.398   6.106  0.00  0.00     0.029 A 
HETATM    6  C   UNK N   1      28.971  17.890   6.886  0.00  0.00     0.032 A 
HETATM    7  C   UNK N   1      29.192  18.121   8.254  0.00  0.00     0.018 A 
HETATM    8  C   UNK N   1      30.424  17.765   8.841  0.00  0.00     0.013 A 
HETATM    9  C   UNK N   1      31.419  17.153   8.059  0.00  0.00    -0.025 A 
HETATM   10  C   UNK N   1      31.230  17.036   6.671  0.00  0.00    -0.025 A 
ENDROOT
BRANCH   6  11
HETATM   11  C   UNK N   1      27.608  17.671   6.311  0.00  0.00     0.252 C 
HETATM   12  O   UNK N   1      27.176  16.535   6.363  0.00  0.00    -0.268 OA
HETATM   13  N   UNK N   1      26.757  18.623   5.828  0.00  0.00    -0.344 N 
HETATM   14  H   UNK N   1      25.807  18.368   5.875  0.00  0.00     0.163 HD
BRANCH  13  15
HETATM   15  C   UNK N   1      26.981  19.931   5.264  0.00  0.00     0.177 C 
BRANCH  15  16
HETATM   16  C   UNK N   1      26.877  20.979   6.354  0.00  0.00     0.238 C 
HETATM   17  N   UNK N   1      26.132  20.747   7.451  0.00  0.00    -0.368 N 
HETATM   18  H   UNK N   1      25.986  19.953   8.013  0.00  0.00     0.159 HD
HETATM   19  H   UNK N   1      25.630  21.537   7.754  0.00  0.00     0.159 HD
HETATM   20  O   UNK N   1      27.407  22.073   6.212  0.00  0.00    -0.271 OA
ENDBRANCH  15  16
BRANCH  15  21
HETATM   21  C   UNK N   1      26.147  20.242   4.017  0.00  0.00     0.045 C 
BRANCH  21  22
HETATM   22  C   UNK N   1      24.695  19.773   4.156  0.00  0.00     0.112 C 
BRANCH  22  23
HETATM   23  C   UNK N   1      23.824  20.353   3.082  0.00  0.00     0.139 C 
HETATM   24  O   UNK N   1      22.610  20.323   3.198  0.00  0.00    -0.650 OA
BRANCH  23  25
HETATM   25  O   UNK N   1      24.380  20.928   2.000  0.00  0.00    -0.776 OA
HETATM   26  H   UNK N   1      24.045  21.524   1.360  0.00  0.00     0.167 HD
ENDBRANCH  23  25
ENDBRANCH  22  23
ENDBRANCH  21  22
ENDBRANCH  15  21
ENDBRANCH  13  15
ENDBRANCH   6  11
BRANCH   2  27
HETATM   27  C   UNK N   1      34.504  14.942   8.464  0.00  0.00     0.364 C 
HETATM   28  F   UNK N   1      35.715  15.127   7.823  0.00  0.00    -0.187 F 
HETATM   29  F   UNK N   1      34.142  13.611   8.372  0.00  0.00    -0.187 F 
BRANCH  27  30
HETATM   30  P   UNK N   1      34.736  15.402  10.273  0.00  0.00     0.315 P 
HETATM   31  O   UNK N   1      36.023  14.774  10.871  0.00  0.00    -0.649 OA
BRANCH  30  32
HETATM   32  O   UNK N   1      34.925  17.101  10.571  0.00  0.00    -0.325 OA
HETATM   33  H   UNK N   1      35.811  17.493  10.593  0.00  0.00     0.220 HD
ENDBRANCH  30  32
BRANCH  30  34
HETATM   34  O   UNK N   1      33.475  14.859  11.338  0.00  0.00    -0.325 OA
HETATM   35  H   UNK N   1      32.988  14.029  11.461  0.00  0.00     0.220 HD
ENDBRANCH  30  34
ENDBRANCH  27  30
ENDBRANCH   2  27
TORSDOF 11
ENDMDL
MODEL 4
REMARK VINA RESULT:      -7.4     15.425     18.674
REMARK  11 active torsions:
REMARK  status: ('A' for Active; 'I' for Inactive)
REMARK    1  A    between atoms: P_1  and  O_2 
REMARK    2  A    between atoms: P_1  and  O_3 
REMARK    3  A    between atoms: P_1  and  C_5 
REMARK    4  A    between atoms: C_5  and  C_9 
REMARK    5  A    between atoms: C_13  and  C_18 
REMARK       I    between atoms: C_18  and  N_20 
REMARK    6  A    between atoms: C_21  and  N_20 
REMARK    7  A    between atoms: C_21  and  C_22 
REMARK    8  A    between atoms: C_21  and  C_25 
REMARK       I    between atoms: C_22  and  N_23 
REMARK    9  A    between atoms: C_25  and  C_26 
REMARK   10  A    between atoms: C_26  and  C_27 
REMARK   11  A    between atoms: C_27  and  O_29 
ROOT
HETATM    1  C   UNK N   1      23.253  18.193   4.161  0.00  0.00     0.026 A 
HETATM    2  C   UNK N   1      21.900  18.583   4.283  0.00  0.00     0.026 A 
HETATM    3  C   UNK N   1      21.117  18.056   5.318  0.00  0.00     0.015 A 
HETATM    4  C   UNK N   1      21.634  17.085   6.165  0.00  0.00     0.013 A 
HETATM    5  C   UNK N   1      23.326  15.478   6.635  0.00  0.00     0.029 A 
HETATM    6  C   UNK N   1      24.558  14.868   6.368  0.00  0.00     0.032 A 
HETATM    7  C   UNK N   1      25.451  15.504   5.489  0.00  0.00     0.018 A 
HETATM    8  C   UNK N   1      25.062  16.681   4.816  0.00  0.00     0.013 A 
HETATM    9  C   UNK N   1      23.769  17.199   5.005  0.00  0.00    -0.025 A 
HETATM   10  C   UNK N   1      22.930  16.621   5.975  0.00  0.00    -0.025 A 
ENDROOT
BRANCH   6  11
HETATM   11  C   UNK N   1      24.610  13.401   6.654  0.00  0.00     0.252 C 
HETATM   12  O   UNK N   1      24.848  12.675   5.708  0.00  0.00    -0.268 OA
HETATM   13  N   UNK N   1      24.520  12.798   7.876  0.00  0.00    -0.344 N 
HETATM   14  H   UNK N   1      24.962  11.920   7.919  0.00  0.00     0.163 HD
BRANCH  13  15
HETATM   15  C   UNK N   1      23.902  13.201   9.115  0.00  0.00     0.177 C 
BRANCH  15  16
HETATM   16  C   UNK N   1      24.799  12.820  10.276  0.00  0.00     0.238 C 
HETATM   17  N   UNK N   1      25.844  13.599  10.611  0.00  0.00    -0.368 N 
HETATM   18  H   UNK N   1      25.975  14.573  10.653  0.00  0.00     0.159 HD
HETATM   19  H   UNK N   1      26.643  13.086  10.869  0.00  0.00     0.159 HD
HETATM   20  O   UNK N   1      24.625  11.765  10.871  0.00  0.00    -0.271 OA
ENDBRANCH  15  16
BRANCH  15  21
HETATM   21  C   UNK N   1      22.446  12.754   9.278  0.00  0.00     0.045 C 
BRANCH  21  22
HETATM   22  C   UNK N   1      21.575  13.834   9.931  0.00  0.00     0.112 C 
BRANCH  22  23
HETATM   23  C   UNK N   1      20.309  14.059   9.160  0.00  0.00     0.139 C 
HETATM   24  O   UNK N   1      19.287  14.378   9.746  0.00  0.00    -0.650 OA
BRANCH  23  25
HETATM   25  O   UNK N   1      20.302  13.932   7.821  0.00  0.00    -0.776 OA
HETATM   26  H   UNK N   1      19.697  13.531   7.229  0.00  0.00     0.167 HD
ENDBRANCH  23  25
ENDBRANCH  22  23
ENDBRANCH  21  22
ENDBRANCH  15  21
ENDBRANCH  13  15
ENDBRANCH   6  11
BRANCH   2  27
HETATM   27  C   UNK N   1      21.244  19.463   3.256  0.00  0.00     0.364 C 
HETATM   28  F   UNK N   1      22.192  20.118   2.490  0.00  0.00    -0.187 F 
HETATM   29  F   UNK N   1      20.444  20.400   3.882  0.00  0.00    -0.187 F 
BRANCH  27  30
HETATM   30  P   UNK N   1      20.192  18.419   2.096  0.00  0.00     0.315 P 
HETATM   31  O   UNK N   1      20.534  16.909   2.206  0.00  0.00    -0.649 OA
BRANCH  30  32
HETATM   32  O   UNK N   1      18.487  18.484   2.408  0.00  0.00    -0.325 OA
HETATM   33  H   UNK N   1      17.915  19.047   1.864  0.00  0.00     0.220 HD
ENDBRANCH  30  32
BRANCH  30  34
HETATM   34  O   UNK N   1      20.391  18.770   0.406  0.00  0.00    -0.325 OA
HETATM   35  H   UNK N   1      20.067  18.380  -0.420  0.00  0.00     0.220 HD
ENDBRANCH  30  34
ENDBRANCH  27  30
ENDBRANCH   2  27
TORSDOF 11
ENDMDL
MODEL 5
REMARK VINA RESULT:      -7.1     22.710     26.653
REMARK  11 active torsions:
REMARK  status: ('A' for Active; 'I' for Inactive)
REMARK    1  A    between atoms: P_1  and  O_2 
REMARK    2  A    between atoms: P_1  and  O_3 
REMARK    3  A    between atoms: P_1  and  C_5 
REMARK    4  A    between atoms: C_5  and  C_9 
REMARK    5  A    between atoms: C_13  and  C_18 
REMARK       I    between atoms: C_18  and  N_20 
REMARK    6  A    between atoms: C_21  and  N_20 
REMARK    7  A    between atoms: C_21  and  C_22 
REMARK    8  A    between atoms: C_21  and  C_25 
REMARK       I    between atoms: C_22  and  N_23 
REMARK    9  A    between atoms: C_25  and  C_26 
REMARK   10  A    between atoms: C_26  and  C_27 
REMARK   11  A    between atoms: C_27  and  O_29 
ROOT
HETATM    1  C   UNK N   1      26.159  27.671  -4.555  0.00  0.00     0.026 A 
HETATM    2  C   UNK N   1      26.875  28.785  -5.048  0.00  0.00     0.026 A 
HETATM    3  C   UNK N   1      27.483  28.717  -6.308  0.00  0.00     0.015 A 
HETATM    4  C   UNK N   1      27.466  27.533  -7.033  0.00  0.00     0.013 A 
HETATM    5  C   UNK N   1      27.087  25.183  -7.095  0.00  0.00     0.029 A 
HETATM    6  C   UNK N   1      26.636  23.990  -6.517  0.00  0.00     0.032 A 
HETATM    7  C   UNK N   1      25.837  24.057  -5.364  0.00  0.00     0.018 A 
HETATM    8  C   UNK N   1      25.584  25.300  -4.750  0.00  0.00     0.013 A 
HETATM    9  C   UNK N   1      26.157  26.470  -5.279  0.00  0.00    -0.025 A 
HETATM   10  C   UNK N   1      26.856  26.404  -6.498  0.00  0.00    -0.025 A 
ENDROOT
BRANCH   6  11
HETATM   11  C   UNK N   1      27.425  22.774  -6.887  0.00  0.00     0.252 C 
HETATM   12  O   UNK N   1      26.920  22.030  -7.705  0.00  0.00    -0.268 OA
HETATM   13  N   UNK N   1      28.691  22.462  -6.481  0.00  0.00    -0.344 N 
HETATM   14  H   UNK N   1      29.176  21.878  -7.108  0.00  0.00     0.163 HD
BRANCH  13  15
HETATM   15  C   UNK N   1      29.455  22.824  -5.312  0.00  0.00     0.177 C 
BRANCH  15  16
HETATM   16  C   UNK N   1      29.978  24.238  -5.466  0.00  0.00     0.238 C 
HETATM   17  N   UNK N   1      29.709  25.167  -4.530  0.00  0.00    -0.368 N 
HETATM   18  H   UNK N   1      29.668  25.144  -3.547  0.00  0.00     0.159 HD
HETATM   19  H   UNK N   1      29.515  26.054  -4.908  0.00  0.00     0.159 HD
HETATM   20  O   UNK N   1      30.585  24.566  -6.476  0.00  0.00    -0.271 OA
ENDBRANCH  15  16
BRANCH  15  21
HETATM   21  C   UNK N   1      30.522  21.803  -4.905  0.00  0.00     0.045 C 
BRANCH  21  22
HETATM   22  C   UNK N   1      30.312  21.278  -3.480  0.00  0.00     0.112 C 
BRANCH  22  23
HETATM   23  C   UNK N   1      31.192  21.990  -2.497  0.00  0.00     0.139 C 
HETATM   24  O   UNK N   1      30.807  23.020  -1.969  0.00  0.00    -0.650 OA
BRANCH  23  25
HETATM   25  O   UNK N   1      32.396  21.482  -2.177  0.00  0.00    -0.776 OA
HETATM   26  H   UNK N   1      33.269  21.750  -2.387  0.00  0.00     0.167 HD
ENDBRANCH  23  25
ENDBRANCH  22  23
ENDBRANCH  21  22
ENDBRANCH  15  21
ENDBRANCH  13  15
ENDBRANCH   6  11
BRANCH   2  27
HETATM   27  C   UNK N   1      27.102  30.007  -4.201  0.00  0.00     0.364 C 
HETATM   28  F   UNK N   1      25.946  30.361  -3.529  0.00  0.00    -0.187 F 
HETATM   29  F   UNK N   1      27.503  31.062  -4.997  0.00  0.00    -0.187 F 
BRANCH  27  30
HETATM   30  P   UNK N   1      28.429  29.656  -2.914  0.00  0.00     0.315 P 
HETATM   31  O   UNK N   1      27.820  29.401  -1.509  0.00  0.00    -0.649 OA
BRANCH  30  32
HETATM   32  O   UNK N   1      29.379  28.237  -3.220  0.00  0.00    -0.325 OA
HETATM   33  H   UNK N   1      30.206  28.094  -2.735  0.00  0.00     0.220 HD
ENDBRANCH  30  32
BRANCH  30  34
HETATM   34  O   UNK N   1      29.558  30.950  -2.650  0.00  0.00    -0.325 OA
HETATM   35  H   UNK N   1      29.796  31.762  -3.124  0.00  0.00     0.220 HD
ENDBRANCH  30  34
ENDBRANCH  27  30
ENDBRANCH   2  27
TORSDOF 11
ENDMDL
MODEL 6
REMARK VINA RESULT:      -7.1     22.423     25.071
REMARK  11 active torsions:
REMARK  status: ('A' for Active; 'I' for Inactive)
REMARK    1  A    between atoms: P_1  and  O_2 
REMARK    2  A    between atoms: P_1  and  O_3 
REMARK    3  A    between atoms: P_1  and  C_5 
REMARK    4  A    between atoms: C_5  and  C_9 
REMARK    5  A    between atoms: C_13  and  C_18 
REMARK       I    between atoms: C_18  and  N_20 
REMARK    6  A    between atoms: C_21  and  N_20 
REMARK    7  A    between atoms: C_21  and  C_22 
REMARK    8  A    between atoms: C_21  and  C_25 
REMARK       I    between atoms: C_22  and  N_23 
REMARK    9  A    between atoms: C_25  and  C_26 
REMARK   10  A    between atoms: C_26  and  C_27 
REMARK   11  A    between atoms: C_27  and  O_29 
ROOT
HETATM    1  C   UNK N   1      32.232  22.736  -3.913  0.00  0.00     0.026 A 
HETATM    2  C   UNK N   1      32.315  21.362  -4.235  0.00  0.00     0.026 A 
HETATM    3  C   UNK N   1      31.233  20.729  -4.858  0.00  0.00     0.015 A 
HETATM    4  C   UNK N   1      30.046  21.417  -5.076  0.00  0.00     0.013 A 
HETATM    5  C   UNK N   1      28.674  23.310  -4.628  0.00  0.00     0.029 A 
HETATM    6  C   UNK N   1      28.461  24.577  -4.070  0.00  0.00     0.032 A 
HETATM    7  C   UNK N   1      29.572  25.319  -3.634  0.00  0.00     0.018 A 
HETATM    8  C   UNK N   1      30.861  24.749  -3.670  0.00  0.00     0.013 A 
HETATM    9  C   UNK N   1      31.028  23.426  -4.116  0.00  0.00    -0.025 A 
HETATM   10  C   UNK N   1      29.927  22.738  -4.658  0.00  0.00    -0.025 A 
ENDROOT
BRANCH   6  11
HETATM   11  C   UNK N   1      27.077  24.814  -3.556  0.00  0.00     0.252 C 
HETATM   12  O   UNK N   1      26.588  23.923  -2.889  0.00  0.00    -0.268 OA
HETATM   13  N   UNK N   1      26.344  25.961  -3.669  0.00  0.00    -0.344 N 
HETATM   14  H   UNK N   1      25.670  26.073  -2.961  0.00  0.00     0.163 HD
BRANCH  13  15
HETATM   15  C   UNK N   1      26.368  27.040  -4.626  0.00  0.00     0.177 C 
BRANCH  15  16
HETATM   16  C   UNK N   1      26.441  28.365  -3.894  0.00  0.00     0.238 C 
HETATM   17  N   UNK N   1      26.599  29.512  -4.581  0.00  0.00    -0.368 N 
HETATM   18  H   UNK N   1      26.234  29.847  -5.430  0.00  0.00     0.159 HD
HETATM   19  H   UNK N   1      27.205  30.149  -4.139  0.00  0.00     0.159 HD
HETATM   20  O   UNK N   1      26.433  28.397  -2.671  0.00  0.00    -0.271 OA
ENDBRANCH  15  16
BRANCH  15  21
HETATM   21  C   UNK N   1      25.270  26.974  -5.692  0.00  0.00     0.045 C 
BRANCH  21  22
HETATM   22  C   UNK N   1      25.803  26.503  -7.049  0.00  0.00     0.112 C 
BRANCH  22  23
HETATM   23  C   UNK N   1      25.928  25.010  -7.103  0.00  0.00     0.139 C 
HETATM   24  O   UNK N   1      26.699  24.491  -7.893  0.00  0.00    -0.650 OA
BRANCH  23  25
HETATM   25  O   UNK N   1      25.208  24.242  -6.265  0.00  0.00    -0.776 OA
HETATM   26  H   UNK N   1      25.184  23.317  -6.122  0.00  0.00     0.167 HD
ENDBRANCH  23  25
ENDBRANCH  22  23
ENDBRANCH  21  22
ENDBRANCH  15  21
ENDBRANCH  13  15
ENDBRANCH   6  11
BRANCH   2  27
HETATM   27  C   UNK N   1      33.497  20.531  -3.817  0.00  0.00     0.364 C 
HETATM   28  F   UNK N   1      33.218  19.182  -3.944  0.00  0.00    -0.187 F 
HETATM   29  F   UNK N   1      33.822  20.804  -2.502  0.00  0.00    -0.187 F 
BRANCH  27  30
HETATM   30  P   UNK N   1      34.972  20.918  -4.918  0.00  0.00     0.315 P 
HETATM   31  O   UNK N   1      34.660  20.664  -6.417  0.00  0.00    -0.649 OA
BRANCH  30  32
HETATM   32  O   UNK N   1      35.495  22.572  -4.876  0.00  0.00    -0.325 OA
HETATM   33  H   UNK N   1      36.348  22.821  -5.263  0.00  0.00     0.220 HD
ENDBRANCH  30  32
BRANCH  30  34
HETATM   34  O   UNK N   1      36.386  19.954  -4.619  0.00  0.00    -0.325 OA
HETATM   35  H   UNK N   1      36.974  19.812  -3.861  0.00  0.00     0.220 HD
ENDBRANCH  30  34
ENDBRANCH  27  30
ENDBRANCH   2  27
TORSDOF 11
ENDMDL
MODEL 7
REMARK VINA RESULT:      -7.1      4.596      9.499
REMARK  11 active torsions:
REMARK  status: ('A' for Active; 'I' for Inactive)
REMARK    1  A    between atoms: P_1  and  O_2 
REMARK    2  A    between atoms: P_1  and  O_3 
REMARK    3  A    between atoms: P_1  and  C_5 
REMARK    4  A    between atoms: C_5  and  C_9 
REMARK    5  A    between atoms: C_13  and  C_18 
REMARK       I    between atoms: C_18  and  N_20 
REMARK    6  A    between atoms: C_21  and  N_20 
REMARK    7  A    between atoms: C_21  and  C_22 
REMARK    8  A    between atoms: C_21  and  C_25 
REMARK       I    between atoms: C_22  and  N_23 
REMARK    9  A    between atoms: C_25  and  C_26 
REMARK   10  A    between atoms: C_26  and  C_27 
REMARK   11  A    between atoms: C_27  and  O_29 
ROOT
HETATM    1  C   UNK N   1      35.002  12.920  15.502  0.00  0.00     0.026 A 
HETATM    2  C   UNK N   1      34.968  12.043  14.395  0.00  0.00     0.026 A 
HETATM    3  C   UNK N   1      34.750  10.675  14.601  0.00  0.00     0.015 A 
HETATM    4  C   UNK N   1      34.663  10.163  15.889  0.00  0.00     0.013 A 
HETATM    5  C   UNK N   1      34.996  10.457  18.227  0.00  0.00     0.029 A 
HETATM    6  C   UNK N   1      35.307  11.247  19.341  0.00  0.00     0.032 A 
HETATM    7  C   UNK N   1      35.316  12.645  19.196  0.00  0.00     0.018 A 
HETATM    8  C   UNK N   1      35.114  13.226  17.928  0.00  0.00     0.013 A 
HETATM    9  C   UNK N   1      34.933  12.402  16.803  0.00  0.00    -0.025 A 
HETATM   10  C   UNK N   1      34.808  11.012  16.980  0.00  0.00    -0.025 A 
ENDROOT
BRANCH   6  11
HETATM   11  C   UNK N   1      36.055  10.540  20.426  0.00  0.00     0.252 C 
HETATM   12  O   UNK N   1      37.245  10.371  20.240  0.00  0.00    -0.268 OA
HETATM   13  N   UNK N   1      35.569  10.156  21.643  0.00  0.00    -0.344 N 
HETATM   14  H   UNK N   1      36.259  10.085  22.342  0.00  0.00     0.163 HD
BRANCH  13  15
HETATM   15  C   UNK N   1      34.241   9.834  22.102  0.00  0.00     0.177 C 
BRANCH  15  16
HETATM   16  C   UNK N   1      34.256   9.638  23.604  0.00  0.00     0.238 C 
HETATM   17  N   UNK N   1      35.410   9.731  24.290  0.00  0.00    -0.368 N 
HETATM   18  H   UNK N   1      36.189  10.327  24.224  0.00  0.00     0.159 HD
HETATM   19  H   UNK N   1      35.490   9.062  25.008  0.00  0.00     0.159 HD
HETATM   20  O   UNK N   1      33.233   9.320  24.196  0.00  0.00    -0.271 OA
ENDBRANCH  15  16
BRANCH  15  21
HETATM   21  C   UNK N   1      33.555   8.701  21.331  0.00  0.00     0.045 C 
BRANCH  21  22
HETATM   22  C   UNK N   1      32.203   9.127  20.749  0.00  0.00     0.112 C 
BRANCH  22  23
HETATM   23  C   UNK N   1      31.515   7.985  20.063  0.00  0.00     0.139 C 
HETATM   24  O   UNK N   1      32.168   7.042  19.647  0.00  0.00    -0.650 OA
BRANCH  23  25
HETATM   25  O   UNK N   1      30.177   7.987  19.927  0.00  0.00    -0.776 OA
HETATM   26  H   UNK N   1      29.598   7.495  19.378  0.00  0.00     0.167 HD
ENDBRANCH  23  25
ENDBRANCH  22  23
ENDBRANCH  21  22
ENDBRANCH  15  21
ENDBRANCH  13  15
ENDBRANCH   6  11
BRANCH   2  27
HETATM   27  C   UNK N   1      35.276  12.525  13.004  0.00  0.00     0.364 C 
HETATM   28  F   UNK N   1      35.046  13.884  12.892  0.00  0.00    -0.187 F 
HETATM   29  F   UNK N   1      34.485  11.856  12.089  0.00  0.00    -0.187 F 
BRANCH  27  30
HETATM   30  P   UNK N   1      37.089  12.215  12.607  0.00  0.00     0.315 P 
HETATM   31  O   UNK N   1      37.292  10.895  11.816  0.00  0.00    -0.649 OA
BRANCH  30  32
HETATM   32  O   UNK N   1      37.827  13.421  11.601  0.00  0.00    -0.325 OA
HETATM   33  H   UNK N   1      37.650  13.431  10.648  0.00  0.00     0.220 HD
ENDBRANCH  30  32
BRANCH  30  34
HETATM   34  O   UNK N   1      38.124  12.035  13.990  0.00  0.00    -0.325 OA
HETATM   35  H   UNK N   1      38.076  11.547  14.827  0.00  0.00     0.220 HD
ENDBRANCH  30  34
ENDBRANCH  27  30
ENDBRANCH   2  27
TORSDOF 11
ENDMDL
MODEL 8
REMARK VINA RESULT:      -7.0     22.194     24.748
REMARK  11 active torsions:
REMARK  status: ('A' for Active; 'I' for Inactive)
REMARK    1  A    between atoms: P_1  and  O_2 
REMARK    2  A    between atoms: P_1  and  O_3 
REMARK    3  A    between atoms: P_1  and  C_5 
REMARK    4  A    between atoms: C_5  and  C_9 
REMARK    5  A    between atoms: C_13  and  C_18 
REMARK       I    between atoms: C_18  and  N_20 
REMARK    6  A    between atoms: C_21  and  N_20 
REMARK    7  A    between atoms: C_21  and  C_22 
REMARK    8  A    between atoms: C_21  and  C_25 
REMARK       I    between atoms: C_22  and  N_23 
REMARK    9  A    between atoms: C_25  and  C_26 
REMARK   10  A    between atoms: C_26  and  C_27 
REMARK   11  A    between atoms: C_27  and  O_29 
ROOT
HETATM    1  C   UNK N   1      32.464  22.975  -4.180  0.00  0.00     0.026 A 
HETATM    2  C   UNK N   1      32.762  21.599  -4.301  0.00  0.00     0.026 A 
HETATM    3  C   UNK N   1      31.757  20.704  -4.689  0.00  0.00     0.015 A 
HETATM    4  C   UNK N   1      30.452  21.145  -4.865  0.00  0.00     0.013 A 
HETATM    5  C   UNK N   1      28.811  22.839  -4.545  0.00  0.00     0.029 A 
HETATM    6  C   UNK N   1      28.427  24.130  -4.161  0.00  0.00     0.032 A 
HETATM    7  C   UNK N   1      29.423  25.104  -3.977  0.00  0.00     0.018 A 
HETATM    8  C   UNK N   1      30.784  24.752  -4.080  0.00  0.00     0.013 A 
HETATM    9  C   UNK N   1      31.143  23.418  -4.340  0.00  0.00    -0.025 A 
HETATM   10  C   UNK N   1      30.138  22.480  -4.638  0.00  0.00    -0.025 A 
ENDROOT
BRANCH   6  11
HETATM   11  C   UNK N   1      27.076  24.223  -3.528  0.00  0.00     0.252 C 
HETATM   12  O   UNK N   1      26.966  23.742  -2.416  0.00  0.00    -0.268 OA
HETATM   13  N   UNK N   1      25.982  24.878  -4.018  0.00  0.00    -0.344 N 
HETATM   14  H   UNK N   1      25.348  25.168  -3.323  0.00  0.00     0.163 HD
BRANCH  13  15
HETATM   15  C   UNK N   1      25.577  25.225  -5.358  0.00  0.00     0.177 C 
BRANCH  15  16
HETATM   16  C   UNK N   1      25.924  24.093  -6.303  0.00  0.00     0.238 C 
HETATM   17  N   UNK N   1      26.798  24.291  -7.308  0.00  0.00    -0.368 N 
HETATM   18  H   UNK N   1      27.641  24.792  -7.382  0.00  0.00     0.159 HD
HETATM   19  H   UNK N   1      26.538  23.838  -8.142  0.00  0.00     0.159 HD
HETATM   20  O   UNK N   1      25.359  23.012  -6.207  0.00  0.00    -0.271 OA
ENDBRANCH  15  16
BRANCH  15  21
HETATM   21  C   UNK N   1      26.050  26.603  -5.832  0.00  0.00     0.045 C 
BRANCH  21  22
HETATM   22  C   UNK N   1      25.162  27.737  -5.309  0.00  0.00     0.112 C 
BRANCH  22  23
HETATM   23  C   UNK N   1      25.733  28.355  -4.068  0.00  0.00     0.139 C 
HETATM   24  O   UNK N   1      25.665  27.761  -3.004  0.00  0.00    -0.650 OA
BRANCH  23  25
HETATM   25  O   UNK N   1      26.341  29.553  -4.129  0.00  0.00    -0.776 OA
HETATM   26  H   UNK N   1      26.021  30.428  -4.027  0.00  0.00     0.167 HD
ENDBRANCH  23  25
ENDBRANCH  22  23
ENDBRANCH  21  22
ENDBRANCH  15  21
ENDBRANCH  13  15
ENDBRANCH   6  11
BRANCH   2  27
HETATM   27  C   UNK N   1      34.106  21.052  -3.908  0.00  0.00     0.364 C 
HETATM   28  F   UNK N   1      34.215  20.955  -2.532  0.00  0.00    -0.187 F 
HETATM   29  F   UNK N   1      35.107  21.878  -4.382  0.00  0.00    -0.187 F 
BRANCH  27  30
HETATM   30  P   UNK N   1      34.329  19.326  -4.623  0.00  0.00     0.315 P 
HETATM   31  O   UNK N   1      35.819  18.892  -4.635  0.00  0.00    -0.649 OA
BRANCH  30  32
HETATM   32  O   UNK N   1      33.535  18.065  -3.736  0.00  0.00    -0.325 OA
HETATM   33  H   UNK N   1      33.623  17.143  -4.021  0.00  0.00     0.220 HD
ENDBRANCH  30  32
BRANCH  30  34
HETATM   34  O   UNK N   1      33.830  19.147  -6.278  0.00  0.00    -0.325 OA
HETATM   35  H   UNK N   1      34.283  18.983  -7.119  0.00  0.00     0.220 HD
ENDBRANCH  30  34
ENDBRANCH  27  30
ENDBRANCH   2  27
TORSDOF 11
ENDMDL
MODEL 9
REMARK VINA RESULT:      -6.9      9.146     13.288
REMARK  11 active torsions:
REMARK  status: ('A' for Active; 'I' for Inactive)
REMARK    1  A    between atoms: P_1  and  O_2 
REMARK    2  A    between atoms: P_1  and  O_3 
REMARK    3  A    between atoms: P_1  and  C_5 
REMARK    4  A    between atoms: C_5  and  C_9 
REMARK    5  A    between atoms: C_13  and  C_18 
REMARK       I    between atoms: C_18  and  N_20 
REMARK    6  A    between atoms: C_21  and  N_20 
REMARK    7  A    between atoms: C_21  and  C_22 
REMARK    8  A    between atoms: C_21  and  C_25 
REMARK       I    between atoms: C_22  and  N_23 
REMARK    9  A    between atoms: C_25  and  C_26 
REMARK   10  A    between atoms: C_26  and  C_27 
REMARK   11  A    between atoms: C_27  and  O_29 
ROOT
HETATM    1  C   UNK N   1      28.639  18.198   6.749  0.00  0.00     0.026 A 
HETATM    2  C   UNK N   1      28.175  18.211   5.414  0.00  0.00     0.026 A 
HETATM    3  C   UNK N   1      28.905  17.547   4.421  0.00  0.00     0.015 A 
HETATM    4  C   UNK N   1      30.126  16.957   4.720  0.00  0.00     0.013 A 
HETATM    5  C   UNK N   1      31.953  16.702   6.224  0.00  0.00     0.029 A 
HETATM    6  C   UNK N   1      32.573  16.914   7.463  0.00  0.00     0.032 A 
HETATM    7  C   UNK N   1      31.795  17.380   8.536  0.00  0.00     0.018 A 
HETATM    8  C   UNK N   1      30.442  17.720   8.334  0.00  0.00     0.013 A 
HETATM    9  C   UNK N   1      29.881  17.619   7.049  0.00  0.00    -0.025 A 
HETATM   10  C   UNK N   1      30.635  17.041   6.012  0.00  0.00    -0.025 A 
ENDROOT
BRANCH   6  11
HETATM   11  C   UNK N   1      34.057  17.086   7.404  0.00  0.00     0.252 C 
HETATM   12  O   UNK N   1      34.479  17.850   6.557  0.00  0.00    -0.268 OA
HETATM   13  N   UNK N   1      34.980  16.557   8.260  0.00  0.00    -0.344 N 
HETATM   14  H   UNK N   1      35.814  17.077   8.315  0.00  0.00     0.163 HD
BRANCH  13  15
HETATM   15  C   UNK N   1      34.968  15.384   9.099  0.00  0.00     0.177 C 
BRANCH  15  16
HETATM   16  C   UNK N   1      34.555  15.770  10.505  0.00  0.00     0.238 C 
HETATM   17  N   UNK N   1      35.037  16.891  11.071  0.00  0.00    -0.368 N 
HETATM   18  H   UNK N   1      35.219  17.796  10.731  0.00  0.00     0.159 HD
HETATM   19  H   UNK N   1      35.252  16.783  12.026  0.00  0.00     0.159 HD
HETATM   20  O   UNK N   1      33.839  15.028  11.164  0.00  0.00    -0.271 OA
ENDBRANCH  15  16
BRANCH  15  21
HETATM   21  C   UNK N   1      36.243  14.537   9.033  0.00  0.00     0.045 C 
BRANCH  21  22
HETATM   22  C   UNK N   1      36.174  13.307   9.944  0.00  0.00     0.112 C 
BRANCH  22  23
HETATM   23  C   UNK N   1      37.285  13.304  10.950  0.00  0.00     0.139 C 
HETATM   24  O   UNK N   1      38.304  12.669  10.731  0.00  0.00    -0.650 OA
BRANCH  23  25
HETATM   25  O   UNK N   1      37.171  14.019  12.084  0.00  0.00    -0.776 OA
HETATM   26  H   UNK N   1      37.782  14.225  12.763  0.00  0.00     0.167 HD
ENDBRANCH  23  25
ENDBRANCH  22  23
ENDBRANCH  21  22
ENDBRANCH  15  21
ENDBRANCH  13  15
ENDBRANCH   6  11
BRANCH   2  27
HETATM   27  C   UNK N   1      26.975  19.022   5.011  0.00  0.00     0.364 C 
HETATM   28  F   UNK N   1      27.166  19.598   3.768  0.00  0.00    -0.187 F 
HETATM   29  F   UNK N   1      26.747  20.018   5.941  0.00  0.00    -0.187 F 
BRANCH  27  30
HETATM   30  P   UNK N   1      25.460  17.911   4.901  0.00  0.00     0.315 P 
HETATM   31  O   UNK N   1      25.253  17.354   3.467  0.00  0.00    -0.649 OA
BRANCH  30  32
HETATM   32  O   UNK N   1      25.529  16.490   5.893  0.00  0.00    -0.325 OA
HETATM   33  H   UNK N   1      26.352  15.982   5.956  0.00  0.00     0.220 HD
ENDBRANCH  30  32
BRANCH  30  34
HETATM   34  O   UNK N   1      23.950  18.688   5.268  0.00  0.00    -0.325 OA
HETATM   35  H   UNK N   1      23.599  19.188   6.021  0.00  0.00     0.220 HD
ENDBRANCH  30  34
ENDBRANCH  27  30
ENDBRANCH   2  27
TORSDOF 11
ENDMDL
