MODEL 1
REMARK VINA RESULT:      -7.3      0.000      0.000
REMARK  3 active torsions:
REMARK  status: ('A' for Active; 'I' for Inactive)
REMARK    1  A    between atoms: C_3  and  N_9 
REMARK       I    between atoms: C_6  and  N_14 
REMARK    2  A    between atoms: C_13  and  S_15 
REMARK    3  A    between atoms: S_15  and  C_16 
ROOT
HETATM    1  C   UNK N   1      33.185  17.397   6.384  0.00  0.00     0.064 A 
HETATM    2  C   UNK N   1      31.824  17.262   6.774  0.00  0.00     0.052 A 
HETATM    3  C   UNK N   1      31.565  17.195   8.174  0.00  0.00     0.128 A 
HETATM    4  N   UNK N   1      32.594  17.267   9.054  0.00  0.00    -0.176 N 
ATOM      5  HN  UNK N   1      32.397  17.219  10.053  1.00  0.00     0.186 HD
HETATM    6  C   UNK N   1      33.877  17.400   8.642  0.00  0.00     0.677 A 
HETATM    7  N   UNK N   1      34.164  17.463   7.321  0.00  0.00    -0.191 N 
ATOM      8  HN  UNK N   1      35.135  17.562   7.024  1.00  0.00     0.184 HD
HETATM    9  C   UNK N   1      33.533  17.468   5.037  0.00  0.00     0.031 A 
HETATM   10  C   UNK N   1      32.551  17.408   4.054  0.00  0.00     0.004 A 
HETATM   11  C   UNK N   1      31.211  17.279   4.413  0.00  0.00     0.020 A 
HETATM   12  C   UNK N   1      30.817  17.202   5.755  0.00  0.00     0.021 A 
HETATM   13  N   UNK N   1      34.912  17.472   9.593  0.00  0.00    -0.234 N 
HETATM   14  H   UNK N   1      34.703  17.424  10.554  0.00  0.00     0.174 HD
HETATM   15  H   UNK N   1      35.846  17.572   9.298  0.00  0.00     0.174 HD
ENDROOT
BRANCH  12  16
HETATM   16  S   UNK N   1      29.050  17.047   6.185  0.00  0.00    -0.090 SA
BRANCH  16  17
HETATM   17  C   UNK N   1      28.213  18.625   5.917  0.00  0.00     0.005 A 
HETATM   18  C   UNK N   1      27.905  18.955   4.592  0.00  0.00     0.019 A 
HETATM   19  C   UNK N   1      27.251  20.149   4.288  0.00  0.00     0.001 A 
HETATM   20  C   UNK N   1      26.897  21.028   5.314  0.00  0.00     0.000 A 
HETATM   21  C   UNK N   1      27.199  20.708   6.640  0.00  0.00     0.001 A 
HETATM   22  C   UNK N   1      27.855  19.509   6.942  0.00  0.00     0.019 A 
ENDBRANCH  16  17
ENDBRANCH  12  16
BRANCH   3  23
HETATM   23  N   UNK N   1      30.264  17.056   8.696  0.00  0.00    -0.384 N 
HETATM   24  H   UNK N   1      29.482  17.233   8.124  0.00  0.00     0.157 HD
HETATM   25  H   UNK N   1      30.136  16.781   9.633  0.00  0.00     0.157 HD
ENDBRANCH   3  23
TORSDOF 3
ENDMDL
MODEL 2
REMARK VINA RESULT:      -6.7     12.880     15.371
REMARK  3 active torsions:
REMARK  status: ('A' for Active; 'I' for Inactive)
REMARK    1  A    between atoms: C_3  and  N_9 
REMARK       I    between atoms: C_6  and  N_14 
REMARK    2  A    between atoms: C_13  and  S_15 
REMARK    3  A    between atoms: S_15  and  C_16 
ROOT
HETATM    1  C   UNK N   1      35.170  12.070  17.061  0.00  0.00     0.064 A 
HETATM    2  C   UNK N   1      35.178  11.209  18.193  0.00  0.00     0.052 A 
HETATM    3  C   UNK N   1      35.261  11.837  19.470  0.00  0.00     0.128 A 
HETATM    4  N   UNK N   1      35.323  13.189  19.554  0.00  0.00    -0.176 N 
ATOM      5  HN  UNK N   1      35.382  13.627  20.473  1.00  0.00     0.186 HD
HETATM    6  C   UNK N   1      35.310  13.974  18.452  0.00  0.00     0.677 A 
HETATM    7  N   UNK N   1      35.235  13.415  17.220  0.00  0.00    -0.191 N 
ATOM      8  HN  UNK N   1      35.227  14.018  16.398  1.00  0.00     0.184 HD
HETATM    9  C   UNK N   1      35.093  11.545  15.772  0.00  0.00     0.031 A 
HETATM   10  C   UNK N   1      35.021  10.171  15.576  0.00  0.00     0.004 A 
HETATM   11  C   UNK N   1      35.023   9.309  16.671  0.00  0.00     0.020 A 
HETATM   12  C   UNK N   1      35.102   9.793  17.983  0.00  0.00     0.021 A 
HETATM   13  N   UNK N   1      35.374  15.373  18.589  0.00  0.00    -0.234 N 
HETATM   14  H   UNK N   1      35.431  15.778  19.484  0.00  0.00     0.174 HD
HETATM   15  H   UNK N   1      35.360  15.947  17.790  0.00  0.00     0.174 HD
ENDROOT
BRANCH  12  16
HETATM   16  S   UNK N   1      35.088   8.633  19.392  0.00  0.00    -0.090 SA
BRANCH  16  17
HETATM   17  C   UNK N   1      33.422   7.976  19.630  0.00  0.00     0.005 A 
HETATM   18  C   UNK N   1      32.450   8.879  20.074  0.00  0.00     0.019 A 
HETATM   19  C   UNK N   1      31.132   8.466  20.278  0.00  0.00     0.001 A 
HETATM   20  C   UNK N   1      30.776   7.138  20.036  0.00  0.00     0.000 A 
HETATM   21  C   UNK N   1      31.740   6.227  19.592  0.00  0.00     0.001 A 
HETATM   22  C   UNK N   1      33.060   6.646  19.388  0.00  0.00     0.019 A 
ENDBRANCH  16  17
ENDBRANCH  12  16
BRANCH   3  23
HETATM   23  N   UNK N   1      35.283  11.103  20.672  0.00  0.00    -0.384 N 
HETATM   24  H   UNK N   1      34.663  10.349  20.800  0.00  0.00     0.157 HD
HETATM   25  H   UNK N   1      35.919  11.342  21.385  0.00  0.00     0.157 HD
ENDBRANCH   3  23
TORSDOF 3
ENDMDL
MODEL 3
REMARK VINA RESULT:      -6.5      9.898     12.455
REMARK  3 active torsions:
REMARK  status: ('A' for Active; 'I' for Inactive)
REMARK    1  A    between atoms: C_3  and  N_9 
REMARK       I    between atoms: C_6  and  N_14 
REMARK    2  A    between atoms: C_13  and  S_15 
REMARK    3  A    between atoms: S_15  and  C_16 
ROOT
HETATM    1  C   UNK N   1      35.411  11.741  12.281  0.00  0.00     0.064 A 
HETATM    2  C   UNK N   1      35.595  12.599  13.399  0.00  0.00     0.052 A 
HETATM    3  C   UNK N   1      36.532  13.662  13.241  0.00  0.00     0.128 A 
HETATM    4  N   UNK N   1      37.188  13.813  12.063  0.00  0.00    -0.176 N 
ATOM      5  HN  UNK N   1      37.855  14.577  11.961  1.00  0.00     0.186 HD
HETATM    6  C   UNK N   1      36.981  12.976  11.020  0.00  0.00     0.677 A 
HETATM    7  N   UNK N   1      36.102  11.952  11.133  0.00  0.00    -0.191 N 
ATOM      8  HN  UNK N   1      35.957  11.328  10.339  1.00  0.00     0.184 HD
HETATM    9  C   UNK N   1      34.517  10.674  12.345  0.00  0.00     0.031 A 
HETATM   10  C   UNK N   1      33.791  10.435  13.506  0.00  0.00     0.004 A 
HETATM   11  C   UNK N   1      33.953  11.265  14.613  0.00  0.00     0.020 A 
HETATM   12  C   UNK N   1      34.842  12.347  14.593  0.00  0.00     0.021 A 
HETATM   13  N   UNK N   1      37.684  13.173   9.817  0.00  0.00    -0.234 N 
HETATM   14  H   UNK N   1      38.324  13.916   9.736  0.00  0.00     0.174 HD
HETATM   15  H   UNK N   1      37.534  12.569   9.054  0.00  0.00     0.174 HD
ENDROOT
BRANCH  12  16
HETATM   16  S   UNK N   1      35.015  13.420  16.060  0.00  0.00    -0.090 SA
BRANCH  16  17
HETATM   17  C   UNK N   1      35.332  12.411  17.524  0.00  0.00     0.005 A 
HETATM   18  C   UNK N   1      35.104  13.017  18.765  0.00  0.00     0.019 A 
HETATM   19  C   UNK N   1      35.313  12.313  19.951  0.00  0.00     0.001 A 
HETATM   20  C   UNK N   1      35.753  10.988  19.904  0.00  0.00     0.000 A 
HETATM   21  C   UNK N   1      35.984  10.374  18.670  0.00  0.00     0.001 A 
HETATM   22  C   UNK N   1      35.773  11.083  17.482  0.00  0.00     0.019 A 
ENDBRANCH  16  17
ENDBRANCH  12  16
BRANCH   3  23
HETATM   23  N   UNK N   1      36.813  14.581  14.271  0.00  0.00    -0.384 N 
HETATM   24  H   UNK N   1      37.457  15.310  14.119  0.00  0.00     0.157 HD
HETATM   25  H   UNK N   1      36.366  14.494  15.144  0.00  0.00     0.157 HD
ENDBRANCH   3  23
TORSDOF 3
ENDMDL
MODEL 4
REMARK VINA RESULT:      -6.4      1.717      3.147
REMARK  3 active torsions:
REMARK  status: ('A' for Active; 'I' for Inactive)
REMARK    1  A    between atoms: C_3  and  N_9 
REMARK       I    between atoms: C_6  and  N_14 
REMARK    2  A    between atoms: C_13  and  S_15 
REMARK    3  A    between atoms: S_15  and  C_16 
ROOT
HETATM    1  C   UNK N   1      30.813  17.849   8.625  0.00  0.00     0.064 A 
HETATM    2  C   UNK N   1      30.540  17.544   7.263  0.00  0.00     0.052 A 
HETATM    3  C   UNK N   1      31.668  17.366   6.411  0.00  0.00     0.128 A 
HETATM    4  N   UNK N   1      32.921  17.486   6.917  0.00  0.00    -0.176 N 
ATOM      5  HN  UNK N   1      33.721  17.356   6.298  1.00  0.00     0.186 HD
HETATM    6  C   UNK N   1      33.139  17.775   8.221  0.00  0.00     0.677 A 
HETATM    7  N   UNK N   1      32.092  17.954   9.062  0.00  0.00    -0.191 N 
ATOM      8  HN  UNK N   1      32.271  18.173  10.042  1.00  0.00     0.184 HD
HETATM    9  C   UNK N   1      29.771  18.042   9.531  0.00  0.00     0.031 A 
HETATM   10  C   UNK N   1      28.449  17.937   9.114  0.00  0.00     0.004 A 
HETATM   11  C   UNK N   1      28.159  17.634   7.785  0.00  0.00     0.020 A 
HETATM   12  C   UNK N   1      29.174  17.435   6.841  0.00  0.00     0.021 A 
HETATM   13  N   UNK N   1      34.457  17.888   8.701  0.00  0.00    -0.234 N 
HETATM   14  H   UNK N   1      35.217  17.759   8.089  0.00  0.00     0.174 HD
HETATM   15  H   UNK N   1      34.619  18.094   9.650  0.00  0.00     0.174 HD
ENDROOT
BRANCH  12  16
HETATM   16  S   UNK N   1      28.753  17.027   5.112  0.00  0.00    -0.090 SA
BRANCH  16  17
HETATM   17  C   UNK N   1      27.544  18.211   4.480  0.00  0.00     0.005 A 
HETATM   18  C   UNK N   1      27.887  19.565   4.567  0.00  0.00     0.019 A 
HETATM   19  C   UNK N   1      27.021  20.552   4.095  0.00  0.00     0.001 A 
HETATM   20  C   UNK N   1      25.797  20.189   3.529  0.00  0.00     0.000 A 
HETATM   21  C   UNK N   1      25.444  18.840   3.437  0.00  0.00     0.001 A 
HETATM   22  C   UNK N   1      26.317  17.852   3.910  0.00  0.00     0.019 A 
ENDBRANCH  16  17
ENDBRANCH  12  16
BRANCH   3  23
HETATM   23  N   UNK N   1      31.540  17.065   5.041  0.00  0.00    -0.384 N 
HETATM   24  H   UNK N   1      32.268  17.290   4.417  0.00  0.00     0.157 HD
HETATM   25  H   UNK N   1      30.723  16.630   4.706  0.00  0.00     0.157 HD
ENDBRANCH   3  23
TORSDOF 3
ENDMDL
MODEL 5
REMARK VINA RESULT:      -6.4      3.414      5.496
REMARK  3 active torsions:
REMARK  status: ('A' for Active; 'I' for Inactive)
REMARK    1  A    between atoms: C_3  and  N_9 
REMARK       I    between atoms: C_6  and  N_14 
REMARK    2  A    between atoms: C_13  and  S_15 
REMARK    3  A    between atoms: S_15  and  C_16 
ROOT
HETATM    1  C   UNK N   1      34.811  13.555  10.384  0.00  0.00     0.064 A 
HETATM    2  C   UNK N   1      34.617  14.938  10.117  0.00  0.00     0.052 A 
HETATM    3  C   UNK N   1      35.293  15.853  10.976  0.00  0.00     0.128 A 
HETATM    4  N   UNK N   1      36.075  15.384  11.980  0.00  0.00    -0.176 N 
ATOM      5  HN  UNK N   1      36.554  16.048  12.588  1.00  0.00     0.186 HD
HETATM    6  C   UNK N   1      36.236  14.058  12.199  0.00  0.00     0.677 A 
HETATM    7  N   UNK N   1      35.608  13.157  11.407  0.00  0.00    -0.191 N 
ATOM      8  HN  UNK N   1      35.737  12.161  11.583  1.00  0.00     0.184 HD
HETATM    9  C   UNK N   1      34.188  12.587   9.598  0.00  0.00     0.031 A 
HETATM   10  C   UNK N   1      33.368  12.963   8.540  0.00  0.00     0.004 A 
HETATM   11  C   UNK N   1      33.168  14.313   8.258  0.00  0.00     0.020 A 
HETATM   12  C   UNK N   1      33.772  15.318   9.024  0.00  0.00     0.021 A 
HETATM   13  N   UNK N   1      37.060  13.619  13.252  0.00  0.00    -0.234 N 
HETATM   14  H   UNK N   1      37.515  14.274  13.829  0.00  0.00     0.174 HD
HETATM   15  H   UNK N   1      37.182  12.655  13.412  0.00  0.00     0.174 HD
ENDROOT
BRANCH  12  16
HETATM   16  S   UNK N   1      33.496  17.075   8.615  0.00  0.00    -0.090 SA
BRANCH  16  17
HETATM   17  C   UNK N   1      32.686  17.210   7.006  0.00  0.00     0.005 A 
HETATM   18  C   UNK N   1      33.519  17.396   5.897  0.00  0.00     0.019 A 
HETATM   19  C   UNK N   1      32.985  17.502   4.613  0.00  0.00     0.001 A 
HETATM   20  C   UNK N   1      31.603  17.421   4.426  0.00  0.00     0.000 A 
HETATM   21  C   UNK N   1      30.761  17.235   5.527  0.00  0.00     0.001 A 
HETATM   22  C   UNK N   1      31.302  17.129   6.814  0.00  0.00     0.019 A 
ENDBRANCH  16  17
ENDBRANCH  12  16
BRANCH   3  23
HETATM   23  N   UNK N   1      35.184  17.250  10.827  0.00  0.00    -0.384 N 
HETATM   24  H   UNK N   1      34.586  17.763  11.417  0.00  0.00     0.157 HD
HETATM   25  H   UNK N   1      35.707  17.713  10.133  0.00  0.00     0.157 HD
ENDBRANCH   3  23
TORSDOF 3
ENDMDL
MODEL 6
REMARK VINA RESULT:      -6.3      8.878     11.150
REMARK  3 active torsions:
REMARK  status: ('A' for Active; 'I' for Inactive)
REMARK    1  A    between atoms: C_3  and  N_9 
REMARK       I    between atoms: C_6  and  N_14 
REMARK    2  A    between atoms: C_13  and  S_15 
REMARK    3  A    between atoms: S_15  and  C_16 
ROOT
HETATM    1  C   UNK N   1      22.297  19.367   3.171  0.00  0.00     0.064 A 
HETATM    2  C   UNK N   1      21.445  18.257   3.424  0.00  0.00     0.052 A 
HETATM    3  C   UNK N   1      20.201  18.237   2.728  0.00  0.00     0.128 A 
HETATM    4  N   UNK N   1      19.889  19.244   1.874  0.00  0.00    -0.176 N 
ATOM      5  HN  UNK N   1      18.997  19.219   1.382  1.00  0.00     0.186 HD
HETATM    6  C   UNK N   1      20.731  20.282   1.659  0.00  0.00     0.677 A 
HETATM    7  N   UNK N   1      21.920  20.339   2.304  0.00  0.00    -0.191 N 
ATOM      8  HN  UNK N   1      22.544  21.127   2.133  1.00  0.00     0.184 HD
HETATM    9  C   UNK N   1      23.532  19.472   3.809  0.00  0.00     0.031 A 
HETATM   10  C   UNK N   1      23.948  18.490   4.700  0.00  0.00     0.004 A 
HETATM   11  C   UNK N   1      23.131  17.392   4.960  0.00  0.00     0.020 A 
HETATM   12  C   UNK N   1      21.881  17.247   4.343  0.00  0.00     0.021 A 
HETATM   13  N   UNK N   1      20.365  21.303   0.762  0.00  0.00    -0.234 N 
HETATM   14  H   UNK N   1      19.499  21.262   0.295  0.00  0.00     0.174 HD
HETATM   15  H   UNK N   1      20.976  22.058   0.600  0.00  0.00     0.174 HD
ENDROOT
BRANCH  12  16
HETATM   16  S   UNK N   1      20.845  15.787   4.699  0.00  0.00    -0.090 SA
BRANCH  16  17
HETATM   17  C   UNK N   1      20.755  15.519   6.483  0.00  0.00     0.005 A 
HETATM   18  C   UNK N   1      21.078  14.237   6.943  0.00  0.00     0.019 A 
HETATM   19  C   UNK N   1      21.046  13.939   8.305  0.00  0.00     0.001 A 
HETATM   20  C   UNK N   1      20.687  14.927   9.224  0.00  0.00     0.000 A 
HETATM   21  C   UNK N   1      20.362  16.211   8.776  0.00  0.00     0.001 A 
HETATM   22  C   UNK N   1      20.397  16.507   7.408  0.00  0.00     0.019 A 
ENDBRANCH  16  17
ENDBRANCH  12  16
BRANCH   3  23
HETATM   23  N   UNK N   1      19.262  17.200   2.890  0.00  0.00    -0.384 N 
HETATM   24  H   UNK N   1      19.470  16.432   3.471  0.00  0.00     0.157 HD
HETATM   25  H   UNK N   1      18.396  17.241   2.422  0.00  0.00     0.157 HD
ENDBRANCH   3  23
TORSDOF 3
ENDMDL
MODEL 7
REMARK VINA RESULT:      -6.2     10.346     12.024
REMARK  3 active torsions:
REMARK  status: ('A' for Active; 'I' for Inactive)
REMARK    1  A    between atoms: C_3  and  N_9 
REMARK       I    between atoms: C_6  and  N_14 
REMARK    2  A    between atoms: C_13  and  S_15 
REMARK    3  A    between atoms: S_15  and  C_16 
ROOT
HETATM    1  C   UNK N   1      20.880  18.196   3.954  0.00  0.00     0.064 A 
HETATM    2  C   UNK N   1      20.488  17.367   2.867  0.00  0.00     0.052 A 
HETATM    3  C   UNK N   1      20.235  18.021   1.626  0.00  0.00     0.128 A 
HETATM    4  N   UNK N   1      20.378  19.366   1.531  0.00  0.00    -0.176 N 
ATOM      5  HN  UNK N   1      20.195  19.823   0.638  1.00  0.00     0.186 HD
HETATM    6  C   UNK N   1      20.756  20.120   2.589  0.00  0.00     0.677 A 
HETATM    7  N   UNK N   1      21.002  19.536   3.786  0.00  0.00    -0.191 N 
ATOM      8  HN  UNK N   1      21.286  20.116   4.576  1.00  0.00     0.184 HD
HETATM    9  C   UNK N   1      21.146  17.644   5.206  0.00  0.00     0.031 A 
HETATM   10  C   UNK N   1      21.033  16.273   5.408  0.00  0.00     0.004 A 
HETATM   11  C   UNK N   1      20.654  15.442   4.356  0.00  0.00     0.020 A 
HETATM   12  C   UNK N   1      20.375  15.954   3.082  0.00  0.00     0.021 A 
HETATM   13  N   UNK N   1      20.893  21.513   2.442  0.00  0.00    -0.234 N 
HETATM   14  H   UNK N   1      20.712  21.937   1.573  0.00  0.00     0.174 HD
HETATM   15  H   UNK N   1      21.172  22.064   3.209  0.00  0.00     0.174 HD
ENDROOT
BRANCH  12  16
HETATM   16  S   UNK N   1      19.895  14.831   1.726  0.00  0.00    -0.090 SA
BRANCH  16  17
HETATM   17  C   UNK N   1      21.352  13.958   1.109  0.00  0.00     0.005 A 
HETATM   18  C   UNK N   1      22.550  14.680   1.078  0.00  0.00     0.019 A 
HETATM   19  C   UNK N   1      23.729  14.087   0.626  0.00  0.00     0.001 A 
HETATM   20  C   UNK N   1      23.718  12.758   0.198  0.00  0.00     0.000 A 
HETATM   21  C   UNK N   1      22.526  12.027   0.225  0.00  0.00     0.001 A 
HETATM   22  C   UNK N   1      21.346  12.626   0.680  0.00  0.00     0.019 A 
ENDBRANCH  16  17
ENDBRANCH  12  16
BRANCH   3  23
HETATM   23  N   UNK N   1      19.835  17.320   0.471  0.00  0.00    -0.384 N 
HETATM   24  H   UNK N   1      20.400  17.337  -0.336  0.00  0.00     0.157 HD
HETATM   25  H   UNK N   1      18.991  16.813   0.469  0.00  0.00     0.157 HD
ENDBRANCH   3  23
TORSDOF 3
ENDMDL
MODEL 8
REMARK VINA RESULT:      -6.2      7.208     10.158
REMARK  3 active torsions:
REMARK  status: ('A' for Active; 'I' for Inactive)
REMARK    1  A    between atoms: C_3  and  N_9 
REMARK       I    between atoms: C_6  and  N_14 
REMARK    2  A    between atoms: C_13  and  S_15 
REMARK    3  A    between atoms: S_15  and  C_16 
ROOT
HETATM    1  C   UNK N   1      34.632  12.051  15.479  0.00  0.00     0.064 A 
HETATM    2  C   UNK N   1      35.503  12.750  14.600  0.00  0.00     0.052 A 
HETATM    3  C   UNK N   1      36.273  13.805  15.172  0.00  0.00     0.128 A 
HETATM    4  N   UNK N   1      36.152  14.089  16.492  0.00  0.00    -0.176 N 
ATOM      5  HN  UNK N   1      36.708  14.845  16.890  1.00  0.00     0.186 HD
HETATM    6  C   UNK N   1      35.313  13.396  17.297  0.00  0.00     0.677 A 
HETATM    7  N   UNK N   1      34.562  12.389  16.791  0.00  0.00    -0.191 N 
ATOM      8  HN  UNK N   1      33.933  11.876  17.408  1.00  0.00     0.184 HD
HETATM    9  C   UNK N   1      33.839  11.006  15.008  0.00  0.00     0.031 A 
HETATM   10  C   UNK N   1      33.891  10.633  13.670  0.00  0.00     0.004 A 
HETATM   11  C   UNK N   1      34.741  11.302  12.792  0.00  0.00     0.020 A 
HETATM   12  C   UNK N   1      35.553  12.359  13.222  0.00  0.00     0.021 A 
HETATM   13  N   UNK N   1      35.223  13.726  18.662  0.00  0.00    -0.234 N 
HETATM   14  H   UNK N   1      35.767  14.459  19.029  0.00  0.00     0.174 HD
HETATM   15  H   UNK N   1      34.616  13.222  19.251  0.00  0.00     0.174 HD
ENDROOT
BRANCH  12  16
HETATM   16  S   UNK N   1      36.663  13.202  12.043  0.00  0.00    -0.090 SA
BRANCH  16  17
HETATM   17  C   UNK N   1      35.736  14.433  11.101  0.00  0.00     0.005 A 
HETATM   18  C   UNK N   1      34.697  13.955  10.296  0.00  0.00     0.019 A 
HETATM   19  C   UNK N   1      33.919  14.833   9.539  0.00  0.00     0.001 A 
HETATM   20  C   UNK N   1      34.178  16.204   9.583  0.00  0.00     0.000 A 
HETATM   21  C   UNK N   1      35.214  16.693  10.384  0.00  0.00     0.001 A 
HETATM   22  C   UNK N   1      35.991  15.809  11.143  0.00  0.00     0.019 A 
ENDBRANCH  16  17
ENDBRANCH  12  16
BRANCH   3  23
HETATM   23  N   UNK N   1      37.171  14.582  14.413  0.00  0.00    -0.384 N 
HETATM   24  H   UNK N   1      36.899  14.929  13.533  0.00  0.00     0.157 HD
HETATM   25  H   UNK N   1      38.070  14.777  14.762  0.00  0.00     0.157 HD
ENDBRANCH   3  23
TORSDOF 3
ENDMDL
MODEL 9
REMARK VINA RESULT:      -6.2      8.963     11.130
REMARK  3 active torsions:
REMARK  status: ('A' for Active; 'I' for Inactive)
REMARK    1  A    between atoms: C_3  and  N_9 
REMARK       I    between atoms: C_6  and  N_14 
REMARK    2  A    between atoms: C_13  and  S_15 
REMARK    3  A    between atoms: S_15  and  C_16 
ROOT
HETATM    1  C   UNK N   1      20.980  16.951   7.169  0.00  0.00     0.064 A 
HETATM    2  C   UNK N   1      21.458  15.615   7.078  0.00  0.00     0.052 A 
HETATM    3  C   UNK N   1      22.439  15.356   6.077  0.00  0.00     0.128 A 
HETATM    4  N   UNK N   1      22.870  16.364   5.277  0.00  0.00    -0.176 N 
ATOM      5  HN  UNK N   1      23.572  16.167   4.565  1.00  0.00     0.186 HD
HETATM    6  C   UNK N   1      22.391  17.624   5.399  0.00  0.00     0.677 A 
HETATM    7  N   UNK N   1      21.456  17.909   6.336  0.00  0.00    -0.191 N 
ATOM      8  HN  UNK N   1      21.103  18.863   6.416  1.00  0.00     0.184 HD
HETATM    9  C   UNK N   1      20.019  17.297   8.117  0.00  0.00     0.031 A 
HETATM   10  C   UNK N   1      19.515  16.338   8.988  0.00  0.00     0.004 A 
HETATM   11  C   UNK N   1      19.972  15.024   8.919  0.00  0.00     0.020 A 
HETATM   12  C   UNK N   1      20.935  14.632   7.981  0.00  0.00     0.021 A 
HETATM   13  N   UNK N   1      22.869  18.638   4.548  0.00  0.00    -0.234 N 
HETATM   14  H   UNK N   1      23.547  18.430   3.865  0.00  0.00     0.174 HD
HETATM   15  H   UNK N   1      22.526  19.557   4.635  0.00  0.00     0.174 HD
ENDROOT
BRANCH  12  16
HETATM   16  S   UNK N   1      21.519  12.903   7.931  0.00  0.00    -0.090 SA
BRANCH  16  17
HETATM   17  C   UNK N   1      22.474  12.535   9.419  0.00  0.00     0.005 A 
HETATM   18  C   UNK N   1      23.866  12.512   9.283  0.00  0.00     0.019 A 
HETATM   19  C   UNK N   1      24.687  12.246  10.379  0.00  0.00     0.001 A 
HETATM   20  C   UNK N   1      24.116  12.000  11.630  0.00  0.00     0.000 A 
HETATM   21  C   UNK N   1      22.726  12.020  11.778  0.00  0.00     0.001 A 
HETATM   22  C   UNK N   1      21.907  12.288  10.675  0.00  0.00     0.019 A 
ENDBRANCH  16  17
ENDBRANCH  12  16
BRANCH   3  23
HETATM   23  N   UNK N   1      22.993  14.077   5.875  0.00  0.00    -0.384 N 
HETATM   24  H   UNK N   1      23.904  13.986   5.511  0.00  0.00     0.157 HD
HETATM   25  H   UNK N   1      22.471  13.273   6.098  0.00  0.00     0.157 HD
ENDBRANCH   3  23
TORSDOF 3
ENDMDL
