REMARK  3 active torsions:
REMARK  status: ('A' for Active; 'I' for Inactive)
REMARK    1  A    between atoms: C_3  and  N_9 
REMARK       I    between atoms: C_6  and  N_14 
REMARK    2  A    between atoms: C_13  and  S_15 
REMARK    3  A    between atoms: S_15  and  C_16 
ROOT
HETATM    1  C   UNK N   1      -1.487  -2.445  -0.006  0.00  0.00     0.064 A 
HETATM    2  C   UNK N   1      -1.530  -1.024   0.003  0.00  0.00     0.052 A 
HETATM    3  C   UNK N   1      -2.824  -0.425   0.001  0.00  0.00     0.128 A 
HETATM    4  N   UNK N   1      -3.930  -1.210  -0.004  0.00  0.00    -0.176 N 
ATOM      5  HN  UNK N   1      -4.850  -0.771  -0.005  1.00  0.00     0.186 HD
HETATM    6  C   UNK N   1      -3.846  -2.561  -0.009  0.00  0.00     0.677 A 
HETATM    7  N   UNK N   1      -2.635  -3.167  -0.011  0.00  0.00    -0.191 N 
ATOM      8  HN  UNK N   1      -2.586  -4.186  -0.016  1.00  0.00     0.184 HD
HETATM    9  C   UNK N   1      -0.266  -3.117  -0.007  0.00  0.00     0.031 A 
HETATM   10  C   UNK N   1       0.928  -2.405   0.002  0.00  0.00     0.004 A 
HETATM   11  C   UNK N   1       0.909  -1.012   0.015  0.00  0.00     0.020 A 
HETATM   12  C   UNK N   1      -0.295  -0.296   0.014  0.00  0.00     0.021 A 
HETATM   13  N   UNK N   1      -5.022  -3.334  -0.012  0.00  0.00    -0.234 N 
HETATM   14  H   UNK N   1      -5.902  -2.893  -0.013  0.00  0.00     0.174 HD
HETATM   15  H   UNK N   1      -4.965  -4.317  -0.012  0.00  0.00     0.174 HD
ENDROOT
BRANCH  12  16
HETATM   16  S   UNK N   1      -0.278   1.529   0.045  0.00  0.00    -0.090 SA
BRANCH  16  17
HETATM   17  C   UNK N   1       1.426   2.127   0.011  0.00  0.00     0.005 A 
HETATM   18  C   UNK N   1       1.604   3.515  -0.005  0.00  0.00     0.019 A 
HETATM   19  C   UNK N   1       2.884   4.070  -0.022  0.00  0.00     0.001 A 
HETATM   20  C   UNK N   1       4.003   3.235  -0.023  0.00  0.00     0.000 A 
HETATM   21  C   UNK N   1       3.837   1.847  -0.007  0.00  0.00     0.001 A 
HETATM   22  C   UNK N   1       2.551   1.294   0.011  0.00  0.00     0.019 A 
ENDBRANCH  16  17
ENDBRANCH  12  16
BRANCH   3  23
HETATM   23  N   UNK N   1      -3.010   0.971   0.004  0.00  0.00    -0.384 N 
HETATM   24  H   UNK N   1      -2.230   1.572   0.006  0.00  0.00     0.157 HD
HETATM   25  H   UNK N   1      -3.920   1.347   0.004  0.00  0.00     0.157 HD
ENDBRANCH   3  23
TORSDOF 3
