MODEL 1
REMARK VINA RESULT:      -7.3      0.000      0.000
REMARK  3 active torsions:
REMARK  status: ('A' for Active; 'I' for Inactive)
REMARK    1  A    between atoms: C_3  and  N_9 
REMARK       I    between atoms: C_6  and  N_14 
REMARK    2  A    between atoms: C_13  and  S_15 
REMARK    3  A    between atoms: S_15  and  C_16 
ROOT
HETATM    1  C   UNK N   1      33.036  17.451   6.364  0.00  0.00     0.064 A 
HETATM    2  C   UNK N   1      31.693  17.273   6.796  0.00  0.00     0.052 A 
HETATM    3  C   UNK N   1      31.483  17.183   8.203  0.00  0.00     0.128 A 
HETATM    4  N   UNK N   1      32.540  17.268   9.049  0.00  0.00    -0.176 N 
ATOM      5  HN  UNK N   1      32.377  17.202  10.054  1.00  0.00     0.186 HD
HETATM    6  C   UNK N   1      33.804  17.438   8.598  0.00  0.00     0.677 A 
HETATM    7  N   UNK N   1      34.045  17.528   7.267  0.00  0.00    -0.191 N 
ATOM      8  HN  UNK N   1      35.002  17.656   6.940  1.00  0.00     0.184 HD
HETATM    9  C   UNK N   1      33.336  17.550   5.006  0.00  0.00     0.031 A 
HETATM   10  C   UNK N   1      32.325  17.475   4.056  0.00  0.00     0.004 A 
HETATM   11  C   UNK N   1      31.002  17.301   4.456  0.00  0.00     0.020 A 
HETATM   12  C   UNK N   1      30.654  17.197   5.809  0.00  0.00     0.021 A 
HETATM   13  N   UNK N   1      34.871  17.520   9.513  0.00  0.00    -0.234 N 
HETATM   14  H   UNK N   1      34.696  17.455  10.480  0.00  0.00     0.174 HD
HETATM   15  H   UNK N   1      35.791  17.644   9.187  0.00  0.00     0.174 HD
ENDROOT
BRANCH  12  16
HETATM   16  S   UNK N   1      28.907  16.970   6.287  0.00  0.00    -0.090 SA
BRANCH  16  17
HETATM   17  C   UNK N   1      27.836  17.944   5.202  0.00  0.00     0.005 A 
HETATM   18  C   UNK N   1      28.081  19.321   5.156  0.00  0.00     0.019 A 
HETATM   19  C   UNK N   1      27.308  20.157   4.348  0.00  0.00     0.008 A 
HETATM   20  C   UNK N   1      26.279  19.620   3.576  0.00  0.00    -0.062 A 
HETATM   21  C   UNK N   1      26.024  18.245   3.612  0.00  0.00     0.008 A 
HETATM   22  C   UNK N   1      25.458  20.514   2.717  0.00  0.00     0.048 C 
HETATM   23  C   UNK N   1      26.800  17.409   4.423  0.00  0.00     0.019 A 
ENDBRANCH  16  17
ENDBRANCH  12  16
BRANCH   3  24
HETATM   24  N   UNK N   1      30.203  17.006   8.765  0.00  0.00    -0.384 N 
HETATM   25  H   UNK N   1      29.499  17.676   8.606  0.00  0.00     0.157 HD
HETATM   26  H   UNK N   1      30.013  16.213   9.317  0.00  0.00     0.157 HD
ENDBRANCH   3  24
TORSDOF 3
ENDMDL
MODEL 2
REMARK VINA RESULT:      -7.0      1.600      2.923
REMARK  3 active torsions:
REMARK  status: ('A' for Active; 'I' for Inactive)
REMARK    1  A    between atoms: C_3  and  N_9 
REMARK       I    between atoms: C_6  and  N_14 
REMARK    2  A    between atoms: C_13  and  S_15 
REMARK    3  A    between atoms: S_15  and  C_16 
ROOT
HETATM    1  C   UNK N   1      30.794  17.872   8.647  0.00  0.00     0.064 A 
HETATM    2  C   UNK N   1      30.503  17.464   7.316  0.00  0.00     0.052 A 
HETATM    3  C   UNK N   1      31.621  17.251   6.456  0.00  0.00     0.128 A 
HETATM    4  N   UNK N   1      32.879  17.440   6.928  0.00  0.00    -0.176 N 
ATOM      5  HN  UNK N   1      33.671  17.285   6.303  1.00  0.00     0.186 HD
HETATM    6  C   UNK N   1      33.114  17.830   8.202  0.00  0.00     0.677 A 
HETATM    7  N   UNK N   1      32.078  18.042   9.049  0.00  0.00    -0.191 N 
ATOM      8  HN  UNK N   1      32.268  18.335  10.007  1.00  0.00     0.184 HD
HETATM    9  C   UNK N   1      29.765  18.104   9.558  0.00  0.00     0.031 A 
HETATM   10  C   UNK N   1      28.439  17.938   9.176  0.00  0.00     0.004 A 
HETATM   11  C   UNK N   1      28.130  17.539   7.878  0.00  0.00     0.020 A 
HETATM   12  C   UNK N   1      29.132  17.295   6.929  0.00  0.00     0.021 A 
HETATM   13  N   UNK N   1      34.437  18.013   8.646  0.00  0.00    -0.234 N 
HETATM   14  H   UNK N   1      35.189  17.859   8.030  0.00  0.00     0.174 HD
HETATM   15  H   UNK N   1      34.610  18.296   9.573  0.00  0.00     0.174 HD
ENDROOT
BRANCH  12  16
HETATM   16  S   UNK N   1      28.681  16.774   5.239  0.00  0.00    -0.090 SA
BRANCH  16  17
HETATM   17  C   UNK N   1      27.546  17.975   4.503  0.00  0.00     0.005 A 
HETATM   18  C   UNK N   1      26.341  17.471   4.001  0.00  0.00     0.019 A 
HETATM   19  C   UNK N   1      25.401  18.318   3.414  0.00  0.00     0.008 A 
HETATM   20  C   UNK N   1      25.659  19.686   3.323  0.00  0.00    -0.062 A 
HETATM   21  C   UNK N   1      26.859  20.204   3.821  0.00  0.00     0.008 A 
HETATM   22  C   UNK N   1      24.655  20.586   2.698  0.00  0.00     0.048 C 
HETATM   23  C   UNK N   1      27.801  19.351   4.409  0.00  0.00     0.019 A 
ENDBRANCH  16  17
ENDBRANCH  12  16
BRANCH   3  24
HETATM   24  N   UNK N   1      31.474  16.845   5.115  0.00  0.00    -0.384 N 
HETATM   25  H   UNK N   1      31.623  15.905   4.866  0.00  0.00     0.157 HD
HETATM   26  H   UNK N   1      31.223  17.504   4.426  0.00  0.00     0.157 HD
ENDBRANCH   3  24
TORSDOF 3
ENDMDL
MODEL 3
REMARK VINA RESULT:      -6.7     10.617     13.679
REMARK  3 active torsions:
REMARK  status: ('A' for Active; 'I' for Inactive)
REMARK    1  A    between atoms: C_3  and  N_9 
REMARK       I    between atoms: C_6  and  N_14 
REMARK    2  A    between atoms: C_13  and  S_15 
REMARK    3  A    between atoms: S_15  and  C_16 
ROOT
HETATM    1  C   UNK N   1      35.438  11.736  12.322  0.00  0.00     0.064 A 
HETATM    2  C   UNK N   1      35.492  12.479  13.533  0.00  0.00     0.052 A 
HETATM    3  C   UNK N   1      36.400  13.578  13.567  0.00  0.00     0.128 A 
HETATM    4  N   UNK N   1      37.153  13.863  12.475  0.00  0.00    -0.176 N 
ATOM      5  HN  UNK N   1      37.799  14.652  12.512  1.00  0.00     0.186 HD
HETATM    6  C   UNK N   1      37.073  13.131  11.340  0.00  0.00     0.677 A 
HETATM    7  N   UNK N   1      36.223  12.079  11.269  0.00  0.00    -0.191 N 
ATOM      8  HN  UNK N   1      36.171  11.535  10.408  1.00  0.00     0.184 HD
HETATM    9  C   UNK N   1      34.580  10.645  12.197  0.00  0.00     0.031 A 
HETATM   10  C   UNK N   1      33.765  10.268  13.257  0.00  0.00     0.004 A 
HETATM   11  C   UNK N   1      33.800  10.981  14.454  0.00  0.00     0.020 A 
HETATM   12  C   UNK N   1      34.647  12.084  14.624  0.00  0.00     0.021 A 
HETATM   13  N   UNK N   1      37.875  13.464  10.233  0.00  0.00    -0.234 N 
HETATM   14  H   UNK N   1      38.493  14.229  10.285  0.00  0.00     0.174 HD
HETATM   15  H   UNK N   1      37.819  12.934   9.406  0.00  0.00     0.174 HD
ENDROOT
BRANCH  12  16
HETATM   16  S   UNK N   1      34.660  12.989  16.209  0.00  0.00    -0.090 SA
BRANCH  16  17
HETATM   17  C   UNK N   1      35.351  11.942  17.513  0.00  0.00     0.005 A 
HETATM   18  C   UNK N   1      35.239  12.421  18.823  0.00  0.00     0.019 A 
HETATM   19  C   UNK N   1      35.741  11.686  19.898  0.00  0.00     0.008 A 
HETATM   20  C   UNK N   1      36.363  10.459  19.670  0.00  0.00    -0.062 A 
HETATM   21  C   UNK N   1      36.481   9.968  18.365  0.00  0.00     0.008 A 
HETATM   22  C   UNK N   1      36.896   9.679  20.817  0.00  0.00     0.048 C 
HETATM   23  C   UNK N   1      35.977  10.708  17.289  0.00  0.00     0.019 A 
ENDBRANCH  16  17
ENDBRANCH  12  16
BRANCH   3  24
HETATM   24  N   UNK N   1      36.551  14.396  14.704  0.00  0.00    -0.384 N 
HETATM   25  H   UNK N   1      36.850  15.329  14.603  0.00  0.00     0.157 HD
HETATM   26  H   UNK N   1      36.358  14.035  15.600  0.00  0.00     0.157 HD
ENDBRANCH   3  24
TORSDOF 3
ENDMDL
MODEL 4
REMARK VINA RESULT:      -6.6      6.967     10.193
REMARK  3 active torsions:
REMARK  status: ('A' for Active; 'I' for Inactive)
REMARK    1  A    between atoms: C_3  and  N_9 
REMARK       I    between atoms: C_6  and  N_14 
REMARK    2  A    between atoms: C_13  and  S_15 
REMARK    3  A    between atoms: S_15  and  C_16 
ROOT
HETATM    1  C   UNK N   1      34.625  11.925  15.238  0.00  0.00     0.064 A 
HETATM    2  C   UNK N   1      35.462  12.700  14.389  0.00  0.00     0.052 A 
HETATM    3  C   UNK N   1      36.192  13.758  15.007  0.00  0.00     0.128 A 
HETATM    4  N   UNK N   1      36.063  13.977  16.339  0.00  0.00    -0.176 N 
ATOM      5  HN  UNK N   1      36.590  14.737  16.770  1.00  0.00     0.186 HD
HETATM    6  C   UNK N   1      35.254  13.216  17.113  0.00  0.00     0.677 A 
HETATM    7  N   UNK N   1      34.544  12.202  16.564  0.00  0.00    -0.191 N 
ATOM      8  HN  UNK N   1      33.939  11.636  17.158  1.00  0.00     0.184 HD
HETATM    9  C   UNK N   1      33.873  10.871  14.722  0.00  0.00     0.031 A 
HETATM   10  C   UNK N   1      33.934  10.562  13.369  0.00  0.00     0.004 A 
HETATM   11  C   UNK N   1      34.747  11.307  12.517  0.00  0.00     0.020 A 
HETATM   12  C   UNK N   1      35.519  12.375  12.992  0.00  0.00     0.021 A 
HETATM   13  N   UNK N   1      35.152  13.481  18.492  0.00  0.00    -0.234 N 
HETATM   14  H   UNK N   1      35.668  14.219  18.891  0.00  0.00     0.174 HD
HETATM   15  H   UNK N   1      34.565  12.930  19.058  0.00  0.00     0.174 HD
ENDROOT
BRANCH  12  16
HETATM   16  S   UNK N   1      36.571  13.324  11.841  0.00  0.00    -0.090 SA
BRANCH  16  17
HETATM   17  C   UNK N   1      35.555  14.463  10.870  0.00  0.00     0.005 A 
HETATM   18  C   UNK N   1      35.912  15.815  10.917  0.00  0.00     0.019 A 
HETATM   19  C   UNK N   1      35.189  16.770  10.202  0.00  0.00     0.008 A 
HETATM   20  C   UNK N   1      34.097  16.380   9.428  0.00  0.00    -0.062 A 
HETATM   21  C   UNK N   1      33.728  15.031   9.372  0.00  0.00     0.008 A 
HETATM   22  C   UNK N   1      33.329  17.400   8.668  0.00  0.00     0.048 C 
HETATM   23  C   UNK N   1      34.456  14.075  10.091  0.00  0.00     0.019 A 
ENDBRANCH  16  17
ENDBRANCH  12  16
BRANCH   3  24
HETATM   24  N   UNK N   1      37.057  14.601  14.282  0.00  0.00    -0.384 N 
HETATM   25  H   UNK N   1      37.534  14.255  13.493  0.00  0.00     0.157 HD
HETATM   26  H   UNK N   1      37.186  15.535  14.565  0.00  0.00     0.157 HD
ENDBRANCH   3  24
TORSDOF 3
ENDMDL
MODEL 5
REMARK VINA RESULT:      -6.5      3.430      5.446
REMARK  3 active torsions:
REMARK  status: ('A' for Active; 'I' for Inactive)
REMARK    1  A    between atoms: C_3  and  N_9 
REMARK       I    between atoms: C_6  and  N_14 
REMARK    2  A    between atoms: C_13  and  S_15 
REMARK    3  A    between atoms: S_15  and  C_16 
ROOT
HETATM    1  C   UNK N   1      34.845  13.647  10.512  0.00  0.00     0.064 A 
HETATM    2  C   UNK N   1      34.706  15.002  10.103  0.00  0.00     0.052 A 
HETATM    3  C   UNK N   1      35.336  15.984  10.923  0.00  0.00     0.128 A 
HETATM    4  N   UNK N   1      36.022  15.598  12.028  0.00  0.00    -0.176 N 
ATOM      5  HN  UNK N   1      36.469  16.309  12.608  1.00  0.00     0.186 HD
HETATM    6  C   UNK N   1      36.131  14.297  12.384  0.00  0.00     0.677 A 
HETATM    7  N   UNK N   1      35.547  13.335  11.630  0.00  0.00    -0.191 N 
ATOM      8  HN  UNK N   1      35.636  12.358  11.909  1.00  0.00     0.184 HD
HETATM    9  C   UNK N   1      34.262  12.620   9.771  0.00  0.00     0.031 A 
HETATM   10  C   UNK N   1      33.537  12.907   8.622  0.00  0.00     0.004 A 
HETATM   11  C   UNK N   1      33.388  14.227   8.201  0.00  0.00     0.020 A 
HETATM   12  C   UNK N   1      33.955  15.291   8.914  0.00  0.00     0.021 A 
HETATM   13  N   UNK N   1      36.854  13.944  13.540  0.00  0.00    -0.234 N 
HETATM   14  H   UNK N   1      37.278  14.644  14.087  0.00  0.00     0.174 HD
HETATM   15  H   UNK N   1      36.935  12.999  13.800  0.00  0.00     0.174 HD
ENDROOT
BRANCH  12  16
HETATM   16  S   UNK N   1      33.734  17.005   8.327  0.00  0.00    -0.090 SA
BRANCH  16  17
HETATM   17  C   UNK N   1      32.029  17.254   7.774  0.00  0.00     0.005 A 
HETATM   18  C   UNK N   1      31.136  17.778   8.717  0.00  0.00     0.019 A 
HETATM   19  C   UNK N   1      29.800  18.006   8.386  0.00  0.00     0.008 A 
HETATM   20  C   UNK N   1      29.342  17.710   7.103  0.00  0.00    -0.062 A 
HETATM   21  C   UNK N   1      30.223  17.187   6.150  0.00  0.00     0.008 A 
HETATM   22  C   UNK N   1      27.918  17.955   6.754  0.00  0.00     0.048 C 
HETATM   23  C   UNK N   1      31.563  16.959   6.485  0.00  0.00     0.019 A 
ENDBRANCH  16  17
ENDBRANCH  12  16
BRANCH   3  24
HETATM   24  N   UNK N   1      35.276  17.361  10.632  0.00  0.00    -0.384 N 
HETATM   25  H   UNK N   1      35.347  18.021  11.359  0.00  0.00     0.157 HD
HETATM   26  H   UNK N   1      35.164  17.663   9.702  0.00  0.00     0.157 HD
ENDBRANCH   3  24
TORSDOF 3
ENDMDL
MODEL 6
REMARK VINA RESULT:      -6.4      8.628     11.342
REMARK  3 active torsions:
REMARK  status: ('A' for Active; 'I' for Inactive)
REMARK    1  A    between atoms: C_3  and  N_9 
REMARK       I    between atoms: C_6  and  N_14 
REMARK    2  A    between atoms: C_13  and  S_15 
REMARK    3  A    between atoms: S_15  and  C_16 
ROOT
HETATM    1  C   UNK N   1      21.794  17.395   4.303  0.00  0.00     0.064 A 
HETATM    2  C   UNK N   1      20.983  16.314   4.746  0.00  0.00     0.052 A 
HETATM    3  C   UNK N   1      19.640  16.287   4.266  0.00  0.00     0.128 A 
HETATM    4  N   UNK N   1      19.203  17.264   3.432  0.00  0.00    -0.176 N 
ATOM      5  HN  UNK N   1      18.240  17.234   3.096  1.00  0.00     0.186 HD
HETATM    6  C   UNK N   1      20.007  18.277   3.034  0.00  0.00     0.677 A 
HETATM    7  N   UNK N   1      21.289  18.337   3.468  0.00  0.00    -0.191 N 
ATOM      8  HN  UNK N   1      21.885  19.105   3.160  1.00  0.00     0.184 HD
HETATM    9  C   UNK N   1      23.120  17.503   4.720  0.00  0.00     0.031 A 
HETATM   10  C   UNK N   1      23.666  16.554   5.576  0.00  0.00     0.004 A 
HETATM   11  C   UNK N   1      22.890  15.487   6.022  0.00  0.00     0.020 A 
HETATM   12  C   UNK N   1      21.554  15.338   5.629  0.00  0.00     0.021 A 
HETATM   13  N   UNK N   1      19.509  19.268   2.167  0.00  0.00    -0.234 N 
HETATM   14  H   UNK N   1      18.578  19.224   1.852  0.00  0.00     0.174 HD
HETATM   15  H   UNK N   1      20.092  20.005   1.876  0.00  0.00     0.174 HD
ENDROOT
BRANCH  12  16
HETATM   16  S   UNK N   1      20.575  13.924   6.239  0.00  0.00    -0.090 SA
BRANCH  16  17
HETATM   17  C   UNK N   1      21.291  13.292   7.776  0.00  0.00     0.005 A 
HETATM   18  C   UNK N   1      20.846  13.885   8.963  0.00  0.00     0.019 A 
HETATM   19  C   UNK N   1      21.339  13.467  10.199  0.00  0.00     0.008 A 
HETATM   20  C   UNK N   1      22.288  12.446  10.260  0.00  0.00    -0.062 A 
HETATM   21  C   UNK N   1      22.742  11.845   9.081  0.00  0.00     0.008 A 
HETATM   22  C   UNK N   1      22.811  12.003  11.578  0.00  0.00     0.048 C 
HETATM   23  C   UNK N   1      22.245  12.267   7.842  0.00  0.00     0.019 A 
ENDBRANCH  16  17
ENDBRANCH  12  16
BRANCH   3  24
HETATM   24  N   UNK N   1      18.731  15.273   4.627  0.00  0.00    -0.384 N 
HETATM   25  H   UNK N   1      17.845  15.232   4.199  0.00  0.00     0.157 HD
HETATM   26  H   UNK N   1      18.981  14.607   5.307  0.00  0.00     0.157 HD
ENDBRANCH   3  24
TORSDOF 3
ENDMDL
MODEL 7
REMARK VINA RESULT:      -6.4      6.265     10.413
REMARK  3 active torsions:
REMARK  status: ('A' for Active; 'I' for Inactive)
REMARK    1  A    between atoms: C_3  and  N_9 
REMARK       I    between atoms: C_6  and  N_14 
REMARK    2  A    between atoms: C_13  and  S_15 
REMARK    3  A    between atoms: S_15  and  C_16 
ROOT
HETATM    1  C   UNK N   1      33.642  14.325   9.313  0.00  0.00     0.064 A 
HETATM    2  C   UNK N   1      34.736  14.418  10.217  0.00  0.00     0.052 A 
HETATM    3  C   UNK N   1      35.154  15.732  10.579  0.00  0.00     0.128 A 
HETATM    4  N   UNK N   1      34.510  16.809  10.063  0.00  0.00    -0.176 N 
ATOM      5  HN  UNK N   1      34.818  17.745  10.330  1.00  0.00     0.186 HD
HETATM    6  C   UNK N   1      33.472  16.679   9.205  0.00  0.00     0.677 A 
HETATM    7  N   UNK N   1      33.046  15.447   8.837  0.00  0.00    -0.191 N 
ATOM      8  HN  UNK N   1      32.263  15.361   8.190  1.00  0.00     0.184 HD
HETATM    9  C   UNK N   1      33.166  13.081   8.903  0.00  0.00     0.031 A 
HETATM   10  C   UNK N   1      33.755  11.914   9.373  0.00  0.00     0.004 A 
HETATM   11  C   UNK N   1      34.828  11.980  10.259  0.00  0.00     0.020 A 
HETATM   12  C   UNK N   1      35.340  13.208  10.698  0.00  0.00     0.021 A 
HETATM   13  N   UNK N   1      32.835  17.826   8.695  0.00  0.00    -0.234 N 
HETATM   14  H   UNK N   1      33.145  18.721   8.963  0.00  0.00     0.174 HD
HETATM   15  H   UNK N   1      32.080  17.733   8.071  0.00  0.00     0.174 HD
ENDROOT
BRANCH  12  16
HETATM   16  S   UNK N   1      36.747  13.247  11.859  0.00  0.00    -0.090 SA
BRANCH  16  17
HETATM   17  C   UNK N   1      36.146  13.161  13.563  0.00  0.00     0.005 A 
HETATM   18  C   UNK N   1      36.862  13.893  14.517  0.00  0.00     0.019 A 
HETATM   19  C   UNK N   1      36.477  13.890  15.858  0.00  0.00     0.008 A 
HETATM   20  C   UNK N   1      35.365  13.150  16.259  0.00  0.00    -0.062 A 
HETATM   21  C   UNK N   1      34.640  12.413  15.317  0.00  0.00     0.008 A 
HETATM   22  C   UNK N   1      34.957  13.149  17.689  0.00  0.00     0.048 C 
HETATM   23  C   UNK N   1      35.029  12.418  13.972  0.00  0.00     0.019 A 
ENDBRANCH  16  17
ENDBRANCH  12  16
BRANCH   3  24
HETATM   24  N   UNK N   1      36.224  15.966  11.465  0.00  0.00    -0.384 N 
HETATM   25  H   UNK N   1      36.162  15.670  12.401  0.00  0.00     0.157 HD
HETATM   26  H   UNK N   1      37.035  16.427  11.147  0.00  0.00     0.157 HD
ENDBRANCH   3  24
TORSDOF 3
ENDMDL
MODEL 8
REMARK VINA RESULT:      -6.4      4.525      7.932
REMARK  3 active torsions:
REMARK  status: ('A' for Active; 'I' for Inactive)
REMARK    1  A    between atoms: C_3  and  N_9 
REMARK       I    between atoms: C_6  and  N_14 
REMARK    2  A    between atoms: C_13  and  S_15 
REMARK    3  A    between atoms: S_15  and  C_16 
ROOT
HETATM    1  C   UNK N   1      24.716  19.574   3.702  0.00  0.00     0.064 A 
HETATM    2  C   UNK N   1      25.017  18.463   4.535  0.00  0.00     0.052 A 
HETATM    3  C   UNK N   1      23.911  17.681   4.981  0.00  0.00     0.128 A 
HETATM    4  N   UNK N   1      22.652  18.020   4.604  0.00  0.00    -0.176 N 
ATOM      5  HN  UNK N   1      21.868  17.453   4.929  1.00  0.00     0.186 HD
HETATM    6  C   UNK N   1      22.407  19.086   3.809  0.00  0.00     0.677 A 
HETATM    7  N   UNK N   1      23.431  19.853   3.365  0.00  0.00    -0.191 N 
ATOM      8  HN  UNK N   1      23.233  20.654   2.766  1.00  0.00     0.184 HD
HETATM    9  C   UNK N   1      25.734  20.395   3.218  0.00  0.00     0.031 A 
HETATM   10  C   UNK N   1      27.059  20.136   3.545  0.00  0.00     0.004 A 
HETATM   11  C   UNK N   1      27.379  19.052   4.360  0.00  0.00     0.020 A 
HETATM   12  C   UNK N   1      26.388  18.201   4.869  0.00  0.00     0.021 A 
HETATM   13  N   UNK N   1      21.084  19.399   3.444  0.00  0.00    -0.234 N 
HETATM   14  H   UNK N   1      20.339  18.841   3.767  0.00  0.00     0.174 HD
HETATM   15  H   UNK N   1      20.902  20.174   2.866  0.00  0.00     0.174 HD
ENDROOT
BRANCH  12  16
HETATM   16  S   UNK N   1      26.853  16.793   5.933  0.00  0.00    -0.090 SA
BRANCH  16  17
HETATM   17  C   UNK N   1      28.440  17.123   6.738  0.00  0.00     0.005 A 
HETATM   18  C   UNK N   1      29.574  16.572   6.132  0.00  0.00     0.019 A 
HETATM   19  C   UNK N   1      30.843  16.770   6.677  0.00  0.00     0.008 A 
HETATM   20  C   UNK N   1      30.989  17.525   7.840  0.00  0.00    -0.062 A 
HETATM   21  C   UNK N   1      29.864  18.082   8.457  0.00  0.00     0.008 A 
HETATM   22  C   UNK N   1      32.342  17.735   8.419  0.00  0.00     0.048 C 
HETATM   23  C   UNK N   1      28.592  17.882   7.907  0.00  0.00     0.019 A 
ENDBRANCH  16  17
ENDBRANCH  12  16
BRANCH   3  24
HETATM   24  N   UNK N   1      24.069  16.554   5.811  0.00  0.00    -0.384 N 
HETATM   25  H   UNK N   1      24.928  16.072   5.828  0.00  0.00     0.157 HD
HETATM   26  H   UNK N   1      23.321  16.247   6.373  0.00  0.00     0.157 HD
ENDBRANCH   3  24
TORSDOF 3
ENDMDL
MODEL 9
REMARK VINA RESULT:      -6.3      9.866     11.495
REMARK  3 active torsions:
REMARK  status: ('A' for Active; 'I' for Inactive)
REMARK    1  A    between atoms: C_3  and  N_9 
REMARK       I    between atoms: C_6  and  N_14 
REMARK    2  A    between atoms: C_13  and  S_15 
REMARK    3  A    between atoms: S_15  and  C_16 
ROOT
HETATM    1  C   UNK N   1      21.065  18.537   4.115  0.00  0.00     0.064 A 
HETATM    2  C   UNK N   1      20.458  17.570   3.267  0.00  0.00     0.052 A 
HETATM    3  C   UNK N   1      19.985  18.036   2.005  0.00  0.00     0.128 A 
HETATM    4  N   UNK N   1      20.129  19.344   1.674  0.00  0.00    -0.176 N 
ATOM      5  HN  UNK N   1      19.786  19.666   0.768  1.00  0.00     0.186 HD
HETATM    6  C   UNK N   1      20.713  20.233   2.509  0.00  0.00     0.677 A 
HETATM    7  N   UNK N   1      21.175  19.829   3.717  0.00  0.00    -0.191 N 
ATOM      8  HN  UNK N   1      21.613  20.509   4.338  1.00  0.00     0.184 HD
HETATM    9  C   UNK N   1      21.557  18.172   5.367  0.00  0.00     0.031 A 
HETATM   10  C   UNK N   1      21.460  16.857   5.804  0.00  0.00     0.004 A 
HETATM   11  C   UNK N   1      20.869  15.892   4.990  0.00  0.00     0.020 A 
HETATM   12  C   UNK N   1      20.361  16.213   3.724  0.00  0.00     0.021 A 
HETATM   13  N   UNK N   1      20.839  21.581   2.122  0.00  0.00    -0.234 N 
HETATM   14  H   UNK N   1      20.503  21.874   1.244  0.00  0.00     0.174 HD
HETATM   15  H   UNK N   1      21.264  22.230   2.728  0.00  0.00     0.174 HD
ENDROOT
BRANCH  12  16
HETATM   16  S   UNK N   1      19.596  14.917   2.693  0.00  0.00    -0.090 SA
BRANCH  16  17
HETATM   17  C   UNK N   1      20.870  14.041   1.754  0.00  0.00     0.005 A 
HETATM   18  C   UNK N   1      20.582  12.720   1.392  0.00  0.00     0.019 A 
HETATM   19  C   UNK N   1      21.501  11.960   0.667  0.00  0.00     0.008 A 
HETATM   20  C   UNK N   1      22.723  12.519   0.295  0.00  0.00    -0.062 A 
HETATM   21  C   UNK N   1      23.025  13.838   0.650  0.00  0.00     0.008 A 
HETATM   22  C   UNK N   1      23.700  11.708  -0.477  0.00  0.00     0.048 C 
HETATM   23  C   UNK N   1      22.100  14.597   1.378  0.00  0.00     0.019 A 
ENDBRANCH  16  17
ENDBRANCH  12  16
BRANCH   3  24
HETATM   24  N   UNK N   1      19.364  17.184   1.071  0.00  0.00    -0.384 N 
HETATM   25  H   UNK N   1      19.197  17.499   0.153  0.00  0.00     0.157 HD
HETATM   26  H   UNK N   1      19.098  16.274   1.336  0.00  0.00     0.157 HD
ENDBRANCH   3  24
TORSDOF 3
ENDMDL
