REMARK  3 active torsions:
REMARK  status: ('A' for Active; 'I' for Inactive)
REMARK    1  A    between atoms: C_3  and  N_9 
REMARK       I    between atoms: C_6  and  N_14 
REMARK    2  A    between atoms: C_13  and  S_15 
REMARK    3  A    between atoms: S_15  and  C_16 
ROOT
HETATM    1  C   UNK N   1      -1.853  -2.555  -0.000  0.00  0.00     0.064 A 
HETATM    2  C   UNK N   1      -1.902  -1.134   0.000  0.00  0.00     0.052 A 
HETATM    3  C   UNK N   1      -3.199  -0.541   0.000  0.00  0.00     0.128 A 
HETATM    4  N   UNK N   1      -4.301  -1.332  -0.000  0.00  0.00    -0.176 N 
ATOM      5  HN  UNK N   1      -5.224  -0.896  -0.000  1.00  0.00     0.186 HD
HETATM    6  C   UNK N   1      -4.212  -2.682  -0.000  0.00  0.00     0.677 A 
HETATM    7  N   UNK N   1      -2.998  -3.283  -0.000  0.00  0.00    -0.191 N 
ATOM      8  HN  UNK N   1      -2.944  -4.301  -0.000  1.00  0.00     0.184 HD
HETATM    9  C   UNK N   1      -0.629  -3.222  -0.000  0.00  0.00     0.031 A 
HETATM   10  C   UNK N   1       0.561  -2.505   0.000  0.00  0.00     0.004 A 
HETATM   11  C   UNK N   1       0.538  -1.112   0.000  0.00  0.00     0.020 A 
HETATM   12  C   UNK N   1      -0.669  -0.400   0.000  0.00  0.00     0.021 A 
HETATM   13  N   UNK N   1      -5.384  -3.462  -0.000  0.00  0.00    -0.234 N 
HETATM   14  H   UNK N   1      -6.266  -3.025  -0.000  0.00  0.00     0.174 HD
HETATM   15  H   UNK N   1      -5.322  -4.444  -0.000  0.00  0.00     0.174 HD
ENDROOT
BRANCH  12  16
HETATM   16  S   UNK N   1      -0.652   1.425   0.000  0.00  0.00    -0.090 SA
BRANCH  16  17
HETATM   17  C   UNK N   1       1.054   2.028   0.000  0.00  0.00     0.005 A 
HETATM   18  C   UNK N   1       1.226   3.417  -0.000  0.00  0.00     0.019 A 
HETATM   19  C   UNK N   1       2.503   3.979  -0.000  0.00  0.00     0.008 A 
HETATM   20  C   UNK N   1       3.626   3.152  -0.000  0.00  0.00    -0.062 A 
HETATM   21  C   UNK N   1       3.469   1.762   0.000  0.00  0.00     0.008 A 
HETATM   22  C   UNK N   1       4.985   3.754  -0.000  0.00  0.00     0.048 C 
HETATM   23  C   UNK N   1       2.186   1.201   0.000  0.00  0.00     0.019 A 
ENDBRANCH  16  17
ENDBRANCH  12  16
BRANCH   3  24
HETATM   24  N   UNK N   1      -3.390   0.855   0.000  0.00  0.00    -0.384 N 
HETATM   25  H   UNK N   1      -2.612   1.458   0.000  0.00  0.00     0.157 HD
HETATM   26  H   UNK N   1      -4.302   1.227   0.000  0.00  0.00     0.157 HD
ENDBRANCH   3  24
TORSDOF 3
