REMARK  7 active torsions:
REMARK  status: ('A' for Active; 'I' for Inactive)
REMARK    1  A    between atoms: O_1  and  N_4 
REMARK       I    between atoms: N_4  and  C_18 
REMARK    2  A    between atoms: N_5  and  C_9 
REMARK    3  A    between atoms: C_6  and  C_12 
REMARK    4  A    between atoms: C_12  and  C_13 
REMARK    5  A    between atoms: C_13  and  C_14 
REMARK    6  A    between atoms: C_15  and  C_16 
REMARK    7  A    between atoms: C_17  and  C_18 
ROOT
HETATM    1  C   UNK N   1      -0.161   1.683   0.141  0.00  0.00     0.079 C 
HETATM    2  C   UNK N   1      -1.323   2.440  -0.479  0.00  0.00     0.022 C 
ENDROOT
BRANCH   1   3
HETATM    3  C   UNK N   1      -0.191   0.229  -0.315  0.00  0.00     0.166 C 
HETATM    4  O   UNK N   1       0.789  -0.255  -0.864  0.00  0.00    -0.292 OA
BRANCH   3   5
HETATM    5  C   UNK N   1      -1.414  -0.613  -0.134  0.00  0.00     0.011 A 
HETATM    6  C   UNK N   1      -1.417  -1.955  -0.546  0.00  0.00     0.017 A 
HETATM    7  C   UNK N   1      -2.583  -2.725  -0.451  0.00  0.00     0.030 A 
HETATM    8  C   UNK N   1      -3.774  -2.162   0.041  0.00  0.00     0.029 A 
HETATM    9  C   UNK N   1      -3.764  -0.825   0.466  0.00  0.00     0.030 A 
HETATM   10  C   UNK N   1      -2.596  -0.064   0.385  0.00  0.00     0.017 A 
BRANCH   8  11
HETATM   11  N   UNK N   1      -4.978  -2.930   0.095  0.00  0.00    -0.390 N 
HETATM   12  C   UNK N   1      -4.992  -4.313  -0.308  0.00  0.00     0.149 C 
HETATM   13  C   UNK N   1      -6.220  -2.328   0.513  0.00  0.00     0.149 C 
ENDBRANCH   8  11
ENDBRANCH   3   5
ENDBRANCH   1   3
BRANCH   1  14
HETATM   14  C   UNK N   1       1.058   2.473  -0.269  0.00  0.00    -0.008 C 
HETATM   15  C   UNK N   1       2.343   2.294   0.064  0.00  0.00    -0.065 C 
HETATM   16  C   UNK N   1       2.754   1.200   0.996  0.00  0.00     0.048 C 
BRANCH  15  17
HETATM   17  C   UNK N   1       3.279   3.337  -0.428  0.00  0.00     0.012 C 
HETATM   18  C   UNK N   1       4.622   3.437  -0.422  0.00  0.00     0.076 C 
BRANCH  18  19
HETATM   19  C   UNK N   1       5.659   2.446  -0.080  0.00  0.00     0.264 C 
HETATM   20  O   UNK N   1       6.812   2.831   0.052  0.00  0.00    -0.266 OA
HETATM   21  N   UNK N   1       5.379   1.130   0.017  0.00  0.00    -0.234 N 
HETATM   22  H   UNK N   1       4.453   0.819  -0.107  0.00  0.00     0.197 HD
BRANCH  21  23
HETATM   23  O   UNK N   1       6.346   0.241   0.281  0.00  0.00    -0.287 OA
HETATM   24  H   UNK N   1       6.139  -0.687   0.472  0.00  0.00     0.244 HD
ENDBRANCH  21  23
ENDBRANCH  18  19
ENDBRANCH  15  17
ENDBRANCH   1  14
TORSDOF 7
