MODEL 1
REMARK VINA RESULT:      -6.9      0.000      0.000
REMARK  7 active torsions:
REMARK  status: ('A' for Active; 'I' for Inactive)
REMARK    1  A    between atoms: O_1  and  N_4 
REMARK       I    between atoms: N_4  and  C_18 
REMARK    2  A    between atoms: N_5  and  C_9 
REMARK    3  A    between atoms: C_6  and  C_12 
REMARK    4  A    between atoms: C_12  and  C_13 
REMARK    5  A    between atoms: C_13  and  C_14 
REMARK    6  A    between atoms: C_15  and  C_16 
REMARK    7  A    between atoms: C_17  and  C_18 
ROOT
HETATM    1  C   UNK N   1      25.574  19.558   3.851  0.00  0.00     0.079 C 
HETATM    2  C   UNK N   1      25.740  20.584   2.743  0.00  0.00     0.022 C 
ENDROOT
BRANCH   1   3
HETATM    3  C   UNK N   1      26.404  19.967   5.062  0.00  0.00     0.166 C 
HETATM    4  O   UNK N   1      26.250  21.075   5.557  0.00  0.00    -0.292 OA
BRANCH   3   5
HETATM    5  C   UNK N   1      27.433  19.048   5.640  0.00  0.00     0.011 A 
HETATM    6  C   UNK N   1      27.813  19.168   6.986  0.00  0.00     0.017 A 
HETATM    7  C   UNK N   1      28.831  18.362   7.511  0.00  0.00     0.030 A 
HETATM    8  C   UNK N   1      29.502  17.434   6.695  0.00  0.00     0.029 A 
HETATM    9  C   UNK N   1      29.110  17.306   5.354  0.00  0.00     0.030 A 
HETATM   10  C   UNK N   1      28.084  18.099   4.837  0.00  0.00     0.017 A 
BRANCH   8  11
HETATM   11  N   UNK N   1      30.574  16.644   7.214  0.00  0.00    -0.390 N 
HETATM   12  C   UNK N   1      31.122  16.908   8.520  0.00  0.00     0.149 C 
HETATM   13  C   UNK N   1      31.165  15.591   6.426  0.00  0.00     0.149 C 
ENDBRANCH   8  11
ENDBRANCH   3   5
ENDBRANCH   1   3
BRANCH   1  14
HETATM   14  C   UNK N   1      24.082  19.489   4.073  0.00  0.00    -0.008 C 
HETATM   15  C   UNK N   1      23.266  18.427   4.062  0.00  0.00    -0.065 C 
HETATM   16  C   UNK N   1      23.786  17.056   3.772  0.00  0.00     0.048 C 
BRANCH  15  17
HETATM   17  C   UNK N   1      21.820  18.735   4.202  0.00  0.00     0.012 C 
HETATM   18  C   UNK N   1      20.996  19.577   3.548  0.00  0.00     0.076 C 
BRANCH  18  19
HETATM   19  C   UNK N   1      21.207  20.370   2.323  0.00  0.00     0.264 C 
HETATM   20  O   UNK N   1      21.902  21.374   2.391  0.00  0.00    -0.266 OA
HETATM   21  N   UNK N   1      20.598  20.057   1.161  0.00  0.00    -0.234 N 
HETATM   22  H   UNK N   1      20.025  19.259   1.111  0.00  0.00     0.197 HD
BRANCH  21  23
HETATM   23  O   UNK N   1      20.765  20.820   0.072  0.00  0.00    -0.287 OA
HETATM   24  H   UNK N   1      21.294  21.633   0.102  0.00  0.00     0.244 HD
ENDBRANCH  21  23
ENDBRANCH  18  19
ENDBRANCH  15  17
ENDBRANCH   1  14
TORSDOF 7
ENDMDL
MODEL 2
REMARK VINA RESULT:      -6.7      4.176      9.743
REMARK  7 active torsions:
REMARK  status: ('A' for Active; 'I' for Inactive)
REMARK    1  A    between atoms: O_1  and  N_4 
REMARK       I    between atoms: N_4  and  C_18 
REMARK    2  A    between atoms: N_5  and  C_9 
REMARK    3  A    between atoms: C_6  and  C_12 
REMARK    4  A    between atoms: C_12  and  C_13 
REMARK    5  A    between atoms: C_13  and  C_14 
REMARK    6  A    between atoms: C_15  and  C_16 
REMARK    7  A    between atoms: C_17  and  C_18 
ROOT
HETATM    1  C   UNK N   1      31.027  17.291   5.550  0.00  0.00     0.079 C 
HETATM    2  C   UNK N   1      32.094  17.528   4.495  0.00  0.00     0.022 C 
ENDROOT
BRANCH   1   3
HETATM    3  C   UNK N   1      29.834  16.577   4.925  0.00  0.00     0.166 C 
HETATM    4  O   UNK N   1      29.917  15.389   4.646  0.00  0.00    -0.292 OA
BRANCH   3   5
HETATM    5  C   UNK N   1      28.569  17.312   4.614  0.00  0.00     0.011 A 
HETATM    6  C   UNK N   1      27.477  16.634   4.051  0.00  0.00     0.017 A 
HETATM    7  C   UNK N   1      26.319  17.332   3.685  0.00  0.00     0.030 A 
HETATM    8  C   UNK N   1      26.239  18.725   3.859  0.00  0.00     0.029 A 
HETATM    9  C   UNK N   1      27.326  19.398   4.436  0.00  0.00     0.030 A 
HETATM   10  C   UNK N   1      28.473  18.697   4.814  0.00  0.00     0.017 A 
BRANCH   8  11
HETATM   11  N   UNK N   1      25.078  19.448   3.443  0.00  0.00    -0.390 N 
HETATM   12  C   UNK N   1      23.765  19.061   3.891  0.00  0.00     0.149 C 
HETATM   13  C   UNK N   1      25.188  20.558   2.529  0.00  0.00     0.149 C 
ENDBRANCH   8  11
ENDBRANCH   3   5
ENDBRANCH   1   3
BRANCH   1  14
HETATM   14  C   UNK N   1      31.745  16.535   6.641  0.00  0.00    -0.008 C 
HETATM   15  C   UNK N   1      31.778  16.765   7.961  0.00  0.00    -0.065 C 
HETATM   16  C   UNK N   1      31.059  17.931   8.559  0.00  0.00     0.048 C 
BRANCH  15  17
HETATM   17  C   UNK N   1      32.688  15.886   8.738  0.00  0.00     0.012 C 
HETATM   18  C   UNK N   1      33.925  16.066   9.240  0.00  0.00     0.076 C 
BRANCH  18  19
HETATM   19  C   UNK N   1      34.752  17.283   9.349  0.00  0.00     0.264 C 
HETATM   20  O   UNK N   1      35.477  17.408  10.325  0.00  0.00    -0.266 OA
HETATM   21  N   UNK N   1      34.671  18.280   8.445  0.00  0.00    -0.234 N 
HETATM   22  H   UNK N   1      34.073  18.185   7.668  0.00  0.00     0.197 HD
BRANCH  21  23
HETATM   23  O   UNK N   1      35.395  19.398   8.590  0.00  0.00    -0.287 OA
HETATM   24  H   UNK N   1      36.359  19.364   8.690  0.00  0.00     0.244 HD
ENDBRANCH  21  23
ENDBRANCH  18  19
ENDBRANCH  15  17
ENDBRANCH   1  14
TORSDOF 7
ENDMDL
MODEL 3
REMARK VINA RESULT:      -6.6     12.426     16.521
REMARK  7 active torsions:
REMARK  status: ('A' for Active; 'I' for Inactive)
REMARK    1  A    between atoms: O_1  and  N_4 
REMARK       I    between atoms: N_4  and  C_18 
REMARK    2  A    between atoms: N_5  and  C_9 
REMARK    3  A    between atoms: C_6  and  C_12 
REMARK    4  A    between atoms: C_12  and  C_13 
REMARK    5  A    between atoms: C_13  and  C_14 
REMARK    6  A    between atoms: C_15  and  C_16 
REMARK    7  A    between atoms: C_17  and  C_18 
ROOT
HETATM    1  C   UNK N   1      36.777  13.509  15.246  0.00  0.00     0.079 C 
HETATM    2  C   UNK N   1      37.113  14.914  15.716  0.00  0.00     0.022 C 
ENDROOT
BRANCH   1   3
HETATM    3  C   UNK N   1      35.450  13.066  15.851  0.00  0.00     0.166 C 
HETATM    4  O   UNK N   1      34.405  13.309  15.265  0.00  0.00    -0.292 OA
BRANCH   3   5
HETATM    5  C   UNK N   1      35.398  12.366  17.172  0.00  0.00     0.011 A 
HETATM    6  C   UNK N   1      35.394  10.964  17.231  0.00  0.00     0.017 A 
HETATM    7  C   UNK N   1      35.266  10.304  18.459  0.00  0.00     0.030 A 
HETATM    8  C   UNK N   1      35.122  11.035  19.652  0.00  0.00     0.029 A 
HETATM    9  C   UNK N   1      35.142  12.436  19.592  0.00  0.00     0.030 A 
HETATM   10  C   UNK N   1      35.285  13.092  18.368  0.00  0.00     0.017 A 
BRANCH   8  11
HETATM   11  N   UNK N   1      34.944  10.366  20.902  0.00  0.00    -0.390 N 
HETATM   12  C   UNK N   1      36.042   9.686  21.541  0.00  0.00     0.149 C 
HETATM   13  C   UNK N   1      33.649  10.317  21.536  0.00  0.00     0.149 C 
ENDBRANCH   8  11
ENDBRANCH   3   5
ENDBRANCH   1   3
BRANCH   1  14
HETATM   14  C   UNK N   1      36.810  13.604  13.740  0.00  0.00    -0.008 C 
HETATM   15  C   UNK N   1      36.870  12.628  12.824  0.00  0.00    -0.065 C 
HETATM   16  C   UNK N   1      36.947  11.191  13.230  0.00  0.00     0.048 C 
BRANCH  15  17
HETATM   17  C   UNK N   1      37.009  13.083  11.417  0.00  0.00     0.012 C 
HETATM   18  C   UNK N   1      36.244  13.862  10.628  0.00  0.00     0.076 C 
BRANCH  18  19
HETATM   19  C   UNK N   1      35.071  14.697  10.947  0.00  0.00     0.264 C 
HETATM   20  O   UNK N   1      35.254  15.775  11.494  0.00  0.00    -0.266 OA
HETATM   21  N   UNK N   1      33.812  14.270  10.718  0.00  0.00    -0.234 N 
HETATM   22  H   UNK N   1      33.665  13.394  10.293  0.00  0.00     0.197 HD
BRANCH  21  23
HETATM   23  O   UNK N   1      32.759  15.024  11.060  0.00  0.00    -0.287 OA
HETATM   24  H   UNK N   1      31.951  15.034  10.524  0.00  0.00     0.244 HD
ENDBRANCH  21  23
ENDBRANCH  18  19
ENDBRANCH  15  17
ENDBRANCH   1  14
TORSDOF 7
ENDMDL
MODEL 4
REMARK VINA RESULT:      -6.6     10.469     13.921
REMARK  7 active torsions:
REMARK  status: ('A' for Active; 'I' for Inactive)
REMARK    1  A    between atoms: O_1  and  N_4 
REMARK       I    between atoms: N_4  and  C_18 
REMARK    2  A    between atoms: N_5  and  C_9 
REMARK    3  A    between atoms: C_6  and  C_12 
REMARK    4  A    between atoms: C_12  and  C_13 
REMARK    5  A    between atoms: C_13  and  C_14 
REMARK    6  A    between atoms: C_15  and  C_16 
REMARK    7  A    between atoms: C_17  and  C_18 
ROOT
HETATM    1  C   UNK N   1      26.661  24.099  -6.831  0.00  0.00     0.079 C 
HETATM    2  C   UNK N   1      25.746  22.943  -7.197  0.00  0.00     0.022 C 
ENDROOT
BRANCH   1   3
HETATM    3  C   UNK N   1      26.086  25.403  -7.373  0.00  0.00     0.166 C 
HETATM    4  O   UNK N   1      25.425  25.393  -8.402  0.00  0.00    -0.292 OA
BRANCH   3   5
HETATM    5  C   UNK N   1      26.346  26.706  -6.687  0.00  0.00     0.011 A 
HETATM    6  C   UNK N   1      27.394  27.536  -7.116  0.00  0.00     0.017 A 
HETATM    7  C   UNK N   1      27.691  28.719  -6.428  0.00  0.00     0.030 A 
HETATM    8  C   UNK N   1      26.956  29.087  -5.287  0.00  0.00     0.029 A 
HETATM    9  C   UNK N   1      25.900  28.263  -4.869  0.00  0.00     0.030 A 
HETATM   10  C   UNK N   1      25.596  27.092  -5.566  0.00  0.00     0.017 A 
BRANCH   8  11
HETATM   11  N   UNK N   1      27.286  30.268  -4.554  0.00  0.00    -0.390 N 
HETATM   12  C   UNK N   1      26.440  30.737  -3.486  0.00  0.00     0.149 C 
HETATM   13  C   UNK N   1      28.452  31.047  -4.894  0.00  0.00     0.149 C 
ENDBRANCH   8  11
ENDBRANCH   3   5
ENDBRANCH   1   3
BRANCH   1  14
HETATM   14  C   UNK N   1      26.786  24.013  -5.329  0.00  0.00    -0.008 C 
HETATM   15  C   UNK N   1      27.827  24.311  -4.541  0.00  0.00    -0.065 C 
HETATM   16  C   UNK N   1      29.122  24.783  -5.118  0.00  0.00     0.048 C 
BRANCH  15  17
HETATM   17  C   UNK N   1      27.646  23.994  -3.101  0.00  0.00     0.012 C 
HETATM   18  C   UNK N   1      28.375  23.278  -2.224  0.00  0.00     0.076 C 
BRANCH  18  19
HETATM   19  C   UNK N   1      29.725  22.696  -2.344  0.00  0.00     0.264 C 
HETATM   20  O   UNK N   1      30.592  23.070  -1.567  0.00  0.00    -0.266 OA
HETATM   21  N   UNK N   1      30.038  21.825  -3.325  0.00  0.00    -0.234 N 
HETATM   22  H   UNK N   1      29.343  21.537  -3.961  0.00  0.00     0.197 HD
BRANCH  21  23
HETATM   23  O   UNK N   1      31.284  21.346  -3.445  0.00  0.00    -0.287 OA
HETATM   24  H   UNK N   1      31.472  20.558  -3.978  0.00  0.00     0.244 HD
ENDBRANCH  21  23
ENDBRANCH  18  19
ENDBRANCH  15  17
ENDBRANCH   1  14
TORSDOF 7
ENDMDL
MODEL 5
REMARK VINA RESULT:      -6.6      5.584      6.698
REMARK  7 active torsions:
REMARK  status: ('A' for Active; 'I' for Inactive)
REMARK    1  A    between atoms: O_1  and  N_4 
REMARK       I    between atoms: N_4  and  C_18 
REMARK    2  A    between atoms: N_5  and  C_9 
REMARK    3  A    between atoms: C_6  and  C_12 
REMARK    4  A    between atoms: C_12  and  C_13 
REMARK    5  A    between atoms: C_13  and  C_14 
REMARK    6  A    between atoms: C_15  and  C_16 
REMARK    7  A    between atoms: C_17  and  C_18 
ROOT
HETATM    1  C   UNK N   1      21.185  16.604   6.175  0.00  0.00     0.079 C 
HETATM    2  C   UNK N   1      20.892  17.708   7.176  0.00  0.00     0.022 C 
ENDROOT
BRANCH   1   3
HETATM    3  C   UNK N   1      20.680  15.271   6.716  0.00  0.00     0.166 C 
HETATM    4  O   UNK N   1      19.674  14.765   6.239  0.00  0.00    -0.292 OA
BRANCH   3   5
HETATM    5  C   UNK N   1      21.376  14.582   7.847  0.00  0.00     0.011 A 
HETATM    6  C   UNK N   1      22.706  14.155   7.705  0.00  0.00     0.017 A 
HETATM    7  C   UNK N   1      23.337  13.441   8.731  0.00  0.00     0.030 A 
HETATM    8  C   UNK N   1      22.643  13.124   9.913  0.00  0.00     0.029 A 
HETATM    9  C   UNK N   1      21.319  13.565  10.058  0.00  0.00     0.030 A 
HETATM   10  C   UNK N   1      20.698  14.291   9.039  0.00  0.00     0.017 A 
BRANCH   8  11
HETATM   11  N   UNK N   1      23.267  12.354  10.943  0.00  0.00    -0.390 N 
HETATM   12  C   UNK N   1      22.511  11.885  12.076  0.00  0.00     0.149 C 
HETATM   13  C   UNK N   1      24.679  12.065  10.896  0.00  0.00     0.149 C 
ENDBRANCH   8  11
ENDBRANCH   3   5
ENDBRANCH   1   3
BRANCH   1  14
HETATM   14  C   UNK N   1      20.537  17.080   4.897  0.00  0.00    -0.008 C 
HETATM   15  C   UNK N   1      20.903  16.872   3.626  0.00  0.00    -0.065 C 
HETATM   16  C   UNK N   1      22.134  16.093   3.294  0.00  0.00     0.048 C 
BRANCH  15  17
HETATM   17  C   UNK N   1      20.098  17.592   2.606  0.00  0.00     0.012 C 
HETATM   18  C   UNK N   1      19.907  18.900   2.348  0.00  0.00     0.076 C 
BRANCH  18  19
HETATM   19  C   UNK N   1      20.585  20.095   2.883  0.00  0.00     0.264 C 
HETATM   20  O   UNK N   1      20.142  20.609   3.900  0.00  0.00    -0.266 OA
HETATM   21  N   UNK N   1      21.624  20.668   2.242  0.00  0.00    -0.234 N 
HETATM   22  H   UNK N   1      21.969  20.263   1.414  0.00  0.00     0.197 HD
BRANCH  21  23
HETATM   23  O   UNK N   1      22.194  21.782   2.721  0.00  0.00    -0.287 OA
HETATM   24  H   UNK N   1      22.131  22.018   3.660  0.00  0.00     0.244 HD
ENDBRANCH  21  23
ENDBRANCH  18  19
ENDBRANCH  15  17
ENDBRANCH   1  14
TORSDOF 7
ENDMDL
MODEL 6
REMARK VINA RESULT:      -6.5      6.152      8.802
REMARK  7 active torsions:
REMARK  status: ('A' for Active; 'I' for Inactive)
REMARK    1  A    between atoms: O_1  and  N_4 
REMARK       I    between atoms: N_4  and  C_18 
REMARK    2  A    between atoms: N_5  and  C_9 
REMARK    3  A    between atoms: C_6  and  C_12 
REMARK    4  A    between atoms: C_12  and  C_13 
REMARK    5  A    between atoms: C_13  and  C_14 
REMARK    6  A    between atoms: C_15  and  C_16 
REMARK    7  A    between atoms: C_17  and  C_18 
ROOT
HETATM    1  C   UNK N   1      32.972  16.534   6.290  0.00  0.00     0.079 C 
HETATM    2  C   UNK N   1      33.399  16.716   4.843  0.00  0.00     0.022 C 
ENDROOT
BRANCH   1   3
HETATM    3  C   UNK N   1      34.025  17.130   7.216  0.00  0.00     0.166 C 
HETATM    4  O   UNK N   1      34.465  18.250   6.994  0.00  0.00    -0.292 OA
BRANCH   3   5
HETATM    5  C   UNK N   1      34.558  16.357   8.380  0.00  0.00     0.011 A 
HETATM    6  C   UNK N   1      34.749  16.985   9.621  0.00  0.00     0.017 A 
HETATM    7  C   UNK N   1      35.321  16.286  10.691  0.00  0.00     0.030 A 
HETATM    8  C   UNK N   1      35.730  14.950  10.536  0.00  0.00     0.029 A 
HETATM    9  C   UNK N   1      35.524  14.320   9.299  0.00  0.00     0.030 A 
HETATM   10  C   UNK N   1      34.939  15.014   8.238  0.00  0.00     0.017 A 
BRANCH   8  11
HETATM   11  N   UNK N   1      36.358  14.247  11.611  0.00  0.00    -0.390 N 
HETATM   12  C   UNK N   1      36.087  14.598  12.981  0.00  0.00     0.149 C 
HETATM   13  C   UNK N   1      37.312  13.198  11.350  0.00  0.00     0.149 C 
ENDBRANCH   8  11
ENDBRANCH   3   5
ENDBRANCH   1   3
BRANCH   1  14
HETATM   14  C   UNK N   1      31.605  17.170   6.357  0.00  0.00    -0.008 C 
HETATM   15  C   UNK N   1      30.396  16.613   6.204  0.00  0.00    -0.065 C 
HETATM   16  C   UNK N   1      30.250  15.159   5.890  0.00  0.00     0.048 C 
BRANCH  15  17
HETATM   17  C   UNK N   1      29.253  17.562   6.216  0.00  0.00     0.012 C 
HETATM   18  C   UNK N   1      28.495  18.069   7.207  0.00  0.00     0.076 C 
BRANCH  18  19
HETATM   19  C   UNK N   1      28.654  17.998   8.671  0.00  0.00     0.264 C 
HETATM   20  O   UNK N   1      27.799  17.414   9.322  0.00  0.00    -0.266 OA
HETATM   21  N   UNK N   1      29.669  18.618   9.306  0.00  0.00    -0.234 N 
HETATM   22  H   UNK N   1      30.347  19.104   8.782  0.00  0.00     0.197 HD
BRANCH  21  23
HETATM   23  O   UNK N   1      29.767  18.582  10.642  0.00  0.00    -0.287 OA
HETATM   24  H   UNK N   1      29.325  17.892  11.161  0.00  0.00     0.244 HD
ENDBRANCH  21  23
ENDBRANCH  18  19
ENDBRANCH  15  17
ENDBRANCH   1  14
TORSDOF 7
ENDMDL
MODEL 7
REMARK VINA RESULT:      -6.4     10.315     13.336
REMARK  7 active torsions:
REMARK  status: ('A' for Active; 'I' for Inactive)
REMARK    1  A    between atoms: O_1  and  N_4 
REMARK       I    between atoms: N_4  and  C_18 
REMARK    2  A    between atoms: N_5  and  C_9 
REMARK    3  A    between atoms: C_6  and  C_12 
REMARK    4  A    between atoms: C_12  and  C_13 
REMARK    5  A    between atoms: C_13  and  C_14 
REMARK    6  A    between atoms: C_15  and  C_16 
REMARK    7  A    between atoms: C_17  and  C_18 
ROOT
HETATM    1  C   UNK N   1      27.599  23.589  -6.848  0.00  0.00     0.079 C 
HETATM    2  C   UNK N   1      27.004  22.905  -8.067  0.00  0.00     0.022 C 
ENDROOT
BRANCH   1   3
HETATM    3  C   UNK N   1      26.486  24.202  -6.006  0.00  0.00     0.166 C 
HETATM    4  O   UNK N   1      25.432  23.598  -5.862  0.00  0.00    -0.292 OA
BRANCH   3   5
HETATM    5  C   UNK N   1      26.646  25.549  -5.376  0.00  0.00     0.011 A 
HETATM    6  C   UNK N   1      27.911  25.989  -4.957  0.00  0.00     0.017 A 
HETATM    7  C   UNK N   1      28.054  27.216  -4.296  0.00  0.00     0.030 A 
HETATM    8  C   UNK N   1      26.931  28.017  -4.025  0.00  0.00     0.029 A 
HETATM    9  C   UNK N   1      25.670  27.581  -4.457  0.00  0.00     0.030 A 
HETATM   10  C   UNK N   1      25.532  26.366  -5.130  0.00  0.00     0.017 A 
BRANCH   8  11
HETATM   11  N   UNK N   1      27.066  29.247  -3.308  0.00  0.00    -0.390 N 
HETATM   12  C   UNK N   1      26.383  30.437  -3.746  0.00  0.00     0.149 C 
HETATM   13  C   UNK N   1      27.925  29.338  -2.153  0.00  0.00     0.149 C 
ENDBRANCH   8  11
ENDBRANCH   3   5
ENDBRANCH   1   3
BRANCH   1  14
HETATM   14  C   UNK N   1      28.411  22.509  -6.176  0.00  0.00    -0.008 C 
HETATM   15  C   UNK N   1      29.724  22.465  -5.915  0.00  0.00    -0.065 C 
HETATM   16  C   UNK N   1      30.631  23.580  -6.329  0.00  0.00     0.048 C 
BRANCH  15  17
HETATM   17  C   UNK N   1      30.217  21.187  -5.341  0.00  0.00     0.012 C 
HETATM   18  C   UNK N   1      30.833  20.882  -4.183  0.00  0.00     0.076 C 
BRANCH  18  19
HETATM   19  C   UNK N   1      31.078  21.699  -2.980  0.00  0.00     0.264 C 
HETATM   20  O   UNK N   1      32.164  21.607  -2.424  0.00  0.00    -0.266 OA
HETATM   21  N   UNK N   1      30.118  22.479  -2.443  0.00  0.00    -0.234 N 
HETATM   22  H   UNK N   1      29.238  22.539  -2.882  0.00  0.00     0.197 HD
BRANCH  21  23
HETATM   23  O   UNK N   1      30.347  23.175  -1.322  0.00  0.00    -0.287 OA
HETATM   24  H   UNK N   1      30.864  22.800  -0.593  0.00  0.00     0.244 HD
ENDBRANCH  21  23
ENDBRANCH  18  19
ENDBRANCH  15  17
ENDBRANCH   1  14
TORSDOF 7
ENDMDL
MODEL 8
REMARK VINA RESULT:      -6.4     10.569     12.112
REMARK  7 active torsions:
REMARK  status: ('A' for Active; 'I' for Inactive)
REMARK    1  A    between atoms: O_1  and  N_4 
REMARK       I    between atoms: N_4  and  C_18 
REMARK    2  A    between atoms: N_5  and  C_9 
REMARK    3  A    between atoms: C_6  and  C_12 
REMARK    4  A    between atoms: C_12  and  C_13 
REMARK    5  A    between atoms: C_13  and  C_14 
REMARK    6  A    between atoms: C_15  and  C_16 
REMARK    7  A    between atoms: C_17  and  C_18 
ROOT
HETATM    1  C   UNK N   1      26.233  22.686  -6.677  0.00  0.00     0.079 C 
HETATM    2  C   UNK N   1      25.128  21.978  -7.443  0.00  0.00     0.022 C 
ENDROOT
BRANCH   1   3
HETATM    3  C   UNK N   1      27.570  22.457  -7.372  0.00  0.00     0.166 C 
HETATM    4  O   UNK N   1      27.647  22.558  -8.589  0.00  0.00    -0.292 OA
BRANCH   3   5
HETATM    5  C   UNK N   1      28.790  22.075  -6.595  0.00  0.00     0.011 A 
HETATM    6  C   UNK N   1      29.516  20.923  -6.937  0.00  0.00     0.017 A 
HETATM    7  C   UNK N   1      30.612  20.518  -6.164  0.00  0.00     0.030 A 
HETATM    8  C   UNK N   1      30.992  21.248  -5.024  0.00  0.00     0.029 A 
HETATM    9  C   UNK N   1      30.274  22.408  -4.694  0.00  0.00     0.030 A 
HETATM   10  C   UNK N   1      29.192  22.818  -5.475  0.00  0.00     0.017 A 
BRANCH   8  11
HETATM   11  N   UNK N   1      32.080  20.812  -4.206  0.00  0.00    -0.390 N 
HETATM   12  C   UNK N   1      32.840  19.638  -4.550  0.00  0.00     0.149 C 
HETATM   13  C   UNK N   1      32.418  21.513  -2.992  0.00  0.00     0.149 C 
ENDBRANCH   8  11
ENDBRANCH   3   5
ENDBRANCH   1   3
BRANCH   1  14
HETATM   14  C   UNK N   1      25.772  24.121  -6.602  0.00  0.00    -0.008 C 
HETATM   15  C   UNK N   1      25.722  24.948  -5.549  0.00  0.00    -0.065 C 
HETATM   16  C   UNK N   1      26.131  24.488  -4.187  0.00  0.00     0.048 C 
BRANCH  15  17
HETATM   17  C   UNK N   1      25.096  26.270  -5.807  0.00  0.00     0.012 C 
HETATM   18  C   UNK N   1      25.292  27.493  -5.278  0.00  0.00     0.076 C 
BRANCH  18  19
HETATM   19  C   UNK N   1      26.338  27.991  -4.366  0.00  0.00     0.264 C 
HETATM   20  O   UNK N   1      27.492  28.030  -4.770  0.00  0.00    -0.266 OA
HETATM   21  N   UNK N   1      26.066  28.330  -3.090  0.00  0.00    -0.234 N 
HETATM   22  H   UNK N   1      25.139  28.281  -2.760  0.00  0.00     0.197 HD
BRANCH  21  23
HETATM   23  O   UNK N   1      27.041  28.734  -2.264  0.00  0.00    -0.287 OA
HETATM   24  H   UNK N   1      26.839  29.170  -1.422  0.00  0.00     0.244 HD
ENDBRANCH  21  23
ENDBRANCH  18  19
ENDBRANCH  15  17
ENDBRANCH   1  14
TORSDOF 7
ENDMDL
MODEL 9
REMARK VINA RESULT:      -6.3     10.687     13.672
REMARK  7 active torsions:
REMARK  status: ('A' for Active; 'I' for Inactive)
REMARK    1  A    between atoms: O_1  and  N_4 
REMARK       I    between atoms: N_4  and  C_18 
REMARK    2  A    between atoms: N_5  and  C_9 
REMARK    3  A    between atoms: C_6  and  C_12 
REMARK    4  A    between atoms: C_12  and  C_13 
REMARK    5  A    between atoms: C_13  and  C_14 
REMARK    6  A    between atoms: C_15  and  C_16 
REMARK    7  A    between atoms: C_17  and  C_18 
ROOT
HETATM    1  C   UNK N   1      26.890  22.326  -8.506  0.00  0.00     0.079 C 
HETATM    2  C   UNK N   1      26.480  21.200  -9.439  0.00  0.00     0.022 C 
ENDROOT
BRANCH   1   3
HETATM    3  C   UNK N   1      25.652  22.936  -7.859  0.00  0.00     0.166 C 
HETATM    4  O   UNK N   1      24.548  22.463  -8.096  0.00  0.00    -0.292 OA
BRANCH   3   5
HETATM    5  C   UNK N   1      25.756  24.128  -6.963  0.00  0.00     0.011 A 
HETATM    6  C   UNK N   1      25.834  25.420  -7.508  0.00  0.00     0.017 A 
HETATM    7  C   UNK N   1      26.011  26.533  -6.677  0.00  0.00     0.030 A 
HETATM    8  C   UNK N   1      26.130  26.374  -5.285  0.00  0.00     0.029 A 
HETATM    9  C   UNK N   1      26.036  25.084  -4.741  0.00  0.00     0.030 A 
HETATM   10  C   UNK N   1      25.845  23.978  -5.571  0.00  0.00     0.017 A 
BRANCH   8  11
HETATM   11  N   UNK N   1      26.358  27.502  -4.437  0.00  0.00    -0.390 N 
HETATM   12  C   UNK N   1      26.136  27.417  -3.016  0.00  0.00     0.149 C 
HETATM   13  C   UNK N   1      26.775  28.768  -4.988  0.00  0.00     0.149 C 
ENDBRANCH   8  11
ENDBRANCH   3   5
ENDBRANCH   1   3
BRANCH   1  14
HETATM   14  C   UNK N   1      27.874  21.684  -7.559  0.00  0.00    -0.008 C 
HETATM   15  C   UNK N   1      28.964  22.204  -6.979  0.00  0.00    -0.065 C 
HETATM   16  C   UNK N   1      29.388  23.612  -7.253  0.00  0.00     0.048 C 
BRANCH  15  17
HETATM   17  C   UNK N   1      29.781  21.249  -6.189  0.00  0.00     0.012 C 
HETATM   18  C   UNK N   1      30.272  21.284  -4.935  0.00  0.00     0.076 C 
BRANCH  18  19
HETATM   19  C   UNK N   1      30.013  22.222  -3.827  0.00  0.00     0.264 C 
HETATM   20  O   UNK N   1      29.131  23.058  -3.964  0.00  0.00    -0.266 OA
HETATM   21  N   UNK N   1      30.767  22.225  -2.708  0.00  0.00    -0.234 N 
HETATM   22  H   UNK N   1      31.488  21.562  -2.606  0.00  0.00     0.197 HD
BRANCH  21  23
HETATM   23  O   UNK N   1      30.545  23.118  -1.734  0.00  0.00    -0.287 OA
HETATM   24  H   UNK N   1      30.409  24.057  -1.933  0.00  0.00     0.244 HD
ENDBRANCH  21  23
ENDBRANCH  18  19
ENDBRANCH  15  17
ENDBRANCH   1  14
TORSDOF 7
ENDMDL
