MODEL 1
REMARK VINA RESULT:      -7.6      0.000      0.000
REMARK  8 active torsions:
REMARK  status: ('A' for Active; 'I' for Inactive)
REMARK    1  A    between atoms: N_4  and  S_17 
REMARK    2  A    between atoms: C_5  and  C_7 
REMARK       I    between atoms: C_7  and  N_8 
REMARK    3  A    between atoms: C_10  and  N_8 
REMARK    4  A    between atoms: C_10  and  C_11 
REMARK    5  A    between atoms: C_10  and  C_12 
REMARK    6  A    between atoms: C_11  and  C_15 
REMARK    7  A    between atoms: C_12  and  O_13 
REMARK    8  A    between atoms: S_17  and  C_18 
ROOT
HETATM    1  S   UNK N   1      35.284  12.945   9.019  0.00  0.00    -0.165 SA
HETATM    2  C   UNK N   1      35.014  12.214  10.661  0.00  0.00     0.094 C 
HETATM    3  C   UNK N   1      34.653  13.316  11.637  0.00  0.00     0.146 C 
HETATM    4  N   UNK N   1      35.824  14.161  11.838  0.00  0.00    -0.291 N 
HETATM    5  C   UNK N   1      36.316  14.953  10.673  0.00  0.00     0.197 C 
HETATM    6  C   UNK N   1      36.701  13.975   9.552  0.00  0.00     0.109 C 
ENDROOT
BRANCH   5   7
HETATM    7  C   UNK N   1      35.330  16.023  10.232  0.00  0.00     0.242 C 
HETATM    8  N   UNK N   1      34.737  15.964   9.009  0.00  0.00    -0.345 N 
HETATM    9  H   UNK N   1      34.977  15.221   8.410  0.00  0.00     0.163 HD
HETATM   10  O   UNK N   1      35.122  16.980  10.967  0.00  0.00    -0.271 OA
BRANCH   8  11
HETATM   11  C   UNK N   1      33.767  16.941   8.540  0.00  0.00     0.182 C 
BRANCH  11  12
HETATM   12  C   UNK N   1      32.698  16.253   7.684  0.00  0.00     0.040 C 
BRANCH  12  13
HETATM   13  C   UNK N   1      31.264  16.666   8.020  0.00  0.00    -0.020 C 
HETATM   14  C   UNK N   1      31.216  18.012   8.709  0.00  0.00     0.009 C 
HETATM   15  C   UNK N   1      30.455  16.742   6.744  0.00  0.00     0.009 C 
ENDBRANCH  12  13
ENDBRANCH  11  12
BRANCH  11  16
HETATM   16  C   UNK N   1      34.434  18.055   7.771  0.00  0.00     0.163 C 
HETATM   17  O   UNK N   1      34.432  18.059   6.549  0.00  0.00    -0.648 OA
BRANCH  16  18
HETATM   18  O   UNK N   1      35.046  19.053   8.438  0.00  0.00    -0.775 OA
HETATM   19  H   UNK N   1      35.328  19.056   9.331  0.00  0.00     0.167 HD
ENDBRANCH  16  18
ENDBRANCH  11  16
ENDBRANCH   8  11
ENDBRANCH   5   7
BRANCH   4  20
HETATM   20  S   UNK N   1      36.344  14.342  13.557  0.00  0.00     0.261 S 
HETATM   21  O   UNK N   1      37.293  13.246  13.059  0.00  0.00    -0.200 OA
HETATM   22  O   UNK N   1      34.909  13.807  13.698  0.00  0.00    -0.200 OA
BRANCH  20  23
HETATM   23  C   UNK N   1      36.259  12.945  14.781  0.00  0.00     0.079 A 
HETATM   24  C   UNK N   1      35.416  13.113  15.891  0.00  0.00     0.026 A 
HETATM   25  C   UNK N   1      35.279  12.100  16.846  0.00  0.00     0.008 A 
HETATM   26  C   UNK N   1      35.985  10.901  16.710  0.00  0.00    -0.062 A 
HETATM   27  C   UNK N   1      36.829  10.704  15.620  0.00  0.00     0.008 A 
HETATM   28  C   UNK N   1      35.835   9.829  17.729  0.00  0.00     0.048 C 
HETATM   29  C   UNK N   1      36.966  11.704  14.658  0.00  0.00     0.026 A 
ENDBRANCH  20  23
ENDBRANCH   4  20
TORSDOF 8
ENDMDL
MODEL 2
REMARK VINA RESULT:      -7.3      1.197      1.429
REMARK  8 active torsions:
REMARK  status: ('A' for Active; 'I' for Inactive)
REMARK    1  A    between atoms: N_4  and  S_17 
REMARK    2  A    between atoms: C_5  and  C_7 
REMARK       I    between atoms: C_7  and  N_8 
REMARK    3  A    between atoms: C_10  and  N_8 
REMARK    4  A    between atoms: C_10  and  C_11 
REMARK    5  A    between atoms: C_10  and  C_12 
REMARK    6  A    between atoms: C_11  and  C_15 
REMARK    7  A    between atoms: C_12  and  O_13 
REMARK    8  A    between atoms: S_17  and  C_18 
ROOT
HETATM    1  S   UNK N   1      35.705  11.743   9.931  0.00  0.00    -0.165 SA
HETATM    2  C   UNK N   1      35.470  11.190  11.646  0.00  0.00     0.094 C 
HETATM    3  C   UNK N   1      34.891  12.333  12.456  0.00  0.00     0.146 C 
HETATM    4  N   UNK N   1      35.902  13.376  12.579  0.00  0.00    -0.291 N 
HETATM    5  C   UNK N   1      36.322  14.084  11.335  0.00  0.00     0.197 C 
HETATM    6  C   UNK N   1      36.913  13.048  10.366  0.00  0.00     0.109 C 
ENDROOT
BRANCH   5   7
HETATM    7  C   UNK N   1      35.204  14.915  10.728  0.00  0.00     0.242 C 
HETATM    8  N   UNK N   1      35.313  15.415   9.467  0.00  0.00    -0.345 N 
HETATM    9  H   UNK N   1      36.142  15.241   8.966  0.00  0.00     0.163 HD
HETATM   10  O   UNK N   1      34.225  15.188  11.411  0.00  0.00    -0.271 OA
BRANCH   8  11
HETATM   11  C   UNK N   1      34.269  16.195   8.820  0.00  0.00     0.182 C 
BRANCH  11  12
HETATM   12  C   UNK N   1      33.758  15.462   7.575  0.00  0.00     0.040 C 
BRANCH  12  13
HETATM   13  C   UNK N   1      32.236  15.328   7.506  0.00  0.00    -0.020 C 
HETATM   14  C   UNK N   1      31.563  15.973   8.697  0.00  0.00     0.009 C 
HETATM   15  C   UNK N   1      31.734  15.993   6.243  0.00  0.00     0.009 C 
ENDBRANCH  12  13
ENDBRANCH  11  12
BRANCH  11  16
HETATM   16  C   UNK N   1      34.754  17.579   8.465  0.00  0.00     0.163 C 
HETATM   17  O   UNK N   1      35.343  18.266   9.286  0.00  0.00    -0.648 OA
BRANCH  16  18
HETATM   18  O   UNK N   1      34.526  18.069   7.230  0.00  0.00    -0.775 OA
HETATM   19  H   UNK N   1      34.586  18.961   6.949  0.00  0.00     0.167 HD
ENDBRANCH  16  18
ENDBRANCH  11  16
ENDBRANCH   8  11
ENDBRANCH   5   7
BRANCH   4  20
HETATM   20  S   UNK N   1      36.298  13.853  14.274  0.00  0.00     0.261 S 
HETATM   21  O   UNK N   1      37.228  12.652  14.064  0.00  0.00    -0.200 OA
HETATM   22  O   UNK N   1      34.832  13.401  14.390  0.00  0.00    -0.200 OA
BRANCH  20  23
HETATM   23  C   UNK N   1      36.054  12.709  15.720  0.00  0.00     0.079 A 
HETATM   24  C   UNK N   1      35.390  13.227  16.844  0.00  0.00     0.026 A 
HETATM   25  C   UNK N   1      35.146  12.425  17.964  0.00  0.00     0.008 A 
HETATM   26  C   UNK N   1      35.565  11.091  17.982  0.00  0.00    -0.062 A 
HETATM   27  C   UNK N   1      36.225  10.549  16.882  0.00  0.00     0.008 A 
HETATM   28  C   UNK N   1      35.303  10.245  19.175  0.00  0.00     0.048 C 
HETATM   29  C   UNK N   1      36.466  11.337  15.758  0.00  0.00     0.026 A 
ENDBRANCH  20  23
ENDBRANCH   4  20
TORSDOF 8
ENDMDL
MODEL 3
REMARK VINA RESULT:      -7.2      1.849      2.581
REMARK  8 active torsions:
REMARK  status: ('A' for Active; 'I' for Inactive)
REMARK    1  A    between atoms: N_4  and  S_17 
REMARK    2  A    between atoms: C_5  and  C_7 
REMARK       I    between atoms: C_7  and  N_8 
REMARK    3  A    between atoms: C_10  and  N_8 
REMARK    4  A    between atoms: C_10  and  C_11 
REMARK    5  A    between atoms: C_10  and  C_12 
REMARK    6  A    between atoms: C_11  and  C_15 
REMARK    7  A    between atoms: C_12  and  O_13 
REMARK    8  A    between atoms: S_17  and  C_18 
ROOT
HETATM    1  S   UNK N   1      36.196  11.584  10.442  0.00  0.00    -0.165 SA
HETATM    2  C   UNK N   1      35.825  11.103  12.155  0.00  0.00     0.094 C 
HETATM    3  C   UNK N   1      35.042  12.218  12.819  0.00  0.00     0.146 C 
HETATM    4  N   UNK N   1      35.919  13.371  12.981  0.00  0.00    -0.291 N 
HETATM    5  C   UNK N   1      36.403  14.052  11.744  0.00  0.00     0.197 C 
HETATM    6  C   UNK N   1      37.205  13.036  10.916  0.00  0.00     0.109 C 
ENDROOT
BRANCH   5   7
HETATM    7  C   UNK N   1      35.281  14.720  10.966  0.00  0.00     0.242 C 
HETATM    8  N   UNK N   1      35.510  15.258   9.737  0.00  0.00    -0.345 N 
HETATM    9  H   UNK N   1      36.424  15.221   9.374  0.00  0.00     0.163 HD
HETATM   10  O   UNK N   1      34.178  14.829  11.485  0.00  0.00    -0.271 OA
BRANCH   8  11
HETATM   11  C   UNK N   1      34.475  15.887   8.932  0.00  0.00     0.182 C 
BRANCH  11  12
HETATM   12  C   UNK N   1      34.255  15.091   7.641  0.00  0.00     0.040 C 
BRANCH  12  13
HETATM   13  C   UNK N   1      35.448  14.231   7.223  0.00  0.00    -0.020 C 
HETATM   14  C   UNK N   1      35.057  12.780   7.046  0.00  0.00     0.009 C 
HETATM   15  C   UNK N   1      36.004  14.749   5.915  0.00  0.00     0.009 C 
ENDBRANCH  12  13
ENDBRANCH  11  12
BRANCH  11  16
HETATM   16  C   UNK N   1      34.814  17.325   8.623  0.00  0.00     0.163 C 
HETATM   17  O   UNK N   1      35.217  18.075   9.499  0.00  0.00    -0.648 OA
BRANCH  16  18
HETATM   18  O   UNK N   1      34.661  17.791   7.367  0.00  0.00    -0.775 OA
HETATM   19  H   UNK N   1      34.669  17.300   6.570  0.00  0.00     0.167 HD
ENDBRANCH  16  18
ENDBRANCH  11  16
ENDBRANCH   8  11
ENDBRANCH   5   7
BRANCH   4  20
HETATM   20  S   UNK N   1      36.067  13.982  14.673  0.00  0.00     0.261 S 
HETATM   21  O   UNK N   1      37.172  12.920  14.628  0.00  0.00    -0.200 OA
HETATM   22  O   UNK N   1      34.675  13.329  14.676  0.00  0.00    -0.200 OA
BRANCH  20  23
HETATM   23  C   UNK N   1      35.836  12.886  16.157  0.00  0.00     0.079 A 
HETATM   24  C   UNK N   1      35.318  13.479  17.319  0.00  0.00     0.026 A 
HETATM   25  C   UNK N   1      35.093  12.719  18.472  0.00  0.00     0.008 A 
HETATM   26  C   UNK N   1      35.384  11.352  18.484  0.00  0.00    -0.062 A 
HETATM   27  C   UNK N   1      35.898  10.735  17.346  0.00  0.00     0.008 A 
HETATM   28  C   UNK N   1      35.143  10.550  19.712  0.00  0.00     0.048 C 
HETATM   29  C   UNK N   1      36.119  11.481  16.191  0.00  0.00     0.026 A 
ENDBRANCH  20  23
ENDBRANCH   4  20
TORSDOF 8
ENDMDL
MODEL 4
REMARK VINA RESULT:      -7.1      2.115      2.728
REMARK  8 active torsions:
REMARK  status: ('A' for Active; 'I' for Inactive)
REMARK    1  A    between atoms: N_4  and  S_17 
REMARK    2  A    between atoms: C_5  and  C_7 
REMARK       I    between atoms: C_7  and  N_8 
REMARK    3  A    between atoms: C_10  and  N_8 
REMARK    4  A    between atoms: C_10  and  C_11 
REMARK    5  A    between atoms: C_10  and  C_12 
REMARK    6  A    between atoms: C_11  and  C_15 
REMARK    7  A    between atoms: C_12  and  O_13 
REMARK    8  A    between atoms: S_17  and  C_18 
ROOT
HETATM    1  S   UNK N   1      35.994  11.232  10.651  0.00  0.00    -0.165 SA
HETATM    2  C   UNK N   1      35.698  10.837  12.400  0.00  0.00     0.094 C 
HETATM    3  C   UNK N   1      35.012  12.017  13.060  0.00  0.00     0.146 C 
HETATM    4  N   UNK N   1      35.954  13.127  13.125  0.00  0.00    -0.291 N 
HETATM    5  C   UNK N   1      36.400  13.733  11.836  0.00  0.00     0.197 C 
HETATM    6  C   UNK N   1      37.101  12.646  11.007  0.00  0.00     0.109 C 
ENDROOT
BRANCH   5   7
HETATM    7  C   UNK N   1      35.271  14.429  11.094  0.00  0.00     0.242 C 
HETATM    8  N   UNK N   1      35.317  14.585   9.743  0.00  0.00    -0.345 N 
HETATM    9  H   UNK N   1      36.108  14.253   9.262  0.00  0.00     0.163 HD
HETATM   10  O   UNK N   1      34.345  14.910  11.734  0.00  0.00    -0.271 OA
BRANCH   8  11
HETATM   11  C   UNK N   1      34.258  15.219   8.973  0.00  0.00     0.182 C 
BRANCH  11  12
HETATM   12  C   UNK N   1      34.209  16.720   9.278  0.00  0.00     0.040 C 
BRANCH  12  13
HETATM   13  C   UNK N   1      33.958  17.602   8.055  0.00  0.00    -0.020 C 
HETATM   14  C   UNK N   1      34.192  16.848   6.764  0.00  0.00     0.009 C 
HETATM   15  C   UNK N   1      32.528  18.095   8.079  0.00  0.00     0.009 C 
ENDBRANCH  12  13
ENDBRANCH  11  12
BRANCH  11  16
HETATM   16  C   UNK N   1      32.919  14.574   9.240  0.00  0.00     0.163 C 
HETATM   17  O   UNK N   1      32.605  13.531   8.686  0.00  0.00    -0.648 OA
BRANCH  16  18
HETATM   18  O   UNK N   1      32.056  15.160  10.094  0.00  0.00    -0.775 OA
HETATM   19  H   UNK N   1      32.236  15.836  10.717  0.00  0.00     0.167 HD
ENDBRANCH  16  18
ENDBRANCH  11  16
ENDBRANCH   8  11
ENDBRANCH   5   7
BRANCH   4  20
HETATM   20  S   UNK N   1      36.230  13.794  14.779  0.00  0.00     0.261 S 
HETATM   21  O   UNK N   1      37.160  12.574  14.776  0.00  0.00    -0.200 OA
HETATM   22  O   UNK N   1      34.755  13.362  14.837  0.00  0.00    -0.200 OA
BRANCH  20  23
HETATM   23  C   UNK N   1      35.868  12.824  16.323  0.00  0.00     0.079 A 
HETATM   24  C   UNK N   1      36.188  11.457  16.314  0.00  0.00     0.026 A 
HETATM   25  C   UNK N   1      35.967  10.662  17.444  0.00  0.00     0.008 A 
HETATM   26  C   UNK N   1      35.420  11.218  18.603  0.00  0.00    -0.062 A 
HETATM   27  C   UNK N   1      35.092  12.572  18.644  0.00  0.00     0.008 A 
HETATM   28  C   UNK N   1      35.187  10.368  19.799  0.00  0.00     0.048 C 
HETATM   29  C   UNK N   1      35.315  13.374  17.527  0.00  0.00     0.026 A 
ENDBRANCH  20  23
ENDBRANCH   4  20
TORSDOF 8
ENDMDL
MODEL 5
REMARK VINA RESULT:      -6.9     18.834     22.176
REMARK  8 active torsions:
REMARK  status: ('A' for Active; 'I' for Inactive)
REMARK    1  A    between atoms: N_4  and  S_17 
REMARK    2  A    between atoms: C_5  and  C_7 
REMARK       I    between atoms: C_7  and  N_8 
REMARK    3  A    between atoms: C_10  and  N_8 
REMARK    4  A    between atoms: C_10  and  C_11 
REMARK    5  A    between atoms: C_10  and  C_12 
REMARK    6  A    between atoms: C_11  and  C_15 
REMARK    7  A    between atoms: C_12  and  O_13 
REMARK    8  A    between atoms: S_17  and  C_18 
ROOT
HETATM    1  S   UNK N   1      28.437  29.860  -3.325  0.00  0.00    -0.165 SA
HETATM    2  C   UNK N   1      26.633  29.646  -3.381  0.00  0.00     0.094 C 
HETATM    3  C   UNK N   1      26.317  28.171  -3.530  0.00  0.00     0.146 C 
HETATM    4  N   UNK N   1      26.745  27.735  -4.854  0.00  0.00    -0.291 N 
HETATM    5  C   UNK N   1      28.207  27.751  -5.150  0.00  0.00     0.197 C 
HETATM    6  C   UNK N   1      28.713  29.195  -5.008  0.00  0.00     0.109 C 
ENDROOT
BRANCH   5   7
HETATM    7  C   UNK N   1      28.987  26.750  -4.312  0.00  0.00     0.242 C 
HETATM    8  N   UNK N   1      28.591  25.451  -4.233  0.00  0.00    -0.345 N 
HETATM    9  H   UNK N   1      27.778  25.180  -4.715  0.00  0.00     0.163 HD
HETATM   10  O   UNK N   1      29.942  27.141  -3.653  0.00  0.00    -0.271 OA
BRANCH   8  11
HETATM   11  C   UNK N   1      29.308  24.440  -3.471  0.00  0.00     0.182 C 
BRANCH  11  12
HETATM   12  C   UNK N   1      30.078  23.513  -4.418  0.00  0.00     0.040 C 
BRANCH  12  13
HETATM   13  C   UNK N   1      29.249  22.983  -5.589  0.00  0.00    -0.020 C 
HETATM   14  C   UNK N   1      29.484  23.785  -6.850  0.00  0.00     0.009 C 
HETATM   15  C   UNK N   1      29.620  21.541  -5.851  0.00  0.00     0.009 C 
ENDBRANCH  12  13
ENDBRANCH  11  12
BRANCH  11  16
HETATM   16  C   UNK N   1      28.374  23.648  -2.588  0.00  0.00     0.163 C 
HETATM   17  O   UNK N   1      28.807  22.801  -1.821  0.00  0.00    -0.648 OA
BRANCH  16  18
HETATM   18  O   UNK N   1      27.047  23.871  -2.653  0.00  0.00    -0.775 OA
HETATM   19  H   UNK N   1      26.416  23.775  -1.967  0.00  0.00     0.167 HD
ENDBRANCH  16  18
ENDBRANCH  11  16
ENDBRANCH   8  11
ENDBRANCH   5   7
BRANCH   4  20
HETATM   20  S   UNK N   1      25.454  26.967  -5.855  0.00  0.00     0.261 S 
HETATM   21  O   UNK N   1      25.631  25.937  -4.732  0.00  0.00    -0.200 OA
HETATM   22  O   UNK N   1      26.662  26.957  -6.806  0.00  0.00    -0.200 OA
BRANCH  20  23
HETATM   23  C   UNK N   1      25.667  25.306  -6.662  0.00  0.00     0.079 A 
HETATM   24  C   UNK N   1      25.661  24.178  -5.826  0.00  0.00     0.026 A 
HETATM   25  C   UNK N   1      25.793  22.891  -6.357  0.00  0.00     0.008 A 
HETATM   26  C   UNK N   1      25.936  22.707  -7.735  0.00  0.00    -0.062 A 
HETATM   27  C   UNK N   1      25.946  23.806  -8.591  0.00  0.00     0.008 A 
HETATM   28  C   UNK N   1      26.077  21.337  -8.293  0.00  0.00     0.048 C 
HETATM   29  C   UNK N   1      25.807  25.092  -8.073  0.00  0.00     0.026 A 
ENDBRANCH  20  23
ENDBRANCH   4  20
TORSDOF 8
ENDMDL
MODEL 6
REMARK VINA RESULT:      -6.8     17.841     21.679
REMARK  8 active torsions:
REMARK  status: ('A' for Active; 'I' for Inactive)
REMARK    1  A    between atoms: N_4  and  S_17 
REMARK    2  A    between atoms: C_5  and  C_7 
REMARK       I    between atoms: C_7  and  N_8 
REMARK    3  A    between atoms: C_10  and  N_8 
REMARK    4  A    between atoms: C_10  and  C_11 
REMARK    5  A    between atoms: C_10  and  C_12 
REMARK    6  A    between atoms: C_11  and  C_15 
REMARK    7  A    between atoms: C_12  and  O_13 
REMARK    8  A    between atoms: S_17  and  C_18 
ROOT
HETATM    1  S   UNK N   1      26.091  28.311  -4.809  0.00  0.00    -0.165 SA
HETATM    2  C   UNK N   1      24.825  27.260  -5.580  0.00  0.00     0.094 C 
HETATM    3  C   UNK N   1      25.308  25.822  -5.569  0.00  0.00     0.146 C 
HETATM    4  N   UNK N   1      26.438  25.704  -6.482  0.00  0.00    -0.291 N 
HETATM    5  C   UNK N   1      27.691  26.435  -6.131  0.00  0.00     0.197 C 
HETATM    6  C   UNK N   1      27.372  27.936  -6.062  0.00  0.00     0.109 C 
ENDROOT
BRANCH   5   7
HETATM    7  C   UNK N   1      28.351  25.896  -4.873  0.00  0.00     0.242 C 
HETATM    8  N   UNK N   1      28.403  24.558  -4.631  0.00  0.00    -0.345 N 
HETATM    9  H   UNK N   1      27.985  23.950  -5.282  0.00  0.00     0.163 HD
HETATM   10  O   UNK N   1      28.781  26.685  -4.041  0.00  0.00    -0.271 OA
BRANCH   8  11
HETATM   11  C   UNK N   1      29.043  23.979  -3.460  0.00  0.00     0.182 C 
BRANCH  11  12
HETATM   12  C   UNK N   1      29.913  22.786  -3.871  0.00  0.00     0.040 C 
BRANCH  12  13
HETATM   13  C   UNK N   1      31.402  22.964  -3.572  0.00  0.00    -0.020 C 
HETATM   14  C   UNK N   1      31.977  21.762  -2.854  0.00  0.00     0.009 C 
HETATM   15  C   UNK N   1      32.152  23.161  -4.871  0.00  0.00     0.009 C 
ENDBRANCH  12  13
ENDBRANCH  11  12
BRANCH  11  16
HETATM   16  C   UNK N   1      28.027  23.568  -2.422  0.00  0.00     0.163 C 
HETATM   17  O   UNK N   1      28.363  22.928  -1.437  0.00  0.00    -0.648 OA
BRANCH  16  18
HETATM   18  O   UNK N   1      26.732  23.902  -2.588  0.00  0.00    -0.775 OA
HETATM   19  H   UNK N   1      26.048  23.377  -2.956  0.00  0.00     0.167 HD
ENDBRANCH  16  18
ENDBRANCH  11  16
ENDBRANCH   8  11
ENDBRANCH   5   7
BRANCH   4  20
HETATM   20  S   UNK N   1      26.246  24.455  -7.771  0.00  0.00     0.261 S 
HETATM   21  O   UNK N   1      25.831  23.675  -6.518  0.00  0.00    -0.200 OA
HETATM   22  O   UNK N   1      27.762  24.714  -7.782  0.00  0.00    -0.200 OA
BRANCH  20  23
HETATM   23  C   UNK N   1      27.205  22.862  -7.773  0.00  0.00     0.079 A 
HETATM   24  C   UNK N   1      26.530  21.706  -8.195  0.00  0.00     0.026 A 
HETATM   25  C   UNK N   1      27.187  20.472  -8.248  0.00  0.00     0.008 A 
HETATM   26  C   UNK N   1      28.531  20.371  -7.876  0.00  0.00    -0.062 A 
HETATM   27  C   UNK N   1      29.228  21.500  -7.453  0.00  0.00     0.008 A 
HETATM   28  C   UNK N   1      29.222  19.057  -7.933  0.00  0.00     0.048 C 
HETATM   29  C   UNK N   1      28.586  22.736  -7.405  0.00  0.00     0.026 A 
ENDBRANCH  20  23
ENDBRANCH   4  20
TORSDOF 8
ENDMDL
MODEL 7
REMARK VINA RESULT:      -6.7     17.286     21.976
REMARK  8 active torsions:
REMARK  status: ('A' for Active; 'I' for Inactive)
REMARK    1  A    between atoms: N_4  and  S_17 
REMARK    2  A    between atoms: C_5  and  C_7 
REMARK       I    between atoms: C_7  and  N_8 
REMARK    3  A    between atoms: C_10  and  N_8 
REMARK    4  A    between atoms: C_10  and  C_11 
REMARK    5  A    between atoms: C_10  and  C_12 
REMARK    6  A    between atoms: C_11  and  C_15 
REMARK    7  A    between atoms: C_12  and  O_13 
REMARK    8  A    between atoms: S_17  and  C_18 
ROOT
HETATM    1  S   UNK N   1      28.791  21.925  -8.400  0.00  0.00    -0.165 SA
HETATM    2  C   UNK N   1      28.413  23.406  -9.383  0.00  0.00     0.094 C 
HETATM    3  C   UNK N   1      28.501  24.626  -8.487  0.00  0.00     0.146 C 
HETATM    4  N   UNK N   1      27.405  24.577  -7.526  0.00  0.00    -0.291 N 
HETATM    5  C   UNK N   1      27.415  23.475  -6.520  0.00  0.00     0.197 C 
HETATM    6  C   UNK N   1      27.365  22.135  -7.270  0.00  0.00     0.109 C 
ENDROOT
BRANCH   5   7
HETATM    7  C   UNK N   1      28.575  23.582  -5.544  0.00  0.00     0.242 C 
HETATM    8  N   UNK N   1      28.865  22.563  -4.691  0.00  0.00    -0.345 N 
HETATM    9  H   UNK N   1      28.292  21.763  -4.709  0.00  0.00     0.163 HD
HETATM   10  O   UNK N   1      29.210  24.627  -5.486  0.00  0.00    -0.271 OA
BRANCH   8  11
HETATM   11  C   UNK N   1      29.976  22.594  -3.753  0.00  0.00     0.182 C 
BRANCH  11  12
HETATM   12  C   UNK N   1      30.711  21.249  -3.762  0.00  0.00     0.040 C 
BRANCH  12  13
HETATM   13  C   UNK N   1      32.200  21.350  -4.093  0.00  0.00    -0.020 C 
HETATM   14  C   UNK N   1      33.059  21.213  -2.854  0.00  0.00     0.009 C 
HETATM   15  C   UNK N   1      32.571  20.254  -5.067  0.00  0.00     0.009 C 
ENDBRANCH  12  13
ENDBRANCH  11  12
BRANCH  11  16
HETATM   16  C   UNK N   1      29.512  22.941  -2.359  0.00  0.00     0.163 C 
HETATM   17  O   UNK N   1      30.312  23.048  -1.442  0.00  0.00    -0.648 OA
BRANCH  16  18
HETATM   18  O   UNK N   1      28.199  23.127  -2.120  0.00  0.00    -0.775 OA
HETATM   19  H   UNK N   1      27.475  22.731  -2.564  0.00  0.00     0.167 HD
ENDBRANCH  16  18
ENDBRANCH  11  16
ENDBRANCH   8  11
ENDBRANCH   5   7
BRANCH   4  20
HETATM   20  S   UNK N   1      26.336  26.032  -7.518  0.00  0.00     0.261 S 
HETATM   21  O   UNK N   1      27.728  26.669  -7.609  0.00  0.00    -0.200 OA
HETATM   22  O   UNK N   1      26.094  25.433  -6.122  0.00  0.00    -0.200 OA
BRANCH  20  23
HETATM   23  C   UNK N   1      26.430  27.336  -6.196  0.00  0.00     0.079 A 
HETATM   24  C   UNK N   1      27.374  28.361  -6.370  0.00  0.00     0.026 A 
HETATM   25  C   UNK N   1      27.492  29.393  -5.432  0.00  0.00     0.008 A 
HETATM   26  C   UNK N   1      26.670  29.417  -4.302  0.00  0.00    -0.062 A 
HETATM   27  C   UNK N   1      25.723  28.414  -4.102  0.00  0.00     0.008 A 
HETATM   28  C   UNK N   1      26.801  30.515  -3.310  0.00  0.00     0.048 C 
HETATM   29  C   UNK N   1      25.592  27.387  -5.034  0.00  0.00     0.026 A 
ENDBRANCH  20  23
ENDBRANCH   4  20
TORSDOF 8
ENDMDL
MODEL 8
REMARK VINA RESULT:      -6.6      3.925      7.423
REMARK  8 active torsions:
REMARK  status: ('A' for Active; 'I' for Inactive)
REMARK    1  A    between atoms: N_4  and  S_17 
REMARK    2  A    between atoms: C_5  and  C_7 
REMARK       I    between atoms: C_7  and  N_8 
REMARK    3  A    between atoms: C_10  and  N_8 
REMARK    4  A    between atoms: C_10  and  C_11 
REMARK    5  A    between atoms: C_10  and  C_12 
REMARK    6  A    between atoms: C_11  and  C_15 
REMARK    7  A    between atoms: C_12  and  O_13 
REMARK    8  A    between atoms: S_17  and  C_18 
ROOT
HETATM    1  S   UNK N   1      35.725  12.453  10.780  0.00  0.00    -0.165 SA
HETATM    2  C   UNK N   1      36.865  12.331   9.370  0.00  0.00     0.094 C 
HETATM    3  C   UNK N   1      36.561  13.450   8.394  0.00  0.00     0.146 C 
HETATM    4  N   UNK N   1      35.258  13.199   7.789  0.00  0.00    -0.291 N 
HETATM    5  C   UNK N   1      34.061  13.253   8.677  0.00  0.00     0.197 C 
HETATM    6  C   UNK N   1      34.221  12.185   9.771  0.00  0.00     0.109 C 
ENDROOT
BRANCH   5   7
HETATM    7  C   UNK N   1      33.798  14.646   9.223  0.00  0.00     0.242 C 
HETATM    8  N   UNK N   1      33.686  15.713   8.387  0.00  0.00    -0.345 N 
HETATM    9  H   UNK N   1      33.799  15.563   7.421  0.00  0.00     0.163 HD
HETATM   10  O   UNK N   1      33.752  14.813  10.435  0.00  0.00    -0.271 OA
BRANCH   8  11
HETATM   11  C   UNK N   1      33.410  17.066   8.844  0.00  0.00     0.182 C 
BRANCH  11  12
HETATM   12  C   UNK N   1      32.284  17.685   8.009  0.00  0.00     0.040 C 
BRANCH  12  13
HETATM   13  C   UNK N   1      30.997  16.860   7.980  0.00  0.00    -0.020 C 
HETATM   14  C   UNK N   1      29.945  17.430   8.907  0.00  0.00     0.009 C 
HETATM   15  C   UNK N   1      30.447  16.841   6.571  0.00  0.00     0.009 C 
ENDBRANCH  12  13
ENDBRANCH  11  12
BRANCH  11  16
HETATM   16  C   UNK N   1      34.647  17.929   8.798  0.00  0.00     0.163 C 
HETATM   17  O   UNK N   1      34.885  18.629   7.825  0.00  0.00    -0.648 OA
BRANCH  16  18
HETATM   18  O   UNK N   1      35.505  17.921   9.837  0.00  0.00    -0.775 OA
HETATM   19  H   UNK N   1      36.274  18.445   9.948  0.00  0.00     0.167 HD
ENDBRANCH  16  18
ENDBRANCH  11  16
ENDBRANCH   8  11
ENDBRANCH   5   7
BRANCH   4  20
HETATM   20  S   UNK N   1      35.258  13.133   5.986  0.00  0.00     0.261 S 
HETATM   21  O   UNK N   1      35.755  14.561   6.245  0.00  0.00    -0.200 OA
HETATM   22  O   UNK N   1      33.763  13.001   6.323  0.00  0.00    -0.200 OA
BRANCH  20  23
HETATM   23  C   UNK N   1      34.224  14.274   4.942  0.00  0.00     0.079 A 
HETATM   24  C   UNK N   1      34.221  15.635   5.286  0.00  0.00     0.026 A 
HETATM   25  C   UNK N   1      33.488  16.561   4.537  0.00  0.00     0.008 A 
HETATM   26  C   UNK N   1      32.740  16.143   3.433  0.00  0.00    -0.062 A 
HETATM   27  C   UNK N   1      32.722  14.799   3.067  0.00  0.00     0.008 A 
HETATM   28  C   UNK N   1      31.962  17.132   2.643  0.00  0.00     0.048 C 
HETATM   29  C   UNK N   1      33.456  13.869   3.800  0.00  0.00     0.026 A 
ENDBRANCH  20  23
ENDBRANCH   4  20
TORSDOF 8
ENDMDL
MODEL 9
REMARK VINA RESULT:      -6.3      1.875      2.325
REMARK  8 active torsions:
REMARK  status: ('A' for Active; 'I' for Inactive)
REMARK    1  A    between atoms: N_4  and  S_17 
REMARK    2  A    between atoms: C_5  and  C_7 
REMARK       I    between atoms: C_7  and  N_8 
REMARK    3  A    between atoms: C_10  and  N_8 
REMARK    4  A    between atoms: C_10  and  C_11 
REMARK    5  A    between atoms: C_10  and  C_12 
REMARK    6  A    between atoms: C_11  and  C_15 
REMARK    7  A    between atoms: C_12  and  O_13 
REMARK    8  A    between atoms: S_17  and  C_18 
ROOT
HETATM    1  S   UNK N   1      34.118  11.264   8.063  0.00  0.00    -0.165 SA
HETATM    2  C   UNK N   1      34.385  10.733   9.780  0.00  0.00     0.094 C 
HETATM    3  C   UNK N   1      34.471  11.961  10.666  0.00  0.00     0.146 C 
HETATM    4  N   UNK N   1      35.698  12.681  10.346  0.00  0.00    -0.291 N 
HETATM    5  C   UNK N   1      35.808  13.292   8.989  0.00  0.00     0.197 C 
HETATM    6  C   UNK N   1      35.704  12.171   7.944  0.00  0.00     0.109 C 
ENDROOT
BRANCH   5   7
HETATM    7  C   UNK N   1      34.813  14.420   8.771  0.00  0.00     0.242 C 
HETATM    8  N   UNK N   1      35.001  15.332   7.780  0.00  0.00    -0.345 N 
HETATM    9  H   UNK N   1      35.806  15.254   7.220  0.00  0.00     0.163 HD
HETATM   10  O   UNK N   1      33.870  14.540   9.543  0.00  0.00    -0.271 OA
BRANCH   8  11
HETATM   11  C   UNK N   1      34.073  16.418   7.504  0.00  0.00     0.182 C 
BRANCH  11  12
HETATM   12  C   UNK N   1      34.061  16.733   6.004  0.00  0.00     0.040 C 
BRANCH  12  13
HETATM   13  C   UNK N   1      32.745  17.323   5.496  0.00  0.00    -0.020 C 
HETATM   14  C   UNK N   1      32.737  17.462   3.990  0.00  0.00     0.009 C 
HETATM   15  C   UNK N   1      31.602  16.421   5.908  0.00  0.00     0.009 C 
ENDBRANCH  12  13
ENDBRANCH  11  12
BRANCH  11  16
HETATM   16  C   UNK N   1      34.411  17.651   8.306  0.00  0.00     0.163 C 
HETATM   17  O   UNK N   1      34.844  18.654   7.760  0.00  0.00    -0.648 OA
BRANCH  16  18
HETATM   18  O   UNK N   1      34.241  17.643   9.644  0.00  0.00    -0.775 OA
HETATM   19  H   UNK N   1      34.857  17.901  10.300  0.00  0.00     0.167 HD
ENDBRANCH  16  18
ENDBRANCH  11  16
ENDBRANCH   8  11
ENDBRANCH   5   7
BRANCH   4  20
HETATM   20  S   UNK N   1      36.797  12.968  11.748  0.00  0.00     0.261 S 
HETATM   21  O   UNK N   1      36.306  11.542  12.026  0.00  0.00    -0.200 OA
HETATM   22  O   UNK N   1      35.677  13.994  11.989  0.00  0.00    -0.200 OA
BRANCH  20  23
HETATM   23  C   UNK N   1      36.206  12.924  13.510  0.00  0.00     0.079 A 
HETATM   24  C   UNK N   1      36.815  13.808  14.415  0.00  0.00     0.026 A 
HETATM   25  C   UNK N   1      36.412  13.853  15.754  0.00  0.00     0.008 A 
HETATM   26  C   UNK N   1      35.393  13.014  16.213  0.00  0.00    -0.062 A 
HETATM   27  C   UNK N   1      34.768  12.127  15.340  0.00  0.00     0.008 A 
HETATM   28  C   UNK N   1      34.970  13.066  17.637  0.00  0.00     0.048 C 
HETATM   29  C   UNK N   1      35.157  12.079  14.002  0.00  0.00     0.026 A 
ENDBRANCH  20  23
ENDBRANCH   4  20
TORSDOF 8
ENDMDL
