MODEL 1
REMARK VINA RESULT:      -5.1      0.000      0.000
REMARK  5 active torsions:
REMARK  status: ('A' for Active; 'I' for Inactive)
REMARK    1  A    between atoms: C_2  and  N_1 
REMARK    2  A    between atoms: C_2  and  C_3 
REMARK    3  A    between atoms: C_2  and  C_5 
REMARK    4  A    between atoms: C_5  and  C_6 
REMARK    5  A    between atoms: C_11  and  O_12 
ROOT
HETATM    1  C   UNK N   1      31.095  17.523   7.981  0.00  0.00    -0.056 A 
HETATM    2  C   UNK N   1      29.987  16.976   7.324  0.00  0.00     0.010 A 
HETATM    3  C   UNK N   1      30.890  18.366   9.086  0.00  0.00     0.010 A 
HETATM    4  C   UNK N   1      28.692  17.260   7.768  0.00  0.00     0.037 A 
HETATM    5  C   UNK N   1      29.598  18.647   9.531  0.00  0.00     0.037 A 
HETATM    6  C   UNK N   1      28.498  18.091   8.876  0.00  0.00     0.065 A 
ENDROOT
BRANCH   1   7
HETATM    7  C   UNK N   1      32.476  17.162   7.497  0.00  0.00     0.070 C 
BRANCH   7   8
HETATM    8  C   UNK N   1      33.624  17.436   8.474  0.00  0.00     0.140 C 
BRANCH   8   9
HETATM    9  N   UNK N   1      34.363  16.212   8.746  0.00  0.00    -0.420 N 
HETATM   10  H   UNK N   1      35.250  15.787   8.477  0.00  0.00     0.150 HD
HETATM   11  H   UNK N   1      33.848  15.609   9.387  0.00  0.00     0.150 HD
ENDBRANCH   8   9
BRANCH   8  12
HETATM   12  C   UNK N   1      34.549  18.436   7.866  0.00  0.00     0.255 C 
HETATM   13  O   UNK N   1      35.247  19.143   8.578  0.00  0.00    -0.305 OA
ENDBRANCH   8  12
ENDBRANCH   7   8
ENDBRANCH   1   7
BRANCH   6  14
HETATM   14  O   UNK N   1      27.255  18.352   9.311  0.00  0.00    -0.361 OA
HETATM   15  H   UNK N   1      26.663  18.841   8.775  0.00  0.00     0.217 HD
ENDBRANCH   6  14
TORSDOF 5
ENDMDL
MODEL 2
REMARK VINA RESULT:      -5.1     10.531     11.525
REMARK  5 active torsions:
REMARK  status: ('A' for Active; 'I' for Inactive)
REMARK    1  A    between atoms: C_2  and  N_1 
REMARK    2  A    between atoms: C_2  and  C_3 
REMARK    3  A    between atoms: C_2  and  C_5 
REMARK    4  A    between atoms: C_5  and  C_6 
REMARK    5  A    between atoms: C_11  and  O_12 
ROOT
HETATM    1  C   UNK N   1      35.404  12.657  17.062  0.00  0.00    -0.056 A 
HETATM    2  C   UNK N   1      35.612  11.286  17.251  0.00  0.00     0.010 A 
HETATM    3  C   UNK N   1      35.168  13.475  18.180  0.00  0.00     0.010 A 
HETATM    4  C   UNK N   1      35.593  10.739  18.538  0.00  0.00     0.037 A 
HETATM    5  C   UNK N   1      35.151  12.930  19.465  0.00  0.00     0.037 A 
HETATM    6  C   UNK N   1      35.368  11.562  19.645  0.00  0.00     0.065 A 
ENDROOT
BRANCH   1   7
HETATM    7  C   UNK N   1      35.471  13.215  15.664  0.00  0.00     0.070 C 
BRANCH   7   8
HETATM    8  C   UNK N   1      36.867  13.594  15.158  0.00  0.00     0.140 C 
BRANCH   8   9
HETATM    9  N   UNK N   1      36.999  13.275  13.744  0.00  0.00    -0.420 N 
HETATM   10  H   UNK N   1      36.414  13.274  12.909  0.00  0.00     0.150 HD
HETATM   11  H   UNK N   1      37.947  12.965  13.526  0.00  0.00     0.150 HD
ENDBRANCH   8   9
BRANCH   8  12
HETATM   12  C   UNK N   1      37.069  15.060  15.345  0.00  0.00     0.255 C 
HETATM   13  O   UNK N   1      37.734  15.477  16.281  0.00  0.00    -0.305 OA
ENDBRANCH   8  12
ENDBRANCH   7   8
ENDBRANCH   1   7
BRANCH   6  14
HETATM   14  O   UNK N   1      35.364  11.041  20.881  0.00  0.00    -0.361 OA
HETATM   15  H   UNK N   1      36.171  10.791  21.288  0.00  0.00     0.217 HD
ENDBRANCH   6  14
TORSDOF 5
ENDMDL
MODEL 3
REMARK VINA RESULT:      -5.0     10.116     11.163
REMARK  5 active torsions:
REMARK  status: ('A' for Active; 'I' for Inactive)
REMARK    1  A    between atoms: C_2  and  N_1 
REMARK    2  A    between atoms: C_2  and  C_3 
REMARK    3  A    between atoms: C_2  and  C_5 
REMARK    4  A    between atoms: C_5  and  C_6 
REMARK    5  A    between atoms: C_11  and  O_12 
ROOT
HETATM    1  C   UNK N   1      35.670  12.090  16.747  0.00  0.00    -0.056 A 
HETATM    2  C   UNK N   1      35.404  13.430  17.052  0.00  0.00     0.010 A 
HETATM    3  C   UNK N   1      35.656  11.136  17.778  0.00  0.00     0.010 A 
HETATM    4  C   UNK N   1      35.120  13.812  18.367  0.00  0.00     0.037 A 
HETATM    5  C   UNK N   1      35.370  11.516  19.090  0.00  0.00     0.037 A 
HETATM    6  C   UNK N   1      35.097  12.854  19.385  0.00  0.00     0.065 A 
ENDROOT
BRANCH   1   7
HETATM    7  C   UNK N   1      35.934  11.712  15.312  0.00  0.00     0.070 C 
BRANCH   7   8
HETATM    8  C   UNK N   1      36.823  12.672  14.516  0.00  0.00     0.140 C 
BRANCH   8   9
HETATM    9  N   UNK N   1      38.013  11.984  14.037  0.00  0.00    -0.420 N 
HETATM   10  H   UNK N   1      38.703  11.325  14.394  0.00  0.00     0.150 HD
HETATM   11  H   UNK N   1      38.213  12.233  13.068  0.00  0.00     0.150 HD
ENDBRANCH   8   9
BRANCH   8  12
HETATM   12  C   UNK N   1      36.055  13.185  13.344  0.00  0.00     0.255 C 
HETATM   13  O   UNK N   1      34.900  13.558  13.478  0.00  0.00    -0.305 OA
ENDBRANCH   8  12
ENDBRANCH   7   8
ENDBRANCH   1   7
BRANCH   6  14
HETATM   14  O   UNK N   1      34.810  13.217  20.645  0.00  0.00    -0.361 OA
HETATM   15  H   UNK N   1      34.833  12.582  21.333  0.00  0.00     0.217 HD
ENDBRANCH   6  14
TORSDOF 5
ENDMDL
MODEL 4
REMARK VINA RESULT:      -4.8      0.959      1.694
REMARK  5 active torsions:
REMARK  status: ('A' for Active; 'I' for Inactive)
REMARK    1  A    between atoms: C_2  and  N_1 
REMARK    2  A    between atoms: C_2  and  C_3 
REMARK    3  A    between atoms: C_2  and  C_5 
REMARK    4  A    between atoms: C_5  and  C_6 
REMARK    5  A    between atoms: C_11  and  O_12 
ROOT
HETATM    1  C   UNK N   1      30.900  17.389   7.574  0.00  0.00    -0.056 A 
HETATM    2  C   UNK N   1      30.894  18.124   8.765  0.00  0.00     0.010 A 
HETATM    3  C   UNK N   1      29.677  16.994   7.006  0.00  0.00     0.010 A 
HETATM    4  C   UNK N   1      29.684  18.466   9.378  0.00  0.00     0.037 A 
HETATM    5  C   UNK N   1      28.469  17.337   7.616  0.00  0.00     0.037 A 
HETATM    6  C   UNK N   1      28.471  18.077   8.800  0.00  0.00     0.065 A 
ENDROOT
BRANCH   1   7
HETATM    7  C   UNK N   1      32.222  17.074   6.923  0.00  0.00     0.070 C 
BRANCH   7   8
HETATM    8  C   UNK N   1      33.267  16.400   7.817  0.00  0.00     0.140 C 
BRANCH   8   9
HETATM    9  N   UNK N   1      33.557  15.057   7.338  0.00  0.00    -0.420 N 
HETATM   10  H   UNK N   1      33.263  14.101   7.536  0.00  0.00     0.150 HD
HETATM   11  H   UNK N   1      34.252  15.077   6.591  0.00  0.00     0.150 HD
ENDBRANCH   8   9
BRANCH   8  12
HETATM   12  C   UNK N   1      34.523  17.206   7.787  0.00  0.00     0.255 C 
HETATM   13  O   UNK N   1      34.549  18.286   7.217  0.00  0.00    -0.305 OA
ENDBRANCH   8  12
ENDBRANCH   7   8
ENDBRANCH   1   7
BRANCH   6  14
HETATM   14  O   UNK N   1      27.310  18.418   9.379  0.00  0.00    -0.361 OA
HETATM   15  H   UNK N   1      27.306  18.997  10.116  0.00  0.00     0.217 HD
ENDBRANCH   6  14
TORSDOF 5
ENDMDL
MODEL 5
REMARK VINA RESULT:      -4.7      9.558     11.177
REMARK  5 active torsions:
REMARK  status: ('A' for Active; 'I' for Inactive)
REMARK    1  A    between atoms: C_2  and  N_1 
REMARK    2  A    between atoms: C_2  and  C_3 
REMARK    3  A    between atoms: C_2  and  C_5 
REMARK    4  A    between atoms: C_5  and  C_6 
REMARK    5  A    between atoms: C_11  and  O_12 
ROOT
HETATM    1  C   UNK N   1      21.846  13.268   9.876  0.00  0.00    -0.056 A 
HETATM    2  C   UNK N   1      23.090  13.522   9.287  0.00  0.00     0.010 A 
HETATM    3  C   UNK N   1      21.785  12.474  11.033  0.00  0.00     0.010 A 
HETATM    4  C   UNK N   1      24.258  13.000   9.851  0.00  0.00     0.037 A 
HETATM    5  C   UNK N   1      22.951  11.954  11.598  0.00  0.00     0.037 A 
HETATM    6  C   UNK N   1      24.189  12.220  11.010  0.00  0.00     0.065 A 
ENDROOT
BRANCH   1   7
HETATM    7  C   UNK N   1      20.614  13.881   9.262  0.00  0.00     0.070 C 
BRANCH   7   8
HETATM    8  C   UNK N   1      20.853  14.842   8.093  0.00  0.00     0.140 C 
BRANCH   8   9
HETATM    9  N   UNK N   1      20.437  14.231   6.839  0.00  0.00    -0.420 N 
HETATM   10  H   UNK N   1      20.872  13.793   6.028  0.00  0.00     0.150 HD
HETATM   11  H   UNK N   1      19.421  14.246   6.745  0.00  0.00     0.150 HD
ENDBRANCH   8   9
BRANCH   8  12
HETATM   12  C   UNK N   1      20.055  16.083   8.315  0.00  0.00     0.255 C 
HETATM   13  O   UNK N   1      20.576  17.071   8.809  0.00  0.00    -0.305 OA
ENDBRANCH   8  12
ENDBRANCH   7   8
ENDBRANCH   1   7
BRANCH   6  14
HETATM   14  O   UNK N   1      25.311  11.731  11.559  0.00  0.00    -0.361 OA
HETATM   15  H   UNK N   1      25.967  11.338  11.017  0.00  0.00     0.217 HD
ENDBRANCH   6  14
TORSDOF 5
ENDMDL
MODEL 6
REMARK VINA RESULT:      -4.6      8.393      9.865
REMARK  5 active torsions:
REMARK  status: ('A' for Active; 'I' for Inactive)
REMARK    1  A    between atoms: C_2  and  N_1 
REMARK    2  A    between atoms: C_2  and  C_3 
REMARK    3  A    between atoms: C_2  and  C_5 
REMARK    4  A    between atoms: C_5  and  C_6 
REMARK    5  A    between atoms: C_11  and  O_12 
ROOT
HETATM    1  C   UNK N   1      36.557  13.613  15.504  0.00  0.00    -0.056 A 
HETATM    2  C   UNK N   1      35.643  13.304  16.517  0.00  0.00     0.010 A 
HETATM    3  C   UNK N   1      37.264  14.826  15.564  0.00  0.00     0.010 A 
HETATM    4  C   UNK N   1      35.442  14.190  17.581  0.00  0.00     0.037 A 
HETATM    5  C   UNK N   1      37.065  15.708  16.627  0.00  0.00     0.037 A 
HETATM    6  C   UNK N   1      36.158  15.389  17.639  0.00  0.00     0.065 A 
ENDROOT
BRANCH   1   7
HETATM    7  C   UNK N   1      36.775  12.615  14.395  0.00  0.00     0.070 C 
BRANCH   7   8
HETATM    8  C   UNK N   1      36.751  13.179  12.971  0.00  0.00     0.140 C 
BRANCH   8   9
HETATM    9  N   UNK N   1      37.702  12.469  12.127  0.00  0.00    -0.420 N 
HETATM   10  H   UNK N   1      38.229  12.638  11.271  0.00  0.00     0.150 HD
HETATM   11  H   UNK N   1      37.896  11.538  12.498  0.00  0.00     0.150 HD
ENDBRANCH   8   9
BRANCH   8  12
HETATM   12  C   UNK N   1      35.381  13.009  12.404  0.00  0.00     0.255 C 
HETATM   13  O   UNK N   1      34.600  13.948  12.386  0.00  0.00    -0.305 OA
ENDBRANCH   8  12
ENDBRANCH   7   8
ENDBRANCH   1   7
BRANCH   6  14
HETATM   14  O   UNK N   1      35.976  16.232  18.667  0.00  0.00    -0.361 OA
HETATM   15  H   UNK N   1      35.949  15.903  19.544  0.00  0.00     0.217 HD
ENDBRANCH   6  14
TORSDOF 5
ENDMDL
MODEL 7
REMARK VINA RESULT:      -4.6     10.237     11.292
REMARK  5 active torsions:
REMARK  status: ('A' for Active; 'I' for Inactive)
REMARK    1  A    between atoms: C_2  and  N_1 
REMARK    2  A    between atoms: C_2  and  C_3 
REMARK    3  A    between atoms: C_2  and  C_5 
REMARK    4  A    between atoms: C_5  and  C_6 
REMARK    5  A    between atoms: C_11  and  O_12 
ROOT
HETATM    1  C   UNK N   1      35.508  12.219  16.469  0.00  0.00    -0.056 A 
HETATM    2  C   UNK N   1      35.539  11.175  17.401  0.00  0.00     0.010 A 
HETATM    3  C   UNK N   1      35.322  13.536  16.921  0.00  0.00     0.010 A 
HETATM    4  C   UNK N   1      35.394  11.442  18.766  0.00  0.00     0.037 A 
HETATM    5  C   UNK N   1      35.180  13.803  18.284  0.00  0.00     0.037 A 
HETATM    6  C   UNK N   1      35.221  12.757  19.208  0.00  0.00     0.065 A 
ENDROOT
BRANCH   1   7
HETATM    7  C   UNK N   1      35.706  11.896  15.010  0.00  0.00     0.070 C 
BRANCH   7   8
HETATM    8  C   UNK N   1      34.440  11.878  14.148  0.00  0.00     0.140 C 
BRANCH   8   9
HETATM    9  N   UNK N   1      34.681  12.543  12.876  0.00  0.00    -0.420 N 
HETATM   10  H   UNK N   1      34.182  12.715  12.004  0.00  0.00     0.150 HD
HETATM   11  H   UNK N   1      35.615  12.954  12.850  0.00  0.00     0.150 HD
ENDBRANCH   8   9
BRANCH   8  12
HETATM   12  C   UNK N   1      34.052  10.461  13.887  0.00  0.00     0.255 C 
HETATM   13  O   UNK N   1      34.799   9.548  14.205  0.00  0.00    -0.305 OA
ENDBRANCH   8  12
ENDBRANCH   7   8
ENDBRANCH   1   7
BRANCH   6  14
HETATM   14  O   UNK N   1      35.098  13.015  20.519  0.00  0.00    -0.361 OA
HETATM   15  H   UNK N   1      35.058  13.901  20.821  0.00  0.00     0.217 HD
ENDBRANCH   6  14
TORSDOF 5
ENDMDL
MODEL 8
REMARK VINA RESULT:      -4.4      3.759      5.164
REMARK  5 active torsions:
REMARK  status: ('A' for Active; 'I' for Inactive)
REMARK    1  A    between atoms: C_2  and  N_1 
REMARK    2  A    between atoms: C_2  and  C_3 
REMARK    3  A    between atoms: C_2  and  C_5 
REMARK    4  A    between atoms: C_5  and  C_6 
REMARK    5  A    between atoms: C_11  and  O_12 
ROOT
HETATM    1  C   UNK N   1      32.425  17.422   5.752  0.00  0.00    -0.056 A 
HETATM    2  C   UNK N   1      33.792  17.532   6.031  0.00  0.00     0.010 A 
HETATM    3  C   UNK N   1      31.523  17.220   6.810  0.00  0.00     0.010 A 
HETATM    4  C   UNK N   1      34.253  17.449   7.349  0.00  0.00     0.037 A 
HETATM    5  C   UNK N   1      31.982  17.140   8.126  0.00  0.00     0.037 A 
HETATM    6  C   UNK N   1      33.347  17.259   8.397  0.00  0.00     0.065 A 
ENDROOT
BRANCH   1   7
HETATM    7  C   UNK N   1      31.963  17.556   4.324  0.00  0.00     0.070 C 
BRANCH   7   8
HETATM    8  C   UNK N   1      31.290  16.321   3.717  0.00  0.00     0.140 C 
BRANCH   8   9
HETATM    9  N   UNK N   1      30.327  16.715   2.699  0.00  0.00    -0.420 N 
HETATM   10  H   UNK N   1      30.313  16.885   1.694  0.00  0.00     0.150 HD
HETATM   11  H   UNK N   1      29.404  16.864   3.107  0.00  0.00     0.150 HD
ENDBRANCH   8   9
BRANCH   8  12
HETATM   12  C   UNK N   1      32.334  15.460   3.088  0.00  0.00     0.255 C 
HETATM   13  O   UNK N   1      33.286  15.965   2.513  0.00  0.00    -0.305 OA
ENDBRANCH   8  12
ENDBRANCH   7   8
ENDBRANCH   1   7
BRANCH   6  14
HETATM   14  O   UNK N   1      33.787  17.195   9.663  0.00  0.00    -0.361 OA
HETATM   15  H   UNK N   1      34.183  16.407   9.983  0.00  0.00     0.217 HD
ENDBRANCH   6  14
TORSDOF 5
ENDMDL
MODEL 9
REMARK VINA RESULT:      -4.4      4.407      6.951
REMARK  5 active torsions:
REMARK  status: ('A' for Active; 'I' for Inactive)
REMARK    1  A    between atoms: C_2  and  N_1 
REMARK    2  A    between atoms: C_2  and  C_3 
REMARK    3  A    between atoms: C_2  and  C_5 
REMARK    4  A    between atoms: C_5  and  C_6 
REMARK    5  A    between atoms: C_11  and  O_12 
ROOT
HETATM    1  C   UNK N   1      35.929  15.790  10.800  0.00  0.00    -0.056 A 
HETATM    2  C   UNK N   1      35.637  15.433  12.122  0.00  0.00     0.010 A 
HETATM    3  C   UNK N   1      36.725  14.935  10.019  0.00  0.00     0.010 A 
HETATM    4  C   UNK N   1      36.125  14.235  12.654  0.00  0.00     0.037 A 
HETATM    5  C   UNK N   1      37.209  13.738  10.549  0.00  0.00     0.037 A 
HETATM    6  C   UNK N   1      36.906  13.385  11.865  0.00  0.00     0.065 A 
ENDROOT
BRANCH   1   7
HETATM    7  C   UNK N   1      35.353  17.069  10.250  0.00  0.00     0.070 C 
BRANCH   7   8
HETATM    8  C   UNK N   1      34.503  16.932   8.982  0.00  0.00     0.140 C 
BRANCH   8   9
HETATM    9  N   UNK N   1      33.126  16.610   9.326  0.00  0.00    -0.420 N 
HETATM   10  H   UNK N   1      32.262  16.364   8.844  0.00  0.00     0.150 HD
HETATM   11  H   UNK N   1      32.985  16.640  10.336  0.00  0.00     0.150 HD
ENDBRANCH   8   9
BRANCH   8  12
HETATM   12  C   UNK N   1      34.527  18.227   8.241  0.00  0.00     0.255 C 
HETATM   13  O   UNK N   1      35.291  19.118   8.579  0.00  0.00    -0.305 OA
ENDBRANCH   8  12
ENDBRANCH   7   8
ENDBRANCH   1   7
BRANCH   6  14
HETATM   14  O   UNK N   1      37.362  12.229  12.371  0.00  0.00    -0.361 OA
HETATM   15  H   UNK N   1      37.464  11.481  11.815  0.00  0.00     0.217 HD
ENDBRANCH   6  14
TORSDOF 5
ENDMDL
