MODEL 1
REMARK VINA RESULT:      -5.5      0.000      0.000
REMARK  5 active torsions:
REMARK  status: ('A' for Active; 'I' for Inactive)
REMARK    1  A    between atoms: C_2  and  N_1 
REMARK    2  A    between atoms: C_2  and  C_3 
REMARK    3  A    between atoms: C_2  and  C_5 
REMARK       I    between atoms: C_3  and  N_13 
REMARK    4  A    between atoms: C_5  and  C_6 
REMARK    5  A    between atoms: O_11  and  C_12 
ROOT
HETATM    1  C   UNK N   1      36.174  13.700  14.551  0.00  0.00     0.171 C 
ENDROOT
BRANCH   1   2
HETATM    2  N   UNK N   1      37.498  13.138  14.773  0.00  0.00    -0.418 N 
HETATM    3  H   UNK N   1      38.132  12.439  14.384  0.00  0.00     0.150 HD
HETATM    4  H   UNK N   1      37.933  13.588  15.578  0.00  0.00     0.150 HD
ENDBRANCH   1   2
BRANCH   1   5
HETATM    5  C   UNK N   1      35.965  13.853  13.065  0.00  0.00     0.237 C 
HETATM    6  O   UNK N   1      34.834  13.969  12.625  0.00  0.00    -0.271 OA
HETATM    7  N   UNK N   1      37.014  13.875  12.214  0.00  0.00    -0.368 N 
HETATM    8  H   UNK N   1      37.936  13.874  12.557  0.00  0.00     0.159 HD
HETATM    9  H   UNK N   1      36.855  13.893  11.243  0.00  0.00     0.159 HD
ENDBRANCH   1   5
BRANCH   1  10
HETATM   10  C   UNK N   1      35.101  12.796  15.179  0.00  0.00     0.072 C 
BRANCH  10  11
HETATM   11  C   UNK N   1      35.245  12.488  16.646  0.00  0.00    -0.056 A 
HETATM   12  C   UNK N   1      35.076  13.530  17.565  0.00  0.00     0.010 A 
HETATM   13  C   UNK N   1      35.152  13.279  18.938  0.00  0.00     0.037 A 
HETATM   14  C   UNK N   1      35.392  11.981  19.399  0.00  0.00     0.065 A 
HETATM   15  C   UNK N   1      35.574  10.938  18.488  0.00  0.00     0.037 A 
HETATM   16  C   UNK N   1      35.503  11.191  17.116  0.00  0.00     0.010 A 
BRANCH  14  17
HETATM   17  O   UNK N   1      35.443  11.737  20.718  0.00  0.00    -0.361 OA
HETATM   18  H   UNK N   1      35.191  10.897  21.049  0.00  0.00     0.217 HD
ENDBRANCH  14  17
ENDBRANCH  10  11
ENDBRANCH   1  10
TORSDOF 5
ENDMDL
MODEL 2
REMARK VINA RESULT:      -5.3      9.070     10.577
REMARK  5 active torsions:
REMARK  status: ('A' for Active; 'I' for Inactive)
REMARK    1  A    between atoms: C_2  and  N_1 
REMARK    2  A    between atoms: C_2  and  C_3 
REMARK    3  A    between atoms: C_2  and  C_5 
REMARK       I    between atoms: C_3  and  N_13 
REMARK    4  A    between atoms: C_5  and  C_6 
REMARK    5  A    between atoms: O_11  and  C_12 
ROOT
HETATM    1  C   UNK N   1      33.655  16.666   8.366  0.00  0.00     0.171 C 
ENDROOT
BRANCH   1   2
HETATM    2  N   UNK N   1      34.406  15.782   7.488  0.00  0.00    -0.418 N 
HETATM    3  H   UNK N   1      35.196  15.137   7.509  0.00  0.00     0.150 HD
HETATM    4  H   UNK N   1      34.017  15.820   6.546  0.00  0.00     0.150 HD
ENDBRANCH   1   2
BRANCH   1   5
HETATM    5  C   UNK N   1      34.634  17.482   9.171  0.00  0.00     0.237 C 
HETATM    6  O   UNK N   1      35.118  18.493   8.689  0.00  0.00    -0.271 OA
HETATM    7  N   UNK N   1      34.978  17.116  10.426  0.00  0.00    -0.368 N 
HETATM    8  H   UNK N   1      34.532  16.357  10.865  0.00  0.00     0.159 HD
HETATM    9  H   UNK N   1      35.680  17.614  10.905  0.00  0.00     0.159 HD
ENDBRANCH   1   5
BRANCH   1  10
HETATM   10  C   UNK N   1      32.719  17.565   7.541  0.00  0.00     0.072 C 
BRANCH  10  11
HETATM   11  C   UNK N   1      31.291  17.669   8.009  0.00  0.00    -0.056 A 
HETATM   12  C   UNK N   1      31.012  18.472   9.121  0.00  0.00     0.010 A 
HETATM   13  C   UNK N   1      29.694  18.637   9.559  0.00  0.00     0.037 A 
HETATM   14  C   UNK N   1      28.648  18.003   8.881  0.00  0.00     0.065 A 
HETATM   15  C   UNK N   1      28.920  17.192   7.778  0.00  0.00     0.037 A 
HETATM   16  C   UNK N   1      30.237  17.024   7.344  0.00  0.00     0.010 A 
BRANCH  14  17
HETATM   17  O   UNK N   1      27.382  18.180   9.289  0.00  0.00    -0.361 OA
HETATM   18  H   UNK N   1      26.896  18.928   9.000  0.00  0.00     0.217 HD
ENDBRANCH  14  17
ENDBRANCH  10  11
ENDBRANCH   1  10
TORSDOF 5
ENDMDL
MODEL 3
REMARK VINA RESULT:      -5.3      8.141     11.927
REMARK  5 active torsions:
REMARK  status: ('A' for Active; 'I' for Inactive)
REMARK    1  A    between atoms: C_2  and  N_1 
REMARK    2  A    between atoms: C_2  and  C_3 
REMARK    3  A    between atoms: C_2  and  C_5 
REMARK       I    between atoms: C_3  and  N_13 
REMARK    4  A    between atoms: C_5  and  C_6 
REMARK    5  A    between atoms: O_11  and  C_12 
ROOT
HETATM    1  C   UNK N   1      34.430  17.489   8.439  0.00  0.00     0.171 C 
ENDROOT
BRANCH   1   2
HETATM    2  N   UNK N   1      34.900  18.866   8.485  0.00  0.00    -0.418 N 
HETATM    3  H   UNK N   1      34.789  19.718   9.036  0.00  0.00     0.150 HD
HETATM    4  H   UNK N   1      35.550  19.034   7.718  0.00  0.00     0.150 HD
ENDBRANCH   1   2
BRANCH   1   5
HETATM    5  C   UNK N   1      34.735  16.839   9.765  0.00  0.00     0.237 C 
HETATM    6  O   UNK N   1      35.660  17.255  10.443  0.00  0.00    -0.271 OA
HETATM    7  N   UNK N   1      33.991  15.806  10.221  0.00  0.00    -0.368 N 
HETATM    8  H   UNK N   1      33.188  15.516   9.732  0.00  0.00     0.159 HD
HETATM    9  H   UNK N   1      34.255  15.341  11.047  0.00  0.00     0.159 HD
ENDBRANCH   1   5
BRANCH   1  10
HETATM   10  C   UNK N   1      32.925  17.451   8.126  0.00  0.00     0.072 C 
BRANCH  10  11
HETATM   11  C   UNK N   1      32.536  17.341   6.676  0.00  0.00    -0.056 A 
HETATM   12  C   UNK N   1      31.186  17.158   6.361  0.00  0.00     0.010 A 
HETATM   13  C   UNK N   1      30.774  17.101   5.026  0.00  0.00     0.037 A 
HETATM   14  C   UNK N   1      31.713  17.234   3.998  0.00  0.00     0.065 A 
HETATM   15  C   UNK N   1      33.064  17.406   4.305  0.00  0.00     0.037 A 
HETATM   16  C   UNK N   1      33.475  17.457   5.639  0.00  0.00     0.010 A 
BRANCH  14  17
HETATM   17  O   UNK N   1      31.314  17.201   2.718  0.00  0.00    -0.361 OA
HETATM   18  H   UNK N   1      31.234  17.998   2.230  0.00  0.00     0.217 HD
ENDBRANCH  14  17
ENDBRANCH  10  11
ENDBRANCH   1  10
TORSDOF 5
ENDMDL
MODEL 4
REMARK VINA RESULT:      -5.2     15.538     16.494
REMARK  5 active torsions:
REMARK  status: ('A' for Active; 'I' for Inactive)
REMARK    1  A    between atoms: C_2  and  N_1 
REMARK    2  A    between atoms: C_2  and  C_3 
REMARK    3  A    between atoms: C_2  and  C_5 
REMARK       I    between atoms: C_3  and  N_13 
REMARK    4  A    between atoms: C_5  and  C_6 
REMARK    5  A    between atoms: O_11  and  C_12 
ROOT
HETATM    1  C   UNK N   1      20.539  16.086   8.620  0.00  0.00     0.171 C 
ENDROOT
BRANCH   1   2
HETATM    2  N   UNK N   1      20.999  16.720   7.393  0.00  0.00    -0.418 N 
HETATM    3  H   UNK N   1      21.306  16.480   6.450  0.00  0.00     0.150 HD
HETATM    4  H   UNK N   1      21.024  17.732   7.517  0.00  0.00     0.150 HD
ENDBRANCH   1   2
BRANCH   1   5
HETATM    5  C   UNK N   1      19.177  16.639   8.958  0.00  0.00     0.237 C 
HETATM    6  O   UNK N   1      18.276  15.875   9.263  0.00  0.00    -0.271 OA
HETATM    7  N   UNK N   1      18.941  17.969   8.939  0.00  0.00    -0.368 N 
HETATM    8  H   UNK N   1      19.677  18.604   8.784  0.00  0.00     0.159 HD
HETATM    9  H   UNK N   1      18.027  18.305   9.082  0.00  0.00     0.159 HD
ENDBRANCH   1   5
BRANCH   1  10
HETATM   10  C   UNK N   1      20.499  14.559   8.446  0.00  0.00     0.072 C 
BRANCH  10  11
HETATM   11  C   UNK N   1      21.126  13.735   9.540  0.00  0.00    -0.056 A 
HETATM   12  C   UNK N   1      20.286  13.118  10.473  0.00  0.00     0.010 A 
HETATM   13  C   UNK N   1      20.822  12.304  11.475  0.00  0.00     0.037 A 
HETATM   14  C   UNK N   1      22.204  12.098  11.544  0.00  0.00     0.065 A 
HETATM   15  C   UNK N   1      23.049  12.719  10.622  0.00  0.00     0.037 A 
HETATM   16  C   UNK N   1      22.513  13.536   9.625  0.00  0.00     0.010 A 
BRANCH  14  17
HETATM   17  O   UNK N   1      22.716  11.298  12.492  0.00  0.00    -0.361 OA
HETATM   18  H   UNK N   1      22.845  11.625  13.361  0.00  0.00     0.217 HD
ENDBRANCH  14  17
ENDBRANCH  10  11
ENDBRANCH   1  10
TORSDOF 5
ENDMDL
MODEL 5
REMARK VINA RESULT:      -5.1     25.999     27.205
REMARK  5 active torsions:
REMARK  status: ('A' for Active; 'I' for Inactive)
REMARK    1  A    between atoms: C_2  and  N_1 
REMARK    2  A    between atoms: C_2  and  C_3 
REMARK    3  A    between atoms: C_2  and  C_5 
REMARK       I    between atoms: C_3  and  N_13 
REMARK    4  A    between atoms: C_5  and  C_6 
REMARK    5  A    between atoms: O_11  and  C_12 
ROOT
HETATM    1  C   UNK N   1      26.330  23.491  -7.090  0.00  0.00     0.171 C 
ENDROOT
BRANCH   1   2
HETATM    2  N   UNK N   1      27.591  22.769  -7.158  0.00  0.00    -0.418 N 
HETATM    3  H   UNK N   1      28.581  22.929  -7.352  0.00  0.00     0.150 HD
HETATM    4  H   UNK N   1      27.437  21.785  -6.942  0.00  0.00     0.150 HD
ENDBRANCH   1   2
BRANCH   1   5
HETATM    5  C   UNK N   1      25.312  22.749  -7.919  0.00  0.00     0.237 C 
HETATM    6  O   UNK N   1      24.599  23.366  -8.693  0.00  0.00    -0.271 OA
HETATM    7  N   UNK N   1      25.182  21.407  -7.824  0.00  0.00    -0.368 N 
HETATM    8  H   UNK N   1      25.806  20.883  -7.273  0.00  0.00     0.159 HD
HETATM    9  H   UNK N   1      24.458  20.951  -8.310  0.00  0.00     0.159 HD
ENDBRANCH   1   5
BRANCH   1  10
HETATM   10  C   UNK N   1      25.873  23.627  -5.628  0.00  0.00     0.072 C 
BRANCH  10  11
HETATM   11  C   UNK N   1      25.867  25.016  -5.046  0.00  0.00    -0.056 A 
HETATM   12  C   UNK N   1      25.205  26.029  -5.747  0.00  0.00     0.010 A 
HETATM   13  C   UNK N   1      25.131  27.322  -5.218  0.00  0.00     0.037 A 
HETATM   14  C   UNK N   1      25.715  27.605  -3.980  0.00  0.00     0.065 A 
HETATM   15  C   UNK N   1      26.387  26.601  -3.279  0.00  0.00     0.037 A 
HETATM   16  C   UNK N   1      26.464  25.312  -3.811  0.00  0.00     0.010 A 
BRANCH  14  17
HETATM   17  O   UNK N   1      25.625  28.840  -3.463  0.00  0.00    -0.361 OA
HETATM   18  H   UNK N   1      24.914  29.400  -3.708  0.00  0.00     0.217 HD
ENDBRANCH  14  17
ENDBRANCH  10  11
ENDBRANCH   1  10
TORSDOF 5
ENDMDL
MODEL 6
REMARK VINA RESULT:      -5.0      9.872     11.326
REMARK  5 active torsions:
REMARK  status: ('A' for Active; 'I' for Inactive)
REMARK    1  A    between atoms: C_2  and  N_1 
REMARK    2  A    between atoms: C_2  and  C_3 
REMARK    3  A    between atoms: C_2  and  C_5 
REMARK       I    between atoms: C_3  and  N_13 
REMARK    4  A    between atoms: C_5  and  C_6 
REMARK    5  A    between atoms: O_11  and  C_12 
ROOT
HETATM    1  C   UNK N   1      33.386  17.448   8.538  0.00  0.00     0.171 C 
ENDROOT
BRANCH   1   2
HETATM    2  N   UNK N   1      34.200  17.166   9.712  0.00  0.00    -0.418 N 
HETATM    3  H   UNK N   1      34.106  17.014  10.717  0.00  0.00     0.150 HD
HETATM    4  H   UNK N   1      35.181  17.097   9.442  0.00  0.00     0.150 HD
ENDBRANCH   1   2
BRANCH   1   5
HETATM    5  C   UNK N   1      34.204  17.145   7.308  0.00  0.00     0.237 C 
HETATM    6  O   UNK N   1      34.342  18.002   6.451  0.00  0.00    -0.271 OA
HETATM    7  N   UNK N   1      34.796  15.941   7.145  0.00  0.00    -0.368 N 
HETATM    8  H   UNK N   1      34.772  15.271   7.865  0.00  0.00     0.159 HD
HETATM    9  H   UNK N   1      35.256  15.734   6.300  0.00  0.00     0.159 HD
ENDBRANCH   1   5
BRANCH   1  10
HETATM   10  C   UNK N   1      32.095  16.614   8.574  0.00  0.00     0.072 C 
BRANCH  10  11
HETATM   11  C   UNK N   1      30.818  17.324   8.210  0.00  0.00    -0.056 A 
HETATM   12  C   UNK N   1      30.313  17.165   6.915  0.00  0.00     0.010 A 
HETATM   13  C   UNK N   1      29.104  17.765   6.549  0.00  0.00     0.037 A 
HETATM   14  C   UNK N   1      28.391  18.525   7.482  0.00  0.00     0.065 A 
HETATM   15  C   UNK N   1      28.895  18.697   8.773  0.00  0.00     0.037 A 
HETATM   16  C   UNK N   1      30.104  18.101   9.136  0.00  0.00     0.010 A 
BRANCH  14  17
HETATM   17  O   UNK N   1      27.221  19.083   7.138  0.00  0.00    -0.361 OA
HETATM   18  H   UNK N   1      26.634  19.390   7.801  0.00  0.00     0.217 HD
ENDBRANCH  14  17
ENDBRANCH  10  11
ENDBRANCH   1  10
TORSDOF 5
ENDMDL
MODEL 7
REMARK VINA RESULT:      -4.9     10.669     11.427
REMARK  5 active torsions:
REMARK  status: ('A' for Active; 'I' for Inactive)
REMARK    1  A    between atoms: C_2  and  N_1 
REMARK    2  A    between atoms: C_2  and  C_3 
REMARK    3  A    between atoms: C_2  and  C_5 
REMARK       I    between atoms: C_3  and  N_13 
REMARK    4  A    between atoms: C_5  and  C_6 
REMARK    5  A    between atoms: O_11  and  C_12 
ROOT
HETATM    1  C   UNK N   1      29.676  17.213   9.163  0.00  0.00     0.171 C 
ENDROOT
BRANCH   1   2
HETATM    2  N   UNK N   1      29.495  17.174  10.607  0.00  0.00    -0.418 N 
HETATM    3  H   UNK N   1      29.456  16.506  11.378  0.00  0.00     0.150 HD
HETATM    4  H   UNK N   1      29.367  18.120  10.964  0.00  0.00     0.150 HD
ENDBRANCH   1   2
BRANCH   1   5
HETATM    5  C   UNK N   1      28.365  17.606   8.530  0.00  0.00     0.237 C 
HETATM    6  O   UNK N   1      28.002  17.056   7.504  0.00  0.00    -0.271 OA
HETATM    7  N   UNK N   1      27.579  18.554   9.088  0.00  0.00    -0.368 N 
HETATM    8  H   UNK N   1      27.811  18.943   9.962  0.00  0.00     0.159 HD
HETATM    9  H   UNK N   1      26.769  18.855   8.618  0.00  0.00     0.159 HD
ENDBRANCH   1   5
BRANCH   1  10
HETATM   10  C   UNK N   1      30.797  18.198   8.794  0.00  0.00     0.072 C 
BRANCH  10  11
HETATM   11  C   UNK N   1      31.989  17.630   8.070  0.00  0.00    -0.056 A 
HETATM   12  C   UNK N   1      31.801  16.511   7.253  0.00  0.00     0.010 A 
HETATM   13  C   UNK N   1      32.869  15.981   6.523  0.00  0.00     0.037 A 
HETATM   14  C   UNK N   1      34.133  16.575   6.605  0.00  0.00     0.065 A 
HETATM   15  C   UNK N   1      34.331  17.686   7.427  0.00  0.00     0.037 A 
HETATM   16  C   UNK N   1      33.264  18.211   8.159  0.00  0.00     0.010 A 
BRANCH  14  17
HETATM   17  O   UNK N   1      35.153  16.079   5.888  0.00  0.00    -0.361 OA
HETATM   18  H   UNK N   1      35.608  15.315   6.185  0.00  0.00     0.217 HD
ENDBRANCH  14  17
ENDBRANCH  10  11
ENDBRANCH   1  10
TORSDOF 5
ENDMDL
MODEL 8
REMARK VINA RESULT:      -4.9     22.470     24.173
REMARK  5 active torsions:
REMARK  status: ('A' for Active; 'I' for Inactive)
REMARK    1  A    between atoms: C_2  and  N_1 
REMARK    2  A    between atoms: C_2  and  C_3 
REMARK    3  A    between atoms: C_2  and  C_5 
REMARK       I    between atoms: C_3  and  N_13 
REMARK    4  A    between atoms: C_5  and  C_6 
REMARK    5  A    between atoms: O_11  and  C_12 
ROOT
HETATM    1  C   UNK N   1      27.759  24.649  -5.124  0.00  0.00     0.171 C 
ENDROOT
BRANCH   1   2
HETATM    2  N   UNK N   1      27.637  25.530  -6.276  0.00  0.00    -0.418 N 
HETATM    3  H   UNK N   1      27.098  25.630  -7.137  0.00  0.00     0.150 HD
HETATM    4  H   UNK N   1      28.307  26.294  -6.198  0.00  0.00     0.150 HD
ENDBRANCH   1   2
BRANCH   1   5
HETATM    5  C   UNK N   1      26.380  24.395  -4.571  0.00  0.00     0.237 C 
HETATM    6  O   UNK N   1      26.244  24.130  -3.388  0.00  0.00    -0.271 OA
HETATM    7  N   UNK N   1      25.288  24.465  -5.364  0.00  0.00    -0.368 N 
HETATM    8  H   UNK N   1      25.368  24.765  -6.298  0.00  0.00     0.159 HD
HETATM    9  H   UNK N   1      24.406  24.216  -5.005  0.00  0.00     0.159 HD
ENDBRANCH   1   5
BRANCH   1  10
HETATM   10  C   UNK N   1      28.453  23.338  -5.529  0.00  0.00     0.072 C 
BRANCH  10  11
HETATM   11  C   UNK N   1      29.483  22.792  -4.575  0.00  0.00    -0.056 A 
HETATM   12  C   UNK N   1      30.157  21.617  -4.923  0.00  0.00     0.010 A 
HETATM   13  C   UNK N   1      31.156  21.104  -4.091  0.00  0.00     0.037 A 
HETATM   14  C   UNK N   1      31.489  21.768  -2.906  0.00  0.00     0.065 A 
HETATM   15  C   UNK N   1      30.812  22.935  -2.546  0.00  0.00     0.037 A 
HETATM   16  C   UNK N   1      29.811  23.445  -3.376  0.00  0.00     0.010 A 
BRANCH  14  17
HETATM   17  O   UNK N   1      32.463  21.286  -2.118  0.00  0.00    -0.361 OA
HETATM   18  H   UNK N   1      33.287  21.731  -2.065  0.00  0.00     0.217 HD
ENDBRANCH  14  17
ENDBRANCH  10  11
ENDBRANCH   1  10
TORSDOF 5
ENDMDL
MODEL 9
REMARK VINA RESULT:      -4.9     11.230     12.566
REMARK  5 active torsions:
REMARK  status: ('A' for Active; 'I' for Inactive)
REMARK    1  A    between atoms: C_2  and  N_1 
REMARK    2  A    between atoms: C_2  and  C_3 
REMARK    3  A    between atoms: C_2  and  C_5 
REMARK       I    between atoms: C_3  and  N_13 
REMARK    4  A    between atoms: C_5  and  C_6 
REMARK    5  A    between atoms: O_11  and  C_12 
ROOT
HETATM    1  C   UNK N   1      28.113  17.416   6.563  0.00  0.00     0.171 C 
ENDROOT
BRANCH   1   2
HETATM    2  N   UNK N   1      26.853  16.739   6.827  0.00  0.00    -0.418 N 
HETATM    3  H   UNK N   1      25.850  16.926   6.856  0.00  0.00     0.150 HD
HETATM    4  H   UNK N   1      27.028  15.761   7.058  0.00  0.00     0.150 HD
ENDBRANCH   1   2
BRANCH   1   5
HETATM    5  C   UNK N   1      27.835  18.887   6.381  0.00  0.00     0.237 C 
HETATM    6  O   UNK N   1      28.093  19.422   5.316  0.00  0.00    -0.271 OA
HETATM    7  N   UNK N   1      27.294  19.621   7.378  0.00  0.00    -0.368 N 
HETATM    8  H   UNK N   1      26.996  19.190   8.211  0.00  0.00     0.159 HD
HETATM    9  H   UNK N   1      27.196  20.595   7.270  0.00  0.00     0.159 HD
ENDBRANCH   1   5
BRANCH   1  10
HETATM   10  C   UNK N   1      29.101  17.169   7.716  0.00  0.00     0.072 C 
BRANCH  10  11
HETATM   11  C   UNK N   1      30.561  17.379   7.415  0.00  0.00    -0.056 A 
HETATM   12  C   UNK N   1      31.396  17.828   8.444  0.00  0.00     0.010 A 
HETATM   13  C   UNK N   1      32.767  17.989   8.222  0.00  0.00     0.037 A 
HETATM   14  C   UNK N   1      33.311  17.694   6.969  0.00  0.00     0.065 A 
HETATM   15  C   UNK N   1      32.483  17.256   5.933  0.00  0.00     0.037 A 
HETATM   16  C   UNK N   1      31.113  17.101   6.154  0.00  0.00     0.010 A 
BRANCH  14  17
HETATM   17  O   UNK N   1      34.630  17.827   6.763  0.00  0.00    -0.361 OA
HETATM   18  H   UNK N   1      35.147  17.079   6.533  0.00  0.00     0.217 HD
ENDBRANCH  14  17
ENDBRANCH  10  11
ENDBRANCH   1  10
TORSDOF 5
ENDMDL
