MODEL 1
REMARK VINA RESULT:      -5.5      0.000      0.000
REMARK  6 active torsions:
REMARK  status: ('A' for Active; 'I' for Inactive)
REMARK    1  A    between atoms: C_2  and  N_1 
REMARK    2  A    between atoms: C_2  and  C_3 
REMARK    3  A    between atoms: C_2  and  C_11 
REMARK    4  A    between atoms: C_3  and  C_4 
REMARK    5  A    between atoms: C_9  and  O_10 
REMARK    6  A    between atoms: C_11  and  O_13 
ROOT
HETATM    1  C   UNK N   1      35.832  15.737  10.806  0.00  0.00    -0.053 A 
HETATM    2  C   UNK N   1      36.604  15.003   9.905  0.00  0.00     0.028 A 
HETATM    3  C   UNK N   1      37.268  13.848  10.316  0.00  0.00     0.041 A 
HETATM    4  C   UNK N   1      35.726  15.307  12.136  0.00  0.00     0.028 A 
HETATM    5  C   UNK N   1      36.393  14.154  12.560  0.00  0.00     0.041 A 
HETATM    6  C   UNK N   1      37.168  13.420  11.648  0.00  0.00     0.098 A 
HETATM    7  I   UNK N   1      38.412  12.788   8.896  0.00  0.00    -0.042 I 
HETATM    8  I   UNK N   1      36.219  13.563  14.579  0.00  0.00    -0.042 I 
ENDROOT
BRANCH   1   9
HETATM    9  C   UNK N   1      35.168  16.986  10.304  0.00  0.00     0.074 C 
BRANCH   9  10
HETATM   10  C   UNK N   1      34.385  16.891   8.992  0.00  0.00     0.177 C 
BRANCH  10  11
HETATM   11  N   UNK N   1      32.953  16.870   9.255  0.00  0.00    -0.417 N 
HETATM   12  H   UNK N   1      32.062  17.087   8.809  0.00  0.00     0.150 HD
HETATM   13  H   UNK N   1      32.785  16.522  10.198  0.00  0.00     0.150 HD
ENDBRANCH  10  11
BRANCH  10  14
HETATM   14  C   UNK N   1      34.702  18.077   8.121  0.00  0.00     0.163 C 
HETATM   15  O   UNK N   1      34.405  18.059   6.939  0.00  0.00    -0.648 OA
BRANCH  14  16
HETATM   16  O   UNK N   1      35.306  19.169   8.635  0.00  0.00    -0.775 OA
HETATM   17  H   UNK N   1      34.808  19.935   8.842  0.00  0.00     0.167 HD
ENDBRANCH  14  16
ENDBRANCH  10  14
ENDBRANCH   9  10
ENDBRANCH   1   9
BRANCH   6  18
HETATM   18  O   UNK N   1      37.815  12.311  12.050  0.00  0.00    -0.358 OA
HETATM   19  H   UNK N   1      38.465  11.923  11.498  0.00  0.00     0.217 HD
ENDBRANCH   6  18
TORSDOF 6
ENDMDL
MODEL 2
REMARK VINA RESULT:      -5.5      0.080      2.568
REMARK  6 active torsions:
REMARK  status: ('A' for Active; 'I' for Inactive)
REMARK    1  A    between atoms: C_2  and  N_1 
REMARK    2  A    between atoms: C_2  and  C_3 
REMARK    3  A    between atoms: C_2  and  C_11 
REMARK    4  A    between atoms: C_3  and  C_4 
REMARK    5  A    between atoms: C_9  and  O_10 
REMARK    6  A    between atoms: C_11  and  O_13 
ROOT
HETATM    1  C   UNK N   1      35.881  15.720  10.699  0.00  0.00    -0.053 A 
HETATM    2  C   UNK N   1      35.770  15.325  12.032  0.00  0.00     0.028 A 
HETATM    3  C   UNK N   1      36.414  14.176  12.489  0.00  0.00     0.041 A 
HETATM    4  C   UNK N   1      36.649  14.952   9.813  0.00  0.00     0.028 A 
HETATM    5  C   UNK N   1      37.294  13.794  10.258  0.00  0.00     0.041 A 
HETATM    6  C   UNK N   1      37.177  13.402  11.601  0.00  0.00     0.098 A 
HETATM    7  I   UNK N   1      36.203  13.645  14.519  0.00  0.00    -0.042 I 
HETATM    8  I   UNK N   1      38.417  12.660   8.877  0.00  0.00    -0.042 I 
ENDROOT
BRANCH   1   9
HETATM    9  C   UNK N   1      35.139  16.951  10.269  0.00  0.00     0.074 C 
BRANCH   9  10
HETATM   10  C   UNK N   1      34.353  16.879   8.956  0.00  0.00     0.177 C 
BRANCH  10  11
HETATM   11  N   UNK N   1      32.922  16.866   9.221  0.00  0.00    -0.417 N 
HETATM   12  H   UNK N   1      32.071  17.381   8.999  0.00  0.00     0.150 HD
HETATM   13  H   UNK N   1      32.695  16.082   9.831  0.00  0.00     0.150 HD
ENDBRANCH  10  11
BRANCH  10  14
HETATM   14  C   UNK N   1      34.679  18.073   8.100  0.00  0.00     0.163 C 
HETATM   15  O   UNK N   1      34.377  18.073   6.918  0.00  0.00    -0.648 OA
BRANCH  14  16
HETATM   16  O   UNK N   1      35.296  19.152   8.626  0.00  0.00    -0.775 OA
HETATM   17  H   UNK N   1      34.826  19.951   8.760  0.00  0.00     0.167 HD
ENDBRANCH  14  16
ENDBRANCH  10  14
ENDBRANCH   9  10
ENDBRANCH   1   9
BRANCH   6  18
HETATM   18  O   UNK N   1      37.792  12.288  12.036  0.00  0.00    -0.358 OA
HETATM   19  H   UNK N   1      38.576  12.355  12.545  0.00  0.00     0.217 HD
ENDBRANCH   6  18
TORSDOF 6
ENDMDL
MODEL 3
REMARK VINA RESULT:      -5.4      5.357      6.986
REMARK  6 active torsions:
REMARK  status: ('A' for Active; 'I' for Inactive)
REMARK    1  A    between atoms: C_2  and  N_1 
REMARK    2  A    between atoms: C_2  and  C_3 
REMARK    3  A    between atoms: C_2  and  C_11 
REMARK    4  A    between atoms: C_3  and  C_4 
REMARK    5  A    between atoms: C_9  and  O_10 
REMARK    6  A    between atoms: C_11  and  O_13 
ROOT
HETATM    1  C   UNK N   1      31.971  16.215   7.550  0.00  0.00    -0.053 A 
HETATM    2  C   UNK N   1      31.678  15.265   6.572  0.00  0.00     0.028 A 
HETATM    3  C   UNK N   1      30.434  15.255   5.943  0.00  0.00     0.041 A 
HETATM    4  C   UNK N   1      31.004  17.167   7.902  0.00  0.00     0.028 A 
HETATM    5  C   UNK N   1      29.751  17.162   7.282  0.00  0.00     0.041 A 
HETATM    6  C   UNK N   1      29.462  16.203   6.298  0.00  0.00     0.098 A 
HETATM    7  I   UNK N   1      30.065  13.792   4.469  0.00  0.00    -0.042 I 
HETATM    8  I   UNK N   1      28.321  18.601   7.866  0.00  0.00    -0.042 I 
ENDROOT
BRANCH   1   9
HETATM    9  C   UNK N   1      33.319  16.151   8.207  0.00  0.00     0.074 C 
BRANCH   9  10
HETATM   10  C   UNK N   1      33.790  17.389   8.975  0.00  0.00     0.177 C 
BRANCH  10  11
HETATM   11  N   UNK N   1      34.628  17.000  10.101  0.00  0.00    -0.417 N 
HETATM   12  H   UNK N   1      35.509  16.531  10.307  0.00  0.00     0.150 HD
HETATM   13  H   UNK N   1      34.188  17.296  10.971  0.00  0.00     0.150 HD
ENDBRANCH  10  11
BRANCH  10  14
HETATM   14  C   UNK N   1      34.585  18.283   8.063  0.00  0.00     0.163 C 
HETATM   15  O   UNK N   1      34.550  18.106   6.857  0.00  0.00    -0.648 OA
BRANCH  14  16
HETATM   16  O   UNK N   1      35.333  19.290   8.563  0.00  0.00    -0.775 OA
HETATM   17  H   UNK N   1      35.710  19.223   9.419  0.00  0.00     0.167 HD
ENDBRANCH  14  16
ENDBRANCH  10  14
ENDBRANCH   9  10
ENDBRANCH   1   9
BRANCH   6  18
HETATM   18  O   UNK N   1      28.258  16.190   5.700  0.00  0.00    -0.358 OA
HETATM   19  H   UNK N   1      27.709  16.949   5.736  0.00  0.00     0.217 HD
ENDBRANCH   6  18
TORSDOF 6
ENDMDL
MODEL 4
REMARK VINA RESULT:      -5.4      5.333      7.432
REMARK  6 active torsions:
REMARK  status: ('A' for Active; 'I' for Inactive)
REMARK    1  A    between atoms: C_2  and  N_1 
REMARK    2  A    between atoms: C_2  and  C_3 
REMARK    3  A    between atoms: C_2  and  C_11 
REMARK    4  A    between atoms: C_3  and  C_4 
REMARK    5  A    between atoms: C_9  and  O_10 
REMARK    6  A    between atoms: C_11  and  O_13 
ROOT
HETATM    1  C   UNK N   1      31.991  16.341   7.539  0.00  0.00    -0.053 A 
HETATM    2  C   UNK N   1      30.966  16.959   8.255  0.00  0.00     0.028 A 
HETATM    3  C   UNK N   1      29.704  17.127   7.687  0.00  0.00     0.041 A 
HETATM    4  C   UNK N   1      31.746  15.887   6.235  0.00  0.00     0.028 A 
HETATM    5  C   UNK N   1      30.487  16.057   5.653  0.00  0.00     0.041 A 
HETATM    6  C   UNK N   1      29.460  16.680   6.379  0.00  0.00     0.098 A 
HETATM    7  I   UNK N   1      28.202  18.066   8.833  0.00  0.00    -0.042 I 
HETATM    8  I   UNK N   1      30.179  15.377   3.678  0.00  0.00    -0.042 I 
ENDROOT
BRANCH   1   9
HETATM    9  C   UNK N   1      33.332  16.218   8.200  0.00  0.00     0.074 C 
BRANCH   9  10
HETATM   10  C   UNK N   1      33.841  17.423   8.996  0.00  0.00     0.177 C 
BRANCH  10  11
HETATM   11  N   UNK N   1      34.695  16.985  10.090  0.00  0.00    -0.417 N 
HETATM   12  H   UNK N   1      35.496  16.382  10.277  0.00  0.00     0.150 HD
HETATM   13  H   UNK N   1      34.393  17.429  10.956  0.00  0.00     0.150 HD
ENDBRANCH  10  11
BRANCH  10  14
HETATM   14  C   UNK N   1      34.631  18.333   8.095  0.00  0.00     0.163 C 
HETATM   15  O   UNK N   1      34.604  18.166   6.887  0.00  0.00    -0.648 OA
BRANCH  14  16
HETATM   16  O   UNK N   1      35.368  19.342   8.607  0.00  0.00    -0.775 OA
HETATM   17  H   UNK N   1      36.077  19.710   8.117  0.00  0.00     0.167 HD
ENDBRANCH  14  16
ENDBRANCH  10  14
ENDBRANCH   9  10
ENDBRANCH   1   9
BRANCH   6  18
HETATM   18  O   UNK N   1      28.246  16.849   5.824  0.00  0.00    -0.358 OA
HETATM   19  H   UNK N   1      27.555  16.246   6.017  0.00  0.00     0.217 HD
ENDBRANCH   6  18
TORSDOF 6
ENDMDL
MODEL 5
REMARK VINA RESULT:      -5.2      5.321      6.974
REMARK  6 active torsions:
REMARK  status: ('A' for Active; 'I' for Inactive)
REMARK    1  A    between atoms: C_2  and  N_1 
REMARK    2  A    between atoms: C_2  and  C_3 
REMARK    3  A    between atoms: C_2  and  C_11 
REMARK    4  A    between atoms: C_3  and  C_4 
REMARK    5  A    between atoms: C_9  and  O_10 
REMARK    6  A    between atoms: C_11  and  O_13 
ROOT
HETATM    1  C   UNK N   1      30.646  17.182   6.843  0.00  0.00    -0.053 A 
HETATM    2  C   UNK N   1      31.015  16.980   5.513  0.00  0.00     0.028 A 
HETATM    3  C   UNK N   1      32.347  16.753   5.173  0.00  0.00     0.041 A 
HETATM    4  C   UNK N   1      31.628  17.157   7.844  0.00  0.00     0.028 A 
HETATM    5  C   UNK N   1      32.968  16.937   7.513  0.00  0.00     0.041 A 
HETATM    6  C   UNK N   1      33.332  16.734   6.172  0.00  0.00     0.098 A 
HETATM    7  I   UNK N   1      32.828  16.450   3.141  0.00  0.00    -0.042 I 
HETATM    8  I   UNK N   1      34.409  16.933   9.055  0.00  0.00    -0.042 I 
ENDROOT
BRANCH   1   9
HETATM    9  C   UNK N   1      29.199  17.449   7.136  0.00  0.00     0.074 C 
BRANCH   9  10
HETATM   10  C   UNK N   1      28.870  18.628   8.057  0.00  0.00     0.177 C 
BRANCH  10  11
HETATM   11  N   UNK N   1      27.628  19.264   7.644  0.00  0.00    -0.417 N 
HETATM   12  H   UNK N   1      26.634  19.280   7.868  0.00  0.00     0.150 HD
HETATM   13  H   UNK N   1      27.814  19.906   6.875  0.00  0.00     0.150 HD
ENDBRANCH  10  11
BRANCH  10  14
HETATM   14  C   UNK N   1      28.721  18.143   9.473  0.00  0.00     0.163 C 
HETATM   15  O   UNK N   1      27.809  17.386   9.763  0.00  0.00    -0.648 OA
BRANCH  14  16
HETATM   16  O   UNK N   1      29.590  18.529  10.431  0.00  0.00    -0.775 OA
HETATM   17  H   UNK N   1      30.509  18.372  10.331  0.00  0.00     0.167 HD
ENDBRANCH  14  16
ENDBRANCH  10  14
ENDBRANCH   9  10
ENDBRANCH   1   9
BRANCH   6  18
HETATM   18  O   UNK N   1      34.620  16.525   5.846  0.00  0.00    -0.358 OA
HETATM   19  H   UNK N   1      35.222  16.214   6.493  0.00  0.00     0.217 HD
ENDBRANCH   6  18
TORSDOF 6
ENDMDL
MODEL 6
REMARK VINA RESULT:      -5.2     16.709     19.512
REMARK  6 active torsions:
REMARK  status: ('A' for Active; 'I' for Inactive)
REMARK    1  A    between atoms: C_2  and  N_1 
REMARK    2  A    between atoms: C_2  and  C_3 
REMARK    3  A    between atoms: C_2  and  C_11 
REMARK    4  A    between atoms: C_3  and  C_4 
REMARK    5  A    between atoms: C_9  and  O_10 
REMARK    6  A    between atoms: C_11  and  O_13 
ROOT
HETATM    1  C   UNK N   1      28.856  24.774  -4.305  0.00  0.00    -0.053 A 
HETATM    2  C   UNK N   1      28.161  25.937  -3.974  0.00  0.00     0.028 A 
HETATM    3  C   UNK N   1      26.906  26.196  -4.522  0.00  0.00     0.041 A 
HETATM    4  C   UNK N   1      28.283  23.859  -5.200  0.00  0.00     0.028 A 
HETATM    5  C   UNK N   1      27.029  24.112  -5.762  0.00  0.00     0.041 A 
HETATM    6  C   UNK N   1      26.335  25.285  -5.424  0.00  0.00     0.098 A 
HETATM    7  I   UNK N   1      25.914  27.974  -3.969  0.00  0.00    -0.042 I 
HETATM    8  I   UNK N   1      26.223  22.714  -7.123  0.00  0.00    -0.042 I 
ENDROOT
BRANCH   1   9
HETATM    9  C   UNK N   1      30.214  24.572  -3.700  0.00  0.00     0.074 C 
BRANCH   9  10
HETATM   10  C   UNK N   1      30.847  23.184  -3.833  0.00  0.00     0.177 C 
BRANCH  10  11
HETATM   11  N   UNK N   1      32.139  23.277  -4.497  0.00  0.00    -0.417 N 
HETATM   12  H   UNK N   1      32.808  23.968  -4.836  0.00  0.00     0.150 HD
HETATM   13  H   UNK N   1      32.494  22.340  -4.684  0.00  0.00     0.150 HD
ENDBRANCH  10  11
BRANCH  10  14
HETATM   14  C   UNK N   1      31.043  22.580  -2.469  0.00  0.00     0.163 C 
HETATM   15  O   UNK N   1      30.425  23.021  -1.515  0.00  0.00    -0.648 OA
BRANCH  14  16
HETATM   16  O   UNK N   1      31.892  21.546  -2.288  0.00  0.00    -0.775 OA
HETATM   17  H   UNK N   1      31.939  20.853  -2.917  0.00  0.00     0.167 HD
ENDBRANCH  14  16
ENDBRANCH  10  14
ENDBRANCH   9  10
ENDBRANCH   1   9
BRANCH   6  18
HETATM   18  O   UNK N   1      25.129  25.536  -5.963  0.00  0.00    -0.358 OA
HETATM   19  H   UNK N   1      24.940  26.385  -6.312  0.00  0.00     0.217 HD
ENDBRANCH   6  18
TORSDOF 6
ENDMDL
MODEL 7
REMARK VINA RESULT:      -5.2     13.565     15.432
REMARK  6 active torsions:
REMARK  status: ('A' for Active; 'I' for Inactive)
REMARK    1  A    between atoms: C_2  and  N_1 
REMARK    2  A    between atoms: C_2  and  C_3 
REMARK    3  A    between atoms: C_2  and  C_11 
REMARK    4  A    between atoms: C_3  and  C_4 
REMARK    5  A    between atoms: C_9  and  O_10 
REMARK    6  A    between atoms: C_11  and  O_13 
ROOT
HETATM    1  C   UNK N   1      22.467  18.549   3.748  0.00  0.00    -0.053 A 
HETATM    2  C   UNK N   1      22.594  17.163   3.835  0.00  0.00     0.028 A 
HETATM    3  C   UNK N   1      23.850  16.572   3.966  0.00  0.00     0.041 A 
HETATM    4  C   UNK N   1      23.615  19.353   3.791  0.00  0.00     0.028 A 
HETATM    5  C   UNK N   1      24.879  18.771   3.915  0.00  0.00     0.041 A 
HETATM    6  C   UNK N   1      25.000  17.375   4.002  0.00  0.00     0.098 A 
HETATM    7  I   UNK N   1      23.963  14.470   4.097  0.00  0.00    -0.042 I 
HETATM    8  I   UNK N   1      26.577  20.024   3.950  0.00  0.00    -0.042 I 
ENDROOT
BRANCH   1   9
HETATM    9  C   UNK N   1      21.088  19.117   3.581  0.00  0.00     0.074 C 
BRANCH   9  10
HETATM   10  C   UNK N   1      20.428  18.976   2.206  0.00  0.00     0.177 C 
BRANCH  10  11
HETATM   11  N   UNK N   1      18.982  18.878   2.345  0.00  0.00    -0.417 N 
HETATM   12  H   UNK N   1      18.267  18.334   2.827  0.00  0.00     0.150 HD
HETATM   13  H   UNK N   1      18.536  19.591   1.768  0.00  0.00     0.150 HD
ENDBRANCH  10  11
BRANCH  10  14
HETATM   14  C   UNK N   1      20.755  20.174   1.357  0.00  0.00     0.163 C 
HETATM   15  O   UNK N   1      21.123  21.210   1.885  0.00  0.00    -0.648 OA
BRANCH  14  16
HETATM   16  O   UNK N   1      20.654  20.116   0.012  0.00  0.00    -0.775 OA
HETATM   17  H   UNK N   1      20.575  20.901  -0.494  0.00  0.00     0.167 HD
ENDBRANCH  14  16
ENDBRANCH  10  14
ENDBRANCH   9  10
ENDBRANCH   1   9
BRANCH   6  18
HETATM   18  O   UNK N   1      26.214  16.807   4.118  0.00  0.00    -0.358 OA
HETATM   19  H   UNK N   1      26.796  16.792   3.383  0.00  0.00     0.217 HD
ENDBRANCH   6  18
TORSDOF 6
ENDMDL
MODEL 8
REMARK VINA RESULT:      -5.2     13.468     15.130
REMARK  6 active torsions:
REMARK  status: ('A' for Active; 'I' for Inactive)
REMARK    1  A    between atoms: C_2  and  N_1 
REMARK    2  A    between atoms: C_2  and  C_3 
REMARK    3  A    between atoms: C_2  and  C_11 
REMARK    4  A    between atoms: C_3  and  C_4 
REMARK    5  A    between atoms: C_9  and  O_10 
REMARK    6  A    between atoms: C_11  and  O_13 
ROOT
HETATM    1  C   UNK N   1      21.674  13.886   8.641  0.00  0.00    -0.053 A 
HETATM    2  C   UNK N   1      20.591  14.676   9.025  0.00  0.00     0.028 A 
HETATM    3  C   UNK N   1      20.330  15.886   8.382  0.00  0.00     0.041 A 
HETATM    4  C   UNK N   1      22.508  14.317   7.599  0.00  0.00     0.028 A 
HETATM    5  C   UNK N   1      22.261  15.531   6.953  0.00  0.00     0.041 A 
HETATM    6  C   UNK N   1      21.168  16.321   7.344  0.00  0.00     0.098 A 
HETATM    7  I   UNK N   1      18.670  17.023   9.014  0.00  0.00    -0.042 I 
HETATM    8  I   UNK N   1      23.561  16.143   5.407  0.00  0.00    -0.042 I 
ENDROOT
BRANCH   1   9
HETATM    9  C   UNK N   1      21.913  12.611   9.394  0.00  0.00     0.074 C 
BRANCH   9  10
HETATM   10  C   UNK N   1      22.659  12.706  10.728  0.00  0.00     0.177 C 
BRANCH  10  11
HETATM   11  N   UNK N   1      22.034  11.846  11.722  0.00  0.00    -0.417 N 
HETATM   12  H   UNK N   1      21.241  11.822  12.363  0.00  0.00     0.150 HD
HETATM   13  H   UNK N   1      22.566  10.981  11.806  0.00  0.00     0.150 HD
ENDBRANCH  10  11
BRANCH  10  14
HETATM   14  C   UNK N   1      24.089  12.278  10.545  0.00  0.00     0.163 C 
HETATM   15  O   UNK N   1      24.471  11.885   9.455  0.00  0.00    -0.648 OA
BRANCH  14  16
HETATM   16  O   UNK N   1      24.963  12.329  11.572  0.00  0.00    -0.775 OA
HETATM   17  H   UNK N   1      25.870  12.504  11.417  0.00  0.00     0.167 HD
ENDBRANCH  14  16
ENDBRANCH  10  14
ENDBRANCH   9  10
ENDBRANCH   1   9
BRANCH   6  18
HETATM   18  O   UNK N   1      20.926  17.492   6.728  0.00  0.00    -0.358 OA
HETATM   19  H   UNK N   1      21.244  18.291   7.101  0.00  0.00     0.217 HD
ENDBRANCH   6  18
TORSDOF 6
ENDMDL
MODEL 9
REMARK VINA RESULT:      -5.1     16.394     19.185
REMARK  6 active torsions:
REMARK  status: ('A' for Active; 'I' for Inactive)
REMARK    1  A    between atoms: C_2  and  N_1 
REMARK    2  A    between atoms: C_2  and  C_3 
REMARK    3  A    between atoms: C_2  and  C_11 
REMARK    4  A    between atoms: C_3  and  C_4 
REMARK    5  A    between atoms: C_9  and  O_10 
REMARK    6  A    between atoms: C_11  and  O_13 
ROOT
HETATM    1  C   UNK N   1      28.994  23.412  -5.090  0.00  0.00    -0.053 A 
HETATM    2  C   UNK N   1      28.227  22.760  -6.056  0.00  0.00     0.028 A 
HETATM    3  C   UNK N   1      26.955  23.225  -6.386  0.00  0.00     0.041 A 
HETATM    4  C   UNK N   1      28.477  24.546  -4.448  0.00  0.00     0.028 A 
HETATM    5  C   UNK N   1      27.200  25.017  -4.765  0.00  0.00     0.041 A 
HETATM    6  C   UNK N   1      26.433  24.355  -5.738  0.00  0.00     0.098 A 
HETATM    7  I   UNK N   1      25.857  22.189  -7.859  0.00  0.00    -0.042 I 
HETATM    8  I   UNK N   1      26.459  26.713  -3.751  0.00  0.00    -0.042 I 
ENDROOT
BRANCH   1   9
HETATM    9  C   UNK N   1      30.343  22.842  -4.764  0.00  0.00     0.074 C 
BRANCH   9  10
HETATM   10  C   UNK N   1      30.395  21.675  -3.773  0.00  0.00     0.177 C 
BRANCH  10  11
HETATM   11  N   UNK N   1      31.040  20.521  -4.381  0.00  0.00    -0.417 N 
HETATM   12  H   UNK N   1      31.967  20.144  -4.579  0.00  0.00     0.150 HD
HETATM   13  H   UNK N   1      30.330  19.875  -4.723  0.00  0.00     0.150 HD
ENDBRANCH  10  11
BRANCH  10  14
HETATM   14  C   UNK N   1      31.173  22.079  -2.550  0.00  0.00     0.163 C 
HETATM   15  O   UNK N   1      30.759  22.976  -1.835  0.00  0.00    -0.648 OA
BRANCH  14  16
HETATM   16  O   UNK N   1      32.325  21.453  -2.226  0.00  0.00    -0.775 OA
HETATM   17  H   UNK N   1      32.763  21.649  -1.421  0.00  0.00     0.167 HD
ENDBRANCH  14  16
ENDBRANCH  10  14
ENDBRANCH   9  10
ENDBRANCH   1   9
BRANCH   6  18
HETATM   18  O   UNK N   1      25.202  24.801  -6.047  0.00  0.00    -0.358 OA
HETATM   19  H   UNK N   1      24.686  24.345  -6.683  0.00  0.00     0.217 HD
ENDBRANCH   6  18
TORSDOF 6
ENDMDL
