MODEL 1
REMARK VINA RESULT:      -7.5      0.000      0.000
REMARK  3 active torsions:
REMARK  status: ('A' for Active; 'I' for Inactive)
REMARK    1  A    between atoms: C_5  and  N_11 
REMARK    2  A    between atoms: C_9  and  C_20 
REMARK       I    between atoms: N_11  and  C_12 
REMARK    3  A    between atoms: C_20  and  N_23 
ROOT
HETATM    1  C   UNK N   1      33.389  16.618   4.657  0.00  0.00     0.003 A 
HETATM    2  C   UNK N   1      31.995  16.718   4.583  0.00  0.00     0.012 A 
HETATM    3  C   UNK N   1      31.262  17.093   5.712  0.00  0.00    -0.024 A 
HETATM    4  C   UNK N   1      31.934  17.377   6.921  0.00  0.00     0.002 A 
HETATM    5  C   UNK N   1      33.329  17.274   7.000  0.00  0.00     0.060 A 
HETATM    6  C   UNK N   1      34.054  16.893   5.859  0.00  0.00     0.031 A 
HETATM    7  C   UNK N   1      29.868  17.187   5.654  0.00  0.00     0.013 A 
HETATM    8  C   UNK N   1      29.140  17.555   6.795  0.00  0.00     0.016 A 
HETATM    9  C   UNK N   1      29.805  17.844   7.996  0.00  0.00     0.008 A 
HETATM   10  C   UNK N   1      31.197  17.754   8.046  0.00  0.00     0.029 A 
ENDROOT
BRANCH   5  11
HETATM   11  N   UNK N   1      33.967  17.577   8.237  0.00  0.00    -0.191 N 
HETATM   12  C   UNK N   1      34.290  16.680   9.283  0.00  0.00     0.682 A 
HETATM   13  N   UNK N   1      33.860  15.389   9.267  0.00  0.00    -0.202 N 
HETATM   14  N   UNK N   1      35.033  17.131  10.330  0.00  0.00    -0.202 N 
HETATM   15  C   UNK N   1      34.167  14.539  10.281  0.00  0.00     0.107 A 
ATOM     16  HN  UNK N   1      33.299  15.054   8.483  1.00  0.00     0.183 HD
HETATM   17  C   UNK N   1      34.935  14.986  11.355  0.00  0.00     0.035 A 
HETATM   18  C   UNK N   1      35.364  16.311  11.359  0.00  0.00     0.107 A 
ATOM     19  HN  UNK N   1      35.344  18.102  10.343  1.00  0.00     0.183 HD
HETATM   20  H   UNK N   1      34.212  18.521   8.382  0.00  0.00     0.184 HD
ENDBRANCH   5  11
BRANCH   9  21
HETATM   21  C   UNK N   1      29.055  18.230   9.211  0.00  0.00     0.102 C 
HETATM   22  N   UNK N   1      29.681  18.496  10.301  0.00  0.00    -0.385 N 
HETATM   23  H   UNK N   1      29.182  18.803  11.092  0.00  0.00     0.157 HD
ATOM     24  HN  UNK N   1      30.694  18.387  10.346  1.00  0.00     0.157 HD
BRANCH  21  25
HETATM   25  N   UNK N   1      27.644  18.292   9.190  0.00  0.00    -0.385 N 
HETATM   26  H   UNK N   1      27.150  18.037   8.377  0.00  0.00     0.157 HD
HETATM   27  H   UNK N   1      27.154  18.590   9.990  0.00  0.00     0.157 HD
ENDBRANCH  21  25
ENDBRANCH   9  21
TORSDOF 3
ENDMDL
MODEL 2
REMARK VINA RESULT:      -7.1      2.921      6.367
REMARK  3 active torsions:
REMARK  status: ('A' for Active; 'I' for Inactive)
REMARK    1  A    between atoms: C_5  and  N_11 
REMARK    2  A    between atoms: C_9  and  C_20 
REMARK       I    between atoms: N_11  and  C_12 
REMARK    3  A    between atoms: C_20  and  N_23 
ROOT
HETATM    1  C   UNK N   1      32.454  17.001   3.804  0.00  0.00     0.003 A 
HETATM    2  C   UNK N   1      32.923  17.227   5.103  0.00  0.00     0.012 A 
HETATM    3  C   UNK N   1      32.019  17.316   6.165  0.00  0.00    -0.024 A 
HETATM    4  C   UNK N   1      30.635  17.171   5.921  0.00  0.00     0.002 A 
HETATM    5  C   UNK N   1      30.162  16.948   4.621  0.00  0.00     0.060 A 
HETATM    6  C   UNK N   1      31.081  16.863   3.562  0.00  0.00     0.031 A 
HETATM    7  C   UNK N   1      32.474  17.552   7.466  0.00  0.00     0.013 A 
HETATM    8  C   UNK N   1      31.558  17.649   8.524  0.00  0.00     0.016 A 
HETATM    9  C   UNK N   1      30.182  17.498   8.286  0.00  0.00     0.008 A 
HETATM   10  C   UNK N   1      29.736  17.258   6.986  0.00  0.00     0.029 A 
ENDROOT
BRANCH   5  11
HETATM   11  N   UNK N   1      28.759  16.798   4.421  0.00  0.00    -0.191 N 
HETATM   12  C   UNK N   1      27.824  17.807   4.087  0.00  0.00     0.682 A 
HETATM   13  N   UNK N   1      28.176  19.122   4.070  0.00  0.00    -0.202 N 
HETATM   14  N   UNK N   1      26.546  17.447   3.793  0.00  0.00    -0.202 N 
HETATM   15  C   UNK N   1      27.268  20.082   3.758  0.00  0.00     0.107 A 
ATOM     16  HN  UNK N   1      29.134  19.391   4.296  1.00  0.00     0.183 HD
HETATM   17  C   UNK N   1      25.957  19.726   3.446  0.00  0.00     0.035 A 
HETATM   18  C   UNK N   1      25.612  18.377   3.471  0.00  0.00     0.107 A 
ATOM     19  HN  UNK N   1      26.285  16.461   3.816  1.00  0.00     0.183 HD
HETATM   20  H   UNK N   1      28.398  15.888   4.528  0.00  0.00     0.184 HD
ENDBRANCH   5  11
BRANCH   9  21
HETATM   21  C   UNK N   1      29.201  17.602   9.387  0.00  0.00     0.102 C 
HETATM   22  N   UNK N   1      29.471  17.110  10.543  0.00  0.00    -0.385 N 
HETATM   23  H   UNK N   1      28.837  17.227  11.287  0.00  0.00     0.157 HD
ATOM     24  HN  UNK N   1      30.341  16.598  10.688  1.00  0.00     0.157 HD
BRANCH  21  25
HETATM   25  N   UNK N   1      27.951  18.224   9.174  0.00  0.00    -0.385 N 
HETATM   26  H   UNK N   1      27.888  19.025   8.604  0.00  0.00     0.157 HD
HETATM   27  H   UNK N   1      27.142  17.857   9.597  0.00  0.00     0.157 HD
ENDBRANCH  21  25
ENDBRANCH   9  21
TORSDOF 3
ENDMDL
MODEL 3
REMARK VINA RESULT:      -6.6      6.133     10.347
REMARK  3 active torsions:
REMARK  status: ('A' for Active; 'I' for Inactive)
REMARK    1  A    between atoms: C_5  and  N_11 
REMARK    2  A    between atoms: C_9  and  C_20 
REMARK       I    between atoms: N_11  and  C_12 
REMARK    3  A    between atoms: C_20  and  N_23 
ROOT
HETATM    1  C   UNK N   1      36.014   9.150  13.885  0.00  0.00     0.003 A 
HETATM    2  C   UNK N   1      35.565   8.928  15.191  0.00  0.00     0.012 A 
HETATM    3  C   UNK N   1      35.474   9.996  16.089  0.00  0.00    -0.024 A 
HETATM    4  C   UNK N   1      35.831  11.296  15.669  0.00  0.00     0.002 A 
HETATM    5  C   UNK N   1      36.285  11.521  14.363  0.00  0.00     0.060 A 
HETATM    6  C   UNK N   1      36.374  10.440  13.472  0.00  0.00     0.031 A 
HETATM    7  C   UNK N   1      35.037   9.785  17.400  0.00  0.00     0.013 A 
HETATM    8  C   UNK N   1      34.958  10.861  18.296  0.00  0.00     0.016 A 
HETATM    9  C   UNK N   1      35.306  12.156  17.880  0.00  0.00     0.008 A 
HETATM   10  C   UNK N   1      35.737  12.360  16.569  0.00  0.00     0.029 A 
ENDROOT
BRANCH   5  11
HETATM   11  N   UNK N   1      36.626  12.850  13.978  0.00  0.00    -0.191 N 
HETATM   12  C   UNK N   1      36.017  13.640  12.974  0.00  0.00     0.682 A 
HETATM   13  N   UNK N   1      35.087  13.118  12.128  0.00  0.00    -0.202 N 
HETATM   14  N   UNK N   1      36.387  14.943  12.849  0.00  0.00    -0.202 N 
HETATM   15  C   UNK N   1      34.517  13.883  11.162  0.00  0.00     0.107 A 
ATOM     16  HN  UNK N   1      34.815  12.139  12.220  1.00  0.00     0.183 HD
HETATM   17  C   UNK N   1      34.880  15.222  11.029  0.00  0.00     0.035 A 
HETATM   18  C   UNK N   1      35.836  15.740  11.899  0.00  0.00     0.107 A 
ATOM     19  HN  UNK N   1      37.091  15.327  13.478  1.00  0.00     0.183 HD
HETATM   20  H   UNK N   1      37.373  13.267  14.467  0.00  0.00     0.184 HD
ENDBRANCH   5  11
BRANCH   9  21
HETATM   21  C   UNK N   1      35.234  13.303  18.811  0.00  0.00     0.102 C 
HETATM   22  N   UNK N   1      35.414  14.499  18.380  0.00  0.00    -0.385 N 
HETATM   23  H   UNK N   1      35.313  15.263  18.992  0.00  0.00     0.157 HD
ATOM     24  HN  UNK N   1      35.662  14.656  17.403  1.00  0.00     0.157 HD
BRANCH  21  25
HETATM   25  N   UNK N   1      34.985  13.093  20.186  0.00  0.00    -0.385 N 
HETATM   26  H   UNK N   1      35.707  12.774  20.776  0.00  0.00     0.157 HD
HETATM   27  H   UNK N   1      34.089  13.266  20.554  0.00  0.00     0.157 HD
ENDBRANCH  21  25
ENDBRANCH   9  21
TORSDOF 3
ENDMDL
MODEL 4
REMARK VINA RESULT:      -6.6      3.632      7.338
REMARK  3 active torsions:
REMARK  status: ('A' for Active; 'I' for Inactive)
REMARK    1  A    between atoms: C_5  and  N_11 
REMARK    2  A    between atoms: C_9  and  C_20 
REMARK       I    between atoms: N_11  and  C_12 
REMARK    3  A    between atoms: C_20  and  N_23 
ROOT
HETATM    1  C   UNK N   1      30.263  17.943   9.030  0.00  0.00     0.003 A 
HETATM    2  C   UNK N   1      31.575  17.841   8.552  0.00  0.00     0.012 A 
HETATM    3  C   UNK N   1      31.805  17.570   7.201  0.00  0.00    -0.024 A 
HETATM    4  C   UNK N   1      30.712  17.405   6.322  0.00  0.00     0.002 A 
HETATM    5  C   UNK N   1      29.397  17.502   6.798  0.00  0.00     0.060 A 
HETATM    6  C   UNK N   1      29.179  17.772   8.159  0.00  0.00     0.031 A 
HETATM    7  C   UNK N   1      33.111  17.457   6.712  0.00  0.00     0.013 A 
HETATM    8  C   UNK N   1      33.332  17.175   5.356  0.00  0.00     0.016 A 
HETATM    9  C   UNK N   1      32.248  17.017   4.480  0.00  0.00     0.008 A 
HETATM   10  C   UNK N   1      30.948  17.136   4.973  0.00  0.00     0.029 A 
ENDROOT
BRANCH   5  11
HETATM   11  N   UNK N   1      28.323  17.337   5.877  0.00  0.00    -0.191 N 
HETATM   12  C   UNK N   1      27.593  18.352   5.214  0.00  0.00     0.682 A 
HETATM   13  N   UNK N   1      27.760  19.666   5.529  0.00  0.00    -0.202 N 
HETATM   14  N   UNK N   1      26.695  17.997   4.256  0.00  0.00    -0.202 N 
HETATM   15  C   UNK N   1      27.046  20.631   4.893  0.00  0.00     0.107 A 
ATOM     16  HN  UNK N   1      28.430  19.930   6.252  1.00  0.00     0.183 HD
HETATM   17  C   UNK N   1      26.130  20.281   3.903  0.00  0.00     0.035 A 
HETATM   18  C   UNK N   1      25.967  18.932   3.596  0.00  0.00     0.107 A 
ATOM     19  HN  UNK N   1      26.566  17.011   4.031  1.00  0.00     0.183 HD
HETATM   20  H   UNK N   1      28.058  16.409   5.678  0.00  0.00     0.184 HD
ENDBRANCH   5  11
BRANCH   9  21
HETATM   21  C   UNK N   1      32.460  16.715   3.048  0.00  0.00     0.102 C 
HETATM   22  N   UNK N   1      31.659  17.186   2.161  0.00  0.00    -0.385 N 
HETATM   23  H   UNK N   1      31.834  17.026   1.206  0.00  0.00     0.157 HD
ATOM     24  HN  UNK N   1      30.841  17.723   2.448  1.00  0.00     0.157 HD
BRANCH  21  25
HETATM   25  N   UNK N   1      33.534  15.891   2.643  0.00  0.00    -0.385 N 
HETATM   26  H   UNK N   1      34.331  15.802   3.215  0.00  0.00     0.157 HD
HETATM   27  H   UNK N   1      33.485  15.407   1.788  0.00  0.00     0.157 HD
ENDBRANCH  21  25
ENDBRANCH   9  21
TORSDOF 3
ENDMDL
MODEL 5
REMARK VINA RESULT:      -6.5      3.168      6.107
REMARK  3 active torsions:
REMARK  status: ('A' for Active; 'I' for Inactive)
REMARK    1  A    between atoms: C_5  and  N_11 
REMARK    2  A    between atoms: C_9  and  C_20 
REMARK       I    between atoms: N_11  and  C_12 
REMARK    3  A    between atoms: C_20  and  N_23 
ROOT
HETATM    1  C   UNK N   1      33.037  17.196   3.954  0.00  0.00     0.003 A 
HETATM    2  C   UNK N   1      33.413  17.175   5.301  0.00  0.00     0.012 A 
HETATM    3  C   UNK N   1      32.441  17.287   6.299  0.00  0.00    -0.024 A 
HETATM    4  C   UNK N   1      31.081  17.415   5.941  0.00  0.00     0.002 A 
HETATM    5  C   UNK N   1      30.701  17.440   4.593  0.00  0.00     0.060 A 
HETATM    6  C   UNK N   1      31.688  17.329   3.600  0.00  0.00     0.031 A 
HETATM    7  C   UNK N   1      32.805  17.278   7.649  0.00  0.00     0.013 A 
HETATM    8  C   UNK N   1      31.823  17.400   8.643  0.00  0.00     0.016 A 
HETATM    9  C   UNK N   1      30.470  17.521   8.290  0.00  0.00     0.008 A 
HETATM   10  C   UNK N   1      30.113  17.525   6.942  0.00  0.00     0.029 A 
ENDROOT
BRANCH   5  11
HETATM   11  N   UNK N   1      29.317  17.562   4.275  0.00  0.00    -0.191 N 
HETATM   12  C   UNK N   1      28.528  16.675   3.506  0.00  0.00     0.682 A 
HETATM   13  N   UNK N   1      29.087  15.633   2.830  0.00  0.00    -0.202 N 
HETATM   14  N   UNK N   1      27.186  16.884   3.432  0.00  0.00    -0.202 N 
HETATM   15  C   UNK N   1      28.321  14.794   2.086  0.00  0.00     0.107 A 
ATOM     16  HN  UNK N   1      30.095  15.481   2.882  1.00  0.00     0.183 HD
HETATM   17  C   UNK N   1      26.943  14.992   2.010  0.00  0.00     0.035 A 
HETATM   18  C   UNK N   1      26.388  16.064   2.703  0.00  0.00     0.107 A 
ATOM     19  HN  UNK N   1      26.773  17.671   3.931  1.00  0.00     0.183 HD
HETATM   20  H   UNK N   1      28.856  18.357   4.632  0.00  0.00     0.184 HD
ENDBRANCH   5  11
BRANCH   9  21
HETATM   21  C   UNK N   1      29.420  17.656   9.324  0.00  0.00     0.102 C 
HETATM   22  N   UNK N   1      29.501  16.990  10.419  0.00  0.00    -0.385 N 
HETATM   23  H   UNK N   1      28.829  17.122  11.125  0.00  0.00     0.157 HD
ATOM     24  HN  UNK N   1      30.262  16.325  10.555  1.00  0.00     0.157 HD
BRANCH  21  25
HETATM   25  N   UNK N   1      28.310  18.503   9.108  0.00  0.00    -0.385 N 
HETATM   26  H   UNK N   1      27.396  18.139   9.153  0.00  0.00     0.157 HD
HETATM   27  H   UNK N   1      28.451  19.457   8.914  0.00  0.00     0.157 HD
ENDBRANCH  21  25
ENDBRANCH   9  21
TORSDOF 3
ENDMDL
MODEL 6
REMARK VINA RESULT:      -6.3      9.152     12.659
REMARK  3 active torsions:
REMARK  status: ('A' for Active; 'I' for Inactive)
REMARK    1  A    between atoms: C_5  and  N_11 
REMARK    2  A    between atoms: C_9  and  C_20 
REMARK       I    between atoms: N_11  and  C_12 
REMARK    3  A    between atoms: C_20  and  N_23 
ROOT
HETATM    1  C   UNK N   1      35.326  12.715  19.578  0.00  0.00     0.003 A 
HETATM    2  C   UNK N   1      35.175  13.315  18.323  0.00  0.00     0.012 A 
HETATM    3  C   UNK N   1      35.011  12.520  17.185  0.00  0.00    -0.024 A 
HETATM    4  C   UNK N   1      34.993  11.114  17.309  0.00  0.00     0.002 A 
HETATM    5  C   UNK N   1      35.148  10.509  18.563  0.00  0.00     0.060 A 
HETATM    6  C   UNK N   1      35.314  11.319  19.699  0.00  0.00     0.031 A 
HETATM    7  C   UNK N   1      34.869  13.108  15.923  0.00  0.00     0.013 A 
HETATM    8  C   UNK N   1      34.715  12.302  14.786  0.00  0.00     0.016 A 
HETATM    9  C   UNK N   1      34.690  10.903  14.907  0.00  0.00     0.008 A 
HETATM   10  C   UNK N   1      34.827  10.324  16.169  0.00  0.00     0.029 A 
ENDROOT
BRANCH   5  11
HETATM   11  N   UNK N   1      35.115   9.087  18.645  0.00  0.00    -0.191 N 
HETATM   12  C   UNK N   1      34.026   8.271  19.032  0.00  0.00     0.682 A 
HETATM   13  N   UNK N   1      32.881   8.809  19.537  0.00  0.00    -0.202 N 
HETATM   14  N   UNK N   1      34.139   6.921  18.909  0.00  0.00    -0.202 N 
HETATM   15  C   UNK N   1      31.846   8.015  19.914  0.00  0.00     0.107 A 
ATOM     16  HN  UNK N   1      32.800   9.822  19.633  1.00  0.00     0.183 HD
HETATM   17  C   UNK N   1      31.946   6.631  19.784  0.00  0.00     0.035 A 
HETATM   18  C   UNK N   1      33.125   6.096  19.270  0.00  0.00     0.107 A 
ATOM     19  HN  UNK N   1      35.002   6.522  18.540  1.00  0.00     0.183 HD
HETATM   20  H   UNK N   1      35.948   8.617  18.405  0.00  0.00     0.184 HD
ENDBRANCH   5  11
BRANCH   9  21
HETATM   21  C   UNK N   1      34.533  10.036  13.719  0.00  0.00     0.102 C 
HETATM   22  N   UNK N   1      35.204   8.946  13.620  0.00  0.00    -0.385 N 
HETATM   23  H   UNK N   1      35.058   8.346  12.854  0.00  0.00     0.157 HD
ATOM     24  HN  UNK N   1      35.890   8.704  14.336  1.00  0.00     0.157 HD
BRANCH  21  25
HETATM   25  N   UNK N   1      33.657  10.408  12.674  0.00  0.00    -0.385 N 
HETATM   26  H   UNK N   1      32.808   9.926  12.547  0.00  0.00     0.157 HD
HETATM   27  H   UNK N   1      33.898  11.149  12.073  0.00  0.00     0.157 HD
ENDBRANCH  21  25
ENDBRANCH   9  21
TORSDOF 3
ENDMDL
MODEL 7
REMARK VINA RESULT:      -6.3      6.313     10.934
REMARK  3 active torsions:
REMARK  status: ('A' for Active; 'I' for Inactive)
REMARK    1  A    between atoms: C_5  and  N_11 
REMARK    2  A    between atoms: C_9  and  C_20 
REMARK       I    between atoms: N_11  and  C_12 
REMARK    3  A    between atoms: C_20  and  N_23 
ROOT
HETATM    1  C   UNK N   1      35.647  14.113  17.543  0.00  0.00     0.003 A 
HETATM    2  C   UNK N   1      35.183  12.907  18.081  0.00  0.00     0.012 A 
HETATM    3  C   UNK N   1      35.359  11.714  17.374  0.00  0.00    -0.024 A 
HETATM    4  C   UNK N   1      36.009  11.732  16.121  0.00  0.00     0.002 A 
HETATM    5  C   UNK N   1      36.472  12.937  15.577  0.00  0.00     0.060 A 
HETATM    6  C   UNK N   1      36.287  14.129  16.296  0.00  0.00     0.031 A 
HETATM    7  C   UNK N   1      34.890  10.504  17.896  0.00  0.00     0.013 A 
HETATM    8  C   UNK N   1      35.063   9.314  17.175  0.00  0.00     0.016 A 
HETATM    9  C   UNK N   1      35.715   9.327  15.932  0.00  0.00     0.008 A 
HETATM   10  C   UNK N   1      36.184  10.537  15.419  0.00  0.00     0.029 A 
ENDROOT
BRANCH   5  11
HETATM   11  N   UNK N   1      37.131  12.909  14.314  0.00  0.00    -0.191 N 
HETATM   12  C   UNK N   1      36.625  13.348  13.068  0.00  0.00     0.682 A 
HETATM   13  N   UNK N   1      35.324  13.725  12.924  0.00  0.00    -0.202 N 
HETATM   14  N   UNK N   1      37.458  13.376  11.993  0.00  0.00    -0.202 N 
HETATM   15  C   UNK N   1      34.846  14.135  11.721  0.00  0.00     0.107 A 
ATOM     16  HN  UNK N   1      34.699  13.698  13.731  1.00  0.00     0.183 HD
HETATM   17  C   UNK N   1      35.692  14.177  10.613  0.00  0.00     0.035 A 
HETATM   18  C   UNK N   1      37.018  13.784  10.776  0.00  0.00     0.107 A 
ATOM     19  HN  UNK N   1      38.428  13.084  12.103  1.00  0.00     0.183 HD
HETATM   20  H   UNK N   1      38.045  12.541  14.308  0.00  0.00     0.184 HD
ENDBRANCH   5  11
BRANCH   9  21
HETATM   21  C   UNK N   1      35.902   8.083  15.154  0.00  0.00     0.102 C 
HETATM   22  N   UNK N   1      36.098   6.967  15.757  0.00  0.00    -0.385 N 
HETATM   23  H   UNK N   1      36.170   6.133  15.238  0.00  0.00     0.157 HD
ATOM     24  HN  UNK N   1      36.180   6.944  16.774  1.00  0.00     0.157 HD
BRANCH  21  25
HETATM   25  N   UNK N   1      35.886   8.114  13.742  0.00  0.00    -0.385 N 
HETATM   26  H   UNK N   1      36.693   8.382  13.244  0.00  0.00     0.157 HD
HETATM   27  H   UNK N   1      35.068   7.867  13.255  0.00  0.00     0.157 HD
ENDBRANCH  21  25
ENDBRANCH   9  21
TORSDOF 3
ENDMDL
MODEL 8
REMARK VINA RESULT:      -6.2     14.254     16.418
REMARK  3 active torsions:
REMARK  status: ('A' for Active; 'I' for Inactive)
REMARK    1  A    between atoms: C_5  and  N_11 
REMARK    2  A    between atoms: C_9  and  C_20 
REMARK       I    between atoms: N_11  and  C_12 
REMARK    3  A    between atoms: C_20  and  N_23 
ROOT
HETATM    1  C   UNK N   1      25.689  27.771  -4.042  0.00  0.00     0.003 A 
HETATM    2  C   UNK N   1      25.384  27.587  -5.396  0.00  0.00     0.012 A 
HETATM    3  C   UNK N   1      25.644  26.357  -6.008  0.00  0.00    -0.024 A 
HETATM    4  C   UNK N   1      26.209  25.305  -5.254  0.00  0.00     0.002 A 
HETATM    5  C   UNK N   1      26.519  25.487  -3.900  0.00  0.00     0.060 A 
HETATM    6  C   UNK N   1      26.255  26.728  -3.297  0.00  0.00     0.031 A 
HETATM    7  C   UNK N   1      25.353  26.164  -7.362  0.00  0.00     0.013 A 
HETATM    8  C   UNK N   1      25.627  24.929  -7.970  0.00  0.00     0.016 A 
HETATM    9  C   UNK N   1      26.182  23.879  -7.222  0.00  0.00     0.008 A 
HETATM   10  C   UNK N   1      26.465  24.078  -5.870  0.00  0.00     0.029 A 
ENDROOT
BRANCH   5  11
HETATM   11  N   UNK N   1      27.079  24.397  -3.175  0.00  0.00    -0.191 N 
HETATM   12  C   UNK N   1      28.444  24.034  -3.081  0.00  0.00     0.682 A 
HETATM   13  N   UNK N   1      29.393  24.644  -3.844  0.00  0.00    -0.202 N 
HETATM   14  N   UNK N   1      28.804  23.044  -2.221  0.00  0.00    -0.202 N 
HETATM   15  C   UNK N   1      30.699  24.281  -3.754  0.00  0.00     0.107 A 
ATOM     16  HN  UNK N   1      29.120  25.383  -4.493  1.00  0.00     0.183 HD
HETATM   17  C   UNK N   1      31.082  23.274  -2.869  0.00  0.00     0.035 A 
HETATM   18  C   UNK N   1      30.099  22.658  -2.099  0.00  0.00     0.107 A 
ATOM     19  HN  UNK N   1      28.089  22.584  -1.659  1.00  0.00     0.183 HD
HETATM   20  H   UNK N   1      26.443  23.828  -2.681  0.00  0.00     0.184 HD
ENDBRANCH   5  11
BRANCH   9  21
HETATM   21  C   UNK N   1      26.481  22.572  -7.846  0.00  0.00     0.102 C 
HETATM   22  N   UNK N   1      27.599  21.984  -7.611  0.00  0.00    -0.385 N 
HETATM   23  H   UNK N   1      27.773  21.091  -7.986  0.00  0.00     0.157 HD
ATOM     24  HN  UNK N   1      28.306  22.444  -7.037  1.00  0.00     0.157 HD
BRANCH  21  25
HETATM   25  N   UNK N   1      25.551  21.968  -8.720  0.00  0.00    -0.385 N 
HETATM   26  H   UNK N   1      25.374  21.000  -8.662  0.00  0.00     0.157 HD
HETATM   27  H   UNK N   1      25.078  22.514  -9.388  0.00  0.00     0.157 HD
ENDBRANCH  21  25
ENDBRANCH   9  21
TORSDOF 3
ENDMDL
MODEL 9
REMARK VINA RESULT:      -6.2      7.228     10.942
REMARK  3 active torsions:
REMARK  status: ('A' for Active; 'I' for Inactive)
REMARK    1  A    between atoms: C_5  and  N_11 
REMARK    2  A    between atoms: C_9  and  C_20 
REMARK       I    between atoms: N_11  and  C_12 
REMARK    3  A    between atoms: C_20  and  N_23 
ROOT
HETATM    1  C   UNK N   1      20.589  19.581   2.973  0.00  0.00     0.003 A 
HETATM    2  C   UNK N   1      21.717  20.341   2.644  0.00  0.00     0.012 A 
HETATM    3  C   UNK N   1      22.974  19.968   3.129  0.00  0.00    -0.024 A 
HETATM    4  C   UNK N   1      23.099  18.822   3.944  0.00  0.00     0.002 A 
HETATM    5  C   UNK N   1      21.971  18.062   4.279  0.00  0.00     0.060 A 
HETATM    6  C   UNK N   1      20.713  18.448   3.788  0.00  0.00     0.031 A 
HETATM    7  C   UNK N   1      24.108  20.725   2.815  0.00  0.00     0.013 A 
HETATM    8  C   UNK N   1      25.364  20.348   3.314  0.00  0.00     0.016 A 
HETATM    9  C   UNK N   1      25.492  19.206   4.120  0.00  0.00     0.008 A 
HETATM   10  C   UNK N   1      24.358  18.453   4.424  0.00  0.00     0.029 A 
ENDROOT
BRANCH   5  11
HETATM   11  N   UNK N   1      22.143  16.908   5.098  0.00  0.00    -0.191 N 
HETATM   12  C   UNK N   1      21.525  16.633   6.340  0.00  0.00     0.682 A 
HETATM   13  N   UNK N   1      20.775  17.571   6.982  0.00  0.00    -0.202 N 
HETATM   14  N   UNK N   1      21.703  15.409   6.906  0.00  0.00    -0.202 N 
HETATM   15  C   UNK N   1      20.195  17.300   8.179  0.00  0.00     0.107 A 
ATOM     16  HN  UNK N   1      20.647  18.491   6.558  1.00  0.00     0.183 HD
HETATM   17  C   UNK N   1      20.361  16.046   8.765  0.00  0.00     0.035 A 
HETATM   18  C   UNK N   1      21.135  15.099   8.099  0.00  0.00     0.107 A 
ATOM     19  HN  UNK N   1      22.273  14.713   6.427  1.00  0.00     0.183 HD
HETATM   20  H   UNK N   1      22.765  16.223   4.759  0.00  0.00     0.184 HD
ENDBRANCH   5  11
BRANCH   9  21
HETATM   21  C   UNK N   1      26.807  18.796   4.659  0.00  0.00     0.102 C 
HETATM   22  N   UNK N   1      27.869  18.937   3.951  0.00  0.00    -0.385 N 
HETATM   23  H   UNK N   1      28.748  18.712   4.332  0.00  0.00     0.157 HD
ATOM     24  HN  UNK N   1      27.801  19.282   2.993  1.00  0.00     0.157 HD
BRANCH  21  25
HETATM   25  N   UNK N   1      26.905  18.227   5.948  0.00  0.00    -0.385 N 
HETATM   26  H   UNK N   1      27.789  18.048   6.344  0.00  0.00     0.157 HD
HETATM   27  H   UNK N   1      26.088  18.011   6.452  0.00  0.00     0.157 HD
ENDBRANCH  21  25
ENDBRANCH   9  21
TORSDOF 3
ENDMDL
