REMARK  3 active torsions:
REMARK  status: ('A' for Active; 'I' for Inactive)
REMARK    1  A    between atoms: C_5  and  N_11 
REMARK    2  A    between atoms: C_9  and  C_20 
REMARK       I    between atoms: N_11  and  C_12 
REMARK    3  A    between atoms: C_20  and  N_23 
ROOT
HETATM    1  C   UNK N   1      -1.607  -2.572   0.214  0.00  0.00     0.003 A 
HETATM    2  C   UNK N   1      -0.348  -3.183   0.221  0.00  0.00     0.012 A 
HETATM    3  C   UNK N   1       0.808  -2.399   0.173  0.00  0.00    -0.024 A 
HETATM    4  C   UNK N   1       0.699  -0.992   0.123  0.00  0.00     0.002 A 
HETATM    5  C   UNK N   1      -0.560  -0.377   0.112  0.00  0.00     0.060 A 
HETATM    6  C   UNK N   1      -1.714  -1.176   0.158  0.00  0.00     0.031 A 
HETATM    7  C   UNK N   1       2.072  -2.998   0.169  0.00  0.00     0.013 A 
HETATM    8  C   UNK N   1       3.226  -2.203   0.111  0.00  0.00     0.016 A 
HETATM    9  C   UNK N   1       3.121  -0.804   0.068  0.00  0.00     0.008 A 
HETATM   10  C   UNK N   1       1.857  -0.213   0.077  0.00  0.00     0.029 A 
ENDROOT
BRANCH   5  11
HETATM   11  N   UNK N   1      -0.625   1.046   0.070  0.00  0.00    -0.191 N 
HETATM   12  C   UNK N   1      -1.779   1.852  -0.074  0.00  0.00     0.682 A 
HETATM   13  N   UNK N   1      -2.995   1.306  -0.353  0.00  0.00    -0.202 N 
HETATM   14  N   UNK N   1      -1.659   3.201   0.054  0.00  0.00    -0.202 N 
HETATM   15  C   UNK N   1      -4.094   2.090  -0.499  0.00  0.00     0.107 A 
ATOM     16  HN  UNK N   1      -3.082   0.294  -0.454  1.00  0.00     0.183 HD
HETATM   17  C   UNK N   1      -3.986   3.473  -0.361  0.00  0.00     0.035 A 
HETATM   18  C   UNK N   1      -2.735   4.016  -0.080  0.00  0.00     0.107 A 
ATOM     19  HN  UNK N   1      -0.745   3.606   0.253  1.00  0.00     0.183 HD
HETATM   20  H   UNK N   1       0.233   1.524   0.150  0.00  0.00     0.184 HD
ENDBRANCH   5  11
BRANCH   9  21
HETATM   21  C   UNK N   1       4.326   0.051   0.002  0.00  0.00     0.102 C 
HETATM   22  N   UNK N   1       4.213   1.330   0.015  0.00  0.00    -0.385 N 
HETATM   23  H   UNK N   1       5.019   1.895   0.024  0.00  0.00     0.157 HD
ATOM     24  HN  UNK N   1       3.288   1.760   0.015  1.00  0.00     0.157 HD
BRANCH  21  25
HETATM   25  N   UNK N   1       5.610  -0.530  -0.095  0.00  0.00    -0.385 N 
HETATM   26  H   UNK N   1       5.706  -1.508  -0.163  0.00  0.00     0.157 HD
HETATM   27  H   UNK N   1       6.409   0.044  -0.095  0.00  0.00     0.157 HD
ENDBRANCH  21  25
ENDBRANCH   9  21
TORSDOF 3
