MODEL 1
REMARK VINA RESULT:      -5.4      0.000      0.000
REMARK  6 active torsions:
REMARK  status: ('A' for Active; 'I' for Inactive)
REMARK    1  A    between atoms: C_1  and  C_7 
REMARK    2  A    between atoms: C_2  and  O_8 
REMARK    3  A    between atoms: C_3  and  O_9 
REMARK    4  A    between atoms: C_4  and  N_10 
REMARK    5  A    between atoms: C_5  and  O_11 
REMARK    6  A    between atoms: C_7  and  O_15 
REMARK       I    between atoms: N_10  and  C_12 
ROOT
HETATM    1  C   UNK N   1      22.885  12.477  11.866  0.00  0.00     0.179 C 
HETATM    2  C   UNK N   1      23.915  12.074  10.804  0.00  0.00     0.180 C 
HETATM    3  C   UNK N   1      23.611  12.835   9.513  0.00  0.00     0.177 C 
HETATM    4  C   UNK N   1      22.139  12.693   9.118  0.00  0.00     0.170 C 
HETATM    5  C   UNK N   1      21.307  13.080  10.359  0.00  0.00     0.282 C 
HETATM    6  O   UNK N   1      21.593  12.176  11.397  0.00  0.00    -0.349 OA
ENDROOT
BRANCH   4   7
HETATM    7  N   UNK N   1      21.885  13.566   7.987  0.00  0.00    -0.349 N 
HETATM    8  C   UNK N   1      21.171  13.204   6.894  0.00  0.00     0.214 C 
HETATM    9  C   UNK N   1      21.012  14.168   5.770  0.00  0.00     0.117 C 
HETATM   10  O   UNK N   1      20.679  12.088   6.804  0.00  0.00    -0.274 OA
HETATM   11  H   UNK N   1      22.254  14.478   8.016  0.00  0.00     0.163 HD
ENDBRANCH   4   7
BRANCH   3  12
HETATM   12  O   UNK N   1      24.439  12.383   8.484  0.00  0.00    -0.391 OA
HETATM   13  H   UNK N   1      25.311  11.972   8.588  0.00  0.00     0.210 HD
ENDBRANCH   3  12
BRANCH   5  14
HETATM   14  O   UNK N   1      19.939  13.041  10.093  0.00  0.00    -0.369 OA
HETATM   15  H   UNK N   1      19.609  12.774   9.221  0.00  0.00     0.212 HD
ENDBRANCH   5  14
BRANCH   2  16
HETATM   16  O   UNK N   1      25.205  12.393  11.236  0.00  0.00    -0.390 OA
HETATM   17  H   UNK N   1      25.454  13.226  11.664  0.00  0.00     0.210 HD
ENDBRANCH   2  16
BRANCH   1  18
HETATM   18  C   UNK N   1      23.142  11.706  13.152  0.00  0.00     0.198 C 
BRANCH  18  19
HETATM   19  O   UNK N   1      23.876  12.487  14.044  0.00  0.00    -0.398 OA
HETATM   20  H   UNK N   1      24.646  12.171  14.540  0.00  0.00     0.209 HD
ENDBRANCH  18  19
ENDBRANCH   1  18
TORSDOF 6
ENDMDL
MODEL 2
REMARK VINA RESULT:      -5.3     10.972     12.504
REMARK  6 active torsions:
REMARK  status: ('A' for Active; 'I' for Inactive)
REMARK    1  A    between atoms: C_1  and  C_7 
REMARK    2  A    between atoms: C_2  and  O_8 
REMARK    3  A    between atoms: C_3  and  O_9 
REMARK    4  A    between atoms: C_4  and  N_10 
REMARK    5  A    between atoms: C_5  and  O_11 
REMARK    6  A    between atoms: C_7  and  O_15 
REMARK       I    between atoms: N_10  and  C_12 
ROOT
HETATM    1  C   UNK N   1      35.640  14.132  10.514  0.00  0.00     0.179 C 
HETATM    2  C   UNK N   1      36.048  15.543  10.073  0.00  0.00     0.180 C 
HETATM    3  C   UNK N   1      34.797  16.421  10.022  0.00  0.00     0.177 C 
HETATM    4  C   UNK N   1      33.683  15.753   9.211  0.00  0.00     0.170 C 
HETATM    5  C   UNK N   1      33.505  14.333   9.787  0.00  0.00     0.282 C 
HETATM    6  O   UNK N   1      34.700  13.616   9.602  0.00  0.00    -0.349 OA
ENDROOT
BRANCH   4   7
HETATM    7  N   UNK N   1      32.482  16.557   9.341  0.00  0.00    -0.349 N 
HETATM    8  C   UNK N   1      32.096  17.497   8.443  0.00  0.00     0.214 C 
HETATM    9  C   UNK N   1      30.867  18.296   8.701  0.00  0.00     0.117 C 
HETATM   10  O   UNK N   1      32.758  17.717   7.439  0.00  0.00    -0.274 OA
HETATM   11  H   UNK N   1      31.911  16.411  10.129  0.00  0.00     0.163 HD
ENDBRANCH   4   7
BRANCH   3  12
HETATM   12  O   UNK N   1      35.110  17.670   9.485  0.00  0.00    -0.391 OA
HETATM   13  H   UNK N   1      35.496  18.420   9.965  0.00  0.00     0.210 HD
ENDBRANCH   3  12
BRANCH   5  14
HETATM   14  O   UNK N   1      32.467  13.648   9.155  0.00  0.00    -0.369 OA
HETATM   15  H   UNK N   1      31.616  13.515   9.600  0.00  0.00     0.212 HD
ENDBRANCH   5  14
BRANCH   2  16
HETATM   16  O   UNK N   1      36.959  16.088  10.982  0.00  0.00    -0.390 OA
HETATM   17  H   UNK N   1      37.875  15.792  11.091  0.00  0.00     0.210 HD
ENDBRANCH   2  16
BRANCH   1  18
HETATM   18  C   UNK N   1      36.862  13.226  10.537  0.00  0.00     0.198 C 
BRANCH  18  19
HETATM   19  O   UNK N   1      37.618  13.468  11.684  0.00  0.00    -0.398 OA
HETATM   20  H   UNK N   1      37.292  13.348  12.589  0.00  0.00     0.209 HD
ENDBRANCH  18  19
ENDBRANCH   1  18
TORSDOF 6
ENDMDL
MODEL 3
REMARK VINA RESULT:      -5.3     11.282     13.481
REMARK  6 active torsions:
REMARK  status: ('A' for Active; 'I' for Inactive)
REMARK    1  A    between atoms: C_1  and  C_7 
REMARK    2  A    between atoms: C_2  and  O_8 
REMARK    3  A    between atoms: C_3  and  O_9 
REMARK    4  A    between atoms: C_4  and  N_10 
REMARK    5  A    between atoms: C_5  and  O_11 
REMARK    6  A    between atoms: C_7  and  O_15 
REMARK       I    between atoms: N_10  and  C_12 
ROOT
HETATM    1  C   UNK N   1      34.301  17.248   9.250  0.00  0.00     0.179 C 
HETATM    2  C   UNK N   1      33.480  16.050   8.757  0.00  0.00     0.180 C 
HETATM    3  C   UNK N   1      33.337  15.049   9.904  0.00  0.00     0.177 C 
HETATM    4  C   UNK N   1      34.695  14.727  10.533  0.00  0.00     0.170 C 
HETATM    5  C   UNK N   1      35.358  16.078  10.875  0.00  0.00     0.282 C 
HETATM    6  O   UNK N   1      35.562  16.798   9.684  0.00  0.00    -0.349 OA
ENDROOT
BRANCH   4   7
HETATM    7  N   UNK N   1      34.470  13.908  11.708  0.00  0.00    -0.349 N 
HETATM    8  C   UNK N   1      35.335  12.963  12.153  0.00  0.00     0.214 C 
HETATM    9  C   UNK N   1      34.978  12.148  13.346  0.00  0.00     0.117 C 
HETATM   10  O   UNK N   1      36.389  12.751  11.572  0.00  0.00    -0.274 OA
HETATM   11  H   UNK N   1      33.638  14.047  12.215  0.00  0.00     0.163 HD
ENDBRANCH   4   7
BRANCH   3  12
HETATM   12  O   UNK N   1      32.721  13.883   9.448  0.00  0.00    -0.391 OA
HETATM   13  H   UNK N   1      31.812  13.807   9.117  0.00  0.00     0.210 HD
ENDBRANCH   3  12
BRANCH   5  14
HETATM   14  O   UNK N   1      36.587  15.902  11.510  0.00  0.00    -0.369 OA
HETATM   15  H   UNK N   1      36.678  15.290  12.256  0.00  0.00     0.212 HD
ENDBRANCH   5  14
BRANCH   2  16
HETATM   16  O   UNK N   1      32.211  16.470   8.349  0.00  0.00    -0.390 OA
HETATM   17  H   UNK N   1      31.582  15.925   7.851  0.00  0.00     0.210 HD
ENDBRANCH   2  16
BRANCH   1  18
HETATM   18  C   UNK N   1      34.490  18.244   8.115  0.00  0.00     0.198 C 
BRANCH  18  19
HETATM   19  O   UNK N   1      35.335  19.278   8.519  0.00  0.00    -0.398 OA
HETATM   20  H   UNK N   1      36.287  19.178   8.673  0.00  0.00     0.209 HD
ENDBRANCH  18  19
ENDBRANCH   1  18
TORSDOF 6
ENDMDL
MODEL 4
REMARK VINA RESULT:      -5.2      6.814      9.990
REMARK  6 active torsions:
REMARK  status: ('A' for Active; 'I' for Inactive)
REMARK    1  A    between atoms: C_1  and  C_7 
REMARK    2  A    between atoms: C_2  and  O_8 
REMARK    3  A    between atoms: C_3  and  O_9 
REMARK    4  A    between atoms: C_4  and  N_10 
REMARK    5  A    between atoms: C_5  and  O_11 
REMARK    6  A    between atoms: C_7  and  O_15 
REMARK       I    between atoms: N_10  and  C_12 
ROOT
HETATM    1  C   UNK N   1      20.942  19.813   1.925  0.00  0.00     0.179 C 
HETATM    2  C   UNK N   1      21.993  20.192   2.975  0.00  0.00     0.180 C 
HETATM    3  C   UNK N   1      22.327  18.952   3.805  0.00  0.00     0.177 C 
HETATM    4  C   UNK N   1      21.057  18.278   4.331  0.00  0.00     0.170 C 
HETATM    5  C   UNK N   1      20.131  18.065   3.115  0.00  0.00     0.282 C 
HETATM    6  O   UNK N   1      19.795  19.320   2.576  0.00  0.00    -0.349 OA
ENDROOT
BRANCH   4   7
HETATM    7  N   UNK N   1      21.434  17.028   4.964  0.00  0.00    -0.349 N 
HETATM    8  C   UNK N   1      21.557  16.862   6.304  0.00  0.00     0.214 C 
HETATM    9  C   UNK N   1      21.996  15.545   6.841  0.00  0.00     0.117 C 
HETATM   10  O   UNK N   1      21.341  17.786   7.075  0.00  0.00    -0.274 OA
HETATM   11  H   UNK N   1      21.611  16.252   4.385  0.00  0.00     0.163 HD
ENDBRANCH   4   7
BRANCH   3  12
HETATM   12  O   UNK N   1      23.171  19.295   4.861  0.00  0.00    -0.391 OA
HETATM   13  H   UNK N   1      22.980  19.189   5.806  0.00  0.00     0.210 HD
ENDBRANCH   3  12
BRANCH   5  14
HETATM   14  O   UNK N   1      18.958  17.401   3.472  0.00  0.00    -0.369 OA
HETATM   15  H   UNK N   1      18.534  17.564   4.328  0.00  0.00     0.212 HD
ENDBRANCH   5  14
BRANCH   2  16
HETATM   16  O   UNK N   1      23.154  20.656   2.350  0.00  0.00    -0.390 OA
HETATM   17  H   UNK N   1      23.444  20.399   1.461  0.00  0.00     0.210 HD
ENDBRANCH   2  16
BRANCH   1  18
HETATM   18  C   UNK N   1      20.564  21.039   1.108  0.00  0.00     0.198 C 
BRANCH  18  19
HETATM   19  O   UNK N   1      20.569  20.732  -0.252  0.00  0.00    -0.398 OA
HETATM   20  H   UNK N   1      20.598  19.831  -0.608  0.00  0.00     0.209 HD
ENDBRANCH  18  19
ENDBRANCH   1  18
TORSDOF 6
ENDMDL
MODEL 5
REMARK VINA RESULT:      -5.2     10.375     11.961
REMARK  6 active torsions:
REMARK  status: ('A' for Active; 'I' for Inactive)
REMARK    1  A    between atoms: C_1  and  C_7 
REMARK    2  A    between atoms: C_2  and  O_8 
REMARK    3  A    between atoms: C_3  and  O_9 
REMARK    4  A    between atoms: C_4  and  N_10 
REMARK    5  A    between atoms: C_5  and  O_11 
REMARK    6  A    between atoms: C_7  and  O_15 
REMARK       I    between atoms: N_10  and  C_12 
ROOT
HETATM    1  C   UNK N   1      35.365  15.229   9.369  0.00  0.00     0.179 C 
HETATM    2  C   UNK N   1      34.108  15.027  10.224  0.00  0.00     0.180 C 
HETATM    3  C   UNK N   1      32.878  15.309   9.362  0.00  0.00     0.177 C 
HETATM    4  C   UNK N   1      33.000  16.656   8.644  0.00  0.00     0.170 C 
HETATM    5  C   UNK N   1      34.362  16.652   7.921  0.00  0.00     0.282 C 
HETATM    6  O   UNK N   1      35.385  16.549   8.880  0.00  0.00    -0.349 OA
ENDROOT
BRANCH   4   7
HETATM    7  N   UNK N   1      31.885  16.784   7.724  0.00  0.00    -0.349 N 
HETATM    8  C   UNK N   1      30.755  17.483   7.992  0.00  0.00     0.214 C 
HETATM    9  C   UNK N   1      29.655  17.508   6.990  0.00  0.00     0.117 C 
HETATM   10  O   UNK N   1      30.615  18.070   9.055  0.00  0.00    -0.274 OA
HETATM   11  H   UNK N   1      31.954  16.335   6.851  0.00  0.00     0.163 HD
ENDBRANCH   4   7
BRANCH   3  12
HETATM   12  O   UNK N   1      31.724  15.276  10.146  0.00  0.00    -0.391 OA
HETATM   13  H   UNK N   1      30.868  14.898   9.891  0.00  0.00     0.210 HD
ENDBRANCH   3  12
BRANCH   5  14
HETATM   14  O   UNK N   1      34.556  17.819   7.181  0.00  0.00    -0.369 OA
HETATM   15  H   UNK N   1      34.432  17.824   6.220  0.00  0.00     0.212 HD
ENDBRANCH   5  14
BRANCH   2  16
HETATM   16  O   UNK N   1      34.051  13.713  10.695  0.00  0.00    -0.390 OA
HETATM   17  H   UNK N   1      33.547  13.425  11.472  0.00  0.00     0.210 HD
ENDBRANCH   2  16
BRANCH   1  18
HETATM   18  C   UNK N   1      36.607  14.991  10.214  0.00  0.00     0.198 C 
BRANCH  18  19
HETATM   19  O   UNK N   1      36.940  16.148  10.917  0.00  0.00    -0.398 OA
HETATM   20  H   UNK N   1      36.589  17.029  10.717  0.00  0.00     0.209 HD
ENDBRANCH  18  19
ENDBRANCH   1  18
TORSDOF 6
ENDMDL
MODEL 6
REMARK VINA RESULT:      -5.1     23.548     25.122
REMARK  6 active torsions:
REMARK  status: ('A' for Active; 'I' for Inactive)
REMARK    1  A    between atoms: C_1  and  C_7 
REMARK    2  A    between atoms: C_2  and  O_8 
REMARK    3  A    between atoms: C_3  and  O_9 
REMARK    4  A    between atoms: C_4  and  N_10 
REMARK    5  A    between atoms: C_5  and  O_11 
REMARK    6  A    between atoms: C_7  and  O_15 
REMARK       I    between atoms: N_10  and  C_12 
ROOT
HETATM    1  C   UNK N   1      42.602  21.174   2.818  0.00  0.00     0.179 C 
HETATM    2  C   UNK N   1      42.140  22.459   2.119  0.00  0.00     0.180 C 
HETATM    3  C   UNK N   1      43.371  23.202   1.599  0.00  0.00     0.177 C 
HETATM    4  C   UNK N   1      44.425  23.369   2.697  0.00  0.00     0.170 C 
HETATM    5  C   UNK N   1      44.668  21.967   3.296  0.00  0.00     0.282 C 
HETATM    6  O   UNK N   1      43.471  21.507   3.874  0.00  0.00    -0.349 OA
ENDROOT
BRANCH   4   7
HETATM    7  N   UNK N   1      45.621  23.930   2.099  0.00  0.00    -0.349 N 
HETATM    8  C   UNK N   1      45.962  25.240   2.167  0.00  0.00     0.214 C 
HETATM    9  C   UNK N   1      47.192  25.713   1.474  0.00  0.00     0.117 C 
HETATM   10  O   UNK N   1      45.260  26.043   2.764  0.00  0.00    -0.274 OA
HETATM   11  H   UNK N   1      46.223  23.321   1.613  0.00  0.00     0.163 HD
ENDBRANCH   4   7
BRANCH   3  12
HETATM   12  O   UNK N   1      42.999  24.445   1.086  0.00  0.00    -0.391 OA
HETATM   13  H   UNK N   1      42.683  24.623   0.187  0.00  0.00     0.210 HD
ENDBRANCH   3  12
BRANCH   5  14
HETATM   14  O   UNK N   1      45.660  21.992   4.275  0.00  0.00    -0.369 OA
HETATM   15  H   UNK N   1      45.436  22.142   5.207  0.00  0.00     0.212 HD
ENDBRANCH   5  14
BRANCH   2  16
HETATM   16  O   UNK N   1      41.299  22.150   1.047  0.00  0.00    -0.390 OA
HETATM   17  H   UNK N   1      41.336  21.327   0.535  0.00  0.00     0.210 HD
ENDBRANCH   2  16
BRANCH   1  18
HETATM   18  C   UNK N   1      41.398  20.432   3.379  0.00  0.00     0.198 C 
BRANCH  18  19
HETATM   19  O   UNK N   1      41.621  19.056   3.344  0.00  0.00    -0.398 OA
HETATM   20  H   UNK N   1      42.450  18.630   3.610  0.00  0.00     0.209 HD
ENDBRANCH  18  19
ENDBRANCH   1  18
TORSDOF 6
ENDMDL
MODEL 7
REMARK VINA RESULT:      -5.1     12.059     14.411
REMARK  6 active torsions:
REMARK  status: ('A' for Active; 'I' for Inactive)
REMARK    1  A    between atoms: C_1  and  C_7 
REMARK    2  A    between atoms: C_2  and  O_8 
REMARK    3  A    between atoms: C_3  and  O_9 
REMARK    4  A    between atoms: C_4  and  N_10 
REMARK    5  A    between atoms: C_5  and  O_11 
REMARK    6  A    between atoms: C_7  and  O_15 
REMARK       I    between atoms: N_10  and  C_12 
ROOT
HETATM    1  C   UNK N   1      34.984  15.678   9.931  0.00  0.00     0.179 C 
HETATM    2  C   UNK N   1      34.162  14.574  10.608  0.00  0.00     0.180 C 
HETATM    3  C   UNK N   1      34.976  13.998  11.766  0.00  0.00     0.177 C 
HETATM    4  C   UNK N   1      36.388  13.613  11.316  0.00  0.00     0.170 C 
HETATM    5  C   UNK N   1      36.980  14.848  10.605  0.00  0.00     0.282 C 
HETATM    6  O   UNK N   1      36.199  15.136   9.471  0.00  0.00    -0.349 OA
ENDROOT
BRANCH   4   7
HETATM    7  N   UNK N   1      37.152  13.232  12.489  0.00  0.00    -0.349 N 
HETATM    8  C   UNK N   1      37.280  11.957  12.931  0.00  0.00     0.214 C 
HETATM    9  C   UNK N   1      38.051  11.687  14.175  0.00  0.00     0.117 C 
HETATM   10  O   UNK N   1      36.749  11.029  12.338  0.00  0.00    -0.274 OA
HETATM   11  H   UNK N   1      37.605  13.944  12.996  0.00  0.00     0.163 HD
ENDBRANCH   4   7
BRANCH   3  12
HETATM   12  O   UNK N   1      34.319  12.895  12.312  0.00  0.00    -0.391 OA
HETATM   13  H   UNK N   1      33.526  12.466  11.956  0.00  0.00     0.210 HD
ENDBRANCH   3  12
BRANCH   5  14
HETATM   14  O   UNK N   1      38.295  14.627  10.200  0.00  0.00    -0.369 OA
HETATM   15  H   UNK N   1      38.752  15.261   9.626  0.00  0.00     0.212 HD
ENDBRANCH   5  14
BRANCH   2  16
HETATM   16  O   UNK N   1      32.963  15.097  11.099  0.00  0.00    -0.390 OA
HETATM   17  H   UNK N   1      32.733  15.163  12.039  0.00  0.00     0.210 HD
ENDBRANCH   2  16
BRANCH   1  18
HETATM   18  C   UNK N   1      34.211  16.244   8.749  0.00  0.00     0.198 C 
BRANCH  18  19
HETATM   19  O   UNK N   1      33.293  17.198   9.186  0.00  0.00    -0.398 OA
HETATM   20  H   UNK N   1      33.170  17.453  10.113  0.00  0.00     0.209 HD
ENDBRANCH  18  19
ENDBRANCH   1  18
TORSDOF 6
ENDMDL
MODEL 8
REMARK VINA RESULT:      -5.0      9.271     10.969
REMARK  6 active torsions:
REMARK  status: ('A' for Active; 'I' for Inactive)
REMARK    1  A    between atoms: C_1  and  C_7 
REMARK    2  A    between atoms: C_2  and  O_8 
REMARK    3  A    between atoms: C_3  and  O_9 
REMARK    4  A    between atoms: C_4  and  N_10 
REMARK    5  A    between atoms: C_5  and  O_11 
REMARK    6  A    between atoms: C_7  and  O_15 
REMARK       I    between atoms: N_10  and  C_12 
ROOT
HETATM    1  C   UNK N   1      29.601  17.640   8.520  0.00  0.00     0.179 C 
HETATM    2  C   UNK N   1      29.426  17.578   6.997  0.00  0.00     0.180 C 
HETATM    3  C   UNK N   1      30.516  16.678   6.415  0.00  0.00     0.177 C 
HETATM    4  C   UNK N   1      31.902  17.084   6.922  0.00  0.00     0.170 C 
HETATM    5  C   UNK N   1      31.811  17.149   8.461  0.00  0.00     0.282 C 
HETATM    6  O   UNK N   1      30.882  18.142   8.818  0.00  0.00    -0.349 OA
ENDROOT
BRANCH   4   7
HETATM    7  N   UNK N   1      32.862  16.097   6.465  0.00  0.00    -0.349 N 
HETATM    8  C   UNK N   1      34.163  16.368   6.198  0.00  0.00     0.214 C 
HETATM    9  C   UNK N   1      35.047  15.284   5.690  0.00  0.00     0.117 C 
HETATM   10  O   UNK N   1      34.613  17.495   6.341  0.00  0.00    -0.274 OA
HETATM   11  H   UNK N   1      32.548  15.172   6.342  0.00  0.00     0.163 HD
ENDBRANCH   4   7
BRANCH   3  12
HETATM   12  O   UNK N   1      30.475  16.716   5.021  0.00  0.00    -0.391 OA
HETATM   13  H   UNK N   1      30.029  17.385   4.478  0.00  0.00     0.210 HD
ENDBRANCH   3  12
BRANCH   5  14
HETATM   14  O   UNK N   1      33.043  17.458   9.036  0.00  0.00    -0.369 OA
HETATM   15  H   UNK N   1      33.837  17.558   8.489  0.00  0.00     0.212 HD
ENDBRANCH   5  14
BRANCH   2  16
HETATM   16  O   UNK N   1      28.172  17.053   6.677  0.00  0.00    -0.390 OA
HETATM   17  H   UNK N   1      28.011  16.381   5.996  0.00  0.00     0.210 HD
ENDBRANCH   2  16
BRANCH   1  18
HETATM   18  C   UNK N   1      28.551  18.560   9.122  0.00  0.00     0.198 C 
BRANCH  18  19
HETATM   19  O   UNK N   1      27.394  17.840   9.421  0.00  0.00    -0.398 OA
HETATM   20  H   UNK N   1      26.497  18.127   9.189  0.00  0.00     0.209 HD
ENDBRANCH  18  19
ENDBRANCH   1  18
TORSDOF 6
ENDMDL
MODEL 9
REMARK VINA RESULT:      -5.0      6.133      9.732
REMARK  6 active torsions:
REMARK  status: ('A' for Active; 'I' for Inactive)
REMARK    1  A    between atoms: C_1  and  C_7 
REMARK    2  A    between atoms: C_2  and  O_8 
REMARK    3  A    between atoms: C_3  and  O_9 
REMARK    4  A    between atoms: C_4  and  N_10 
REMARK    5  A    between atoms: C_5  and  O_11 
REMARK    6  A    between atoms: C_7  and  O_15 
REMARK       I    between atoms: N_10  and  C_12 
ROOT
HETATM    1  C   UNK N   1      20.635  19.728   2.667  0.00  0.00     0.179 C 
HETATM    2  C   UNK N   1      19.779  18.469   2.482  0.00  0.00     0.180 C 
HETATM    3  C   UNK N   1      19.902  17.603   3.736  0.00  0.00     0.177 C 
HETATM    4  C   UNK N   1      21.369  17.376   4.113  0.00  0.00     0.170 C 
HETATM    5  C   UNK N   1      22.034  18.767   4.167  0.00  0.00     0.282 C 
HETATM    6  O   UNK N   1      21.973  19.349   2.888  0.00  0.00    -0.349 OA
ENDROOT
BRANCH   4   7
HETATM    7  N   UNK N   1      21.410  16.693   5.392  0.00  0.00    -0.349 N 
HETATM    8  C   UNK N   1      22.383  15.823   5.757  0.00  0.00     0.214 C 
HETATM    9  C   UNK N   1      22.299  15.143   7.079  0.00  0.00     0.117 C 
HETATM   10  O   UNK N   1      23.312  15.566   5.006  0.00  0.00    -0.274 OA
HETATM   11  H   UNK N   1      20.687  16.873   6.034  0.00  0.00     0.163 HD
ENDBRANCH   4   7
BRANCH   3  12
HETATM   12  O   UNK N   1      19.253  16.384   3.543  0.00  0.00    -0.391 OA
HETATM   13  H   UNK N   1      19.115  15.695   4.212  0.00  0.00     0.210 HD
ENDBRANCH   3  12
BRANCH   5  14
HETATM   14  O   UNK N   1      23.369  18.684   4.559  0.00  0.00    -0.369 OA
HETATM   15  H   UNK N   1      23.626  18.822   5.484  0.00  0.00     0.212 HD
ENDBRANCH   5  14
BRANCH   2  16
HETATM   16  O   UNK N   1      18.440  18.819   2.292  0.00  0.00    -0.390 OA
HETATM   17  H   UNK N   1      17.852  19.156   2.986  0.00  0.00     0.210 HD
ENDBRANCH   2  16
BRANCH   1  18
HETATM   18  C   UNK N   1      20.560  20.590   1.416  0.00  0.00     0.198 C 
BRANCH  18  19
HETATM   19  O   UNK N   1      20.576  19.787   0.277  0.00  0.00    -0.398 OA
HETATM   20  H   UNK N   1      21.366  19.346  -0.071  0.00  0.00     0.209 HD
ENDBRANCH  18  19
ENDBRANCH   1  18
TORSDOF 6
ENDMDL
