MODEL 1
REMARK VINA RESULT:      -6.2      0.000      0.000
REMARK  11 active torsions:
REMARK  status: ('A' for Active; 'I' for Inactive)
REMARK    1  A    between atoms: C_2  and  C_1 
REMARK    2  A    between atoms: C_1  and  O_19 
REMARK    3  A    between atoms: C_3  and  O_4 
REMARK    4  A    between atoms: C_5  and  O_6 
REMARK    5  A    between atoms: C_7  and  N_9 
REMARK    6  A    between atoms: P_17  and  O_19 
REMARK    7  A    between atoms: P_17  and  O_21 
REMARK    8  A    between atoms: P_17  and  O_22 
REMARK    9  A    between atoms: O_20  and  P_23 
REMARK   10  A    between atoms: O_22  and  P_23 
REMARK   11  A    between atoms: P_23  and  O_25 
ROOT
HETATM    1  C   UNK N   1      34.956  13.828  12.221  0.00  0.00     0.180 C 
HETATM    2  C   UNK N   1      36.355  14.409  12.113  0.00  0.00     0.182 C 
HETATM    3  C   UNK N   1      36.301  15.073  10.789  0.00  0.00     0.198 C 
HETATM    4  C   UNK N   1      34.894  15.629  10.853  0.00  0.00     0.263 C 
HETATM    5  O   UNK N   1      34.084  14.656  11.482  0.00  0.00    -0.353 OA
ENDROOT
BRANCH   1   6
HETATM    6  C   UNK N   1      34.858  12.412  11.690  0.00  0.00     0.215 C 
BRANCH   6   7
HETATM    7  O   UNK N   1      35.459  11.563  12.625  0.00  0.00    -0.294 OA
BRANCH   7   8
HETATM    8  P   UNK N   1      34.326  11.411  13.931  0.00  0.00     0.401 P 
HETATM    9  O   UNK N   1      34.329   9.930  14.398  0.00  0.00    -0.631 OA
BRANCH   8  10
HETATM   10  O   UNK N   1      33.739  10.577  12.522  0.00  0.00    -0.307 OA
HETATM   11  H   UNK N   1      33.978   9.674  12.260  0.00  0.00     0.222 HD
ENDBRANCH   8  10
BRANCH   8  12
HETATM   12  O   UNK N   1      35.959  11.238  14.527  0.00  0.00    -0.195 OA
BRANCH  12  13
HETATM   13  P   UNK N   1      36.059  12.312  15.900  0.00  0.00     0.399 P 
HETATM   14  O   UNK N   1      35.996  13.800  15.470  0.00  0.00    -0.631 OA
BRANCH  13  15
HETATM   15  O   UNK N   1      34.483  12.501  15.198  0.00  0.00    -0.307 OA
HETATM   16  H   UNK N   1      34.129  12.850  14.364  0.00  0.00     0.222 HD
ENDBRANCH  13  15
BRANCH  13  17
HETATM   17  O   UNK N   1      37.458  12.536  14.895  0.00  0.00    -0.307 OA
HETATM   18  H   UNK N   1      37.641  12.014  14.099  0.00  0.00     0.222 HD
ENDBRANCH  13  17
ENDBRANCH  12  13
ENDBRANCH   8  12
ENDBRANCH   7   8
ENDBRANCH   6   7
ENDBRANCH   1   6
BRANCH   2  19
HETATM   19  O   UNK N   1      37.366  13.445  12.173  0.00  0.00    -0.390 OA
HETATM   20  H   UNK N   1      37.515  12.604  12.633  0.00  0.00     0.210 HD
ENDBRANCH   2  19
BRANCH   3  21
HETATM   21  O   UNK N   1      37.257  16.086  10.720  0.00  0.00    -0.388 OA
HETATM   22  H   UNK N   1      37.457  16.634  11.496  0.00  0.00     0.210 HD
ENDBRANCH   3  21
BRANCH   4  23
HETATM   23  N   UNK N   1      34.394  15.988   9.518  0.00  0.00    -0.280 N 
HETATM   24  C   UNK N   1      34.657  17.233   8.978  0.00  0.00     0.331 A 
HETATM   25  O   UNK N   1      35.309  18.054   9.603  0.00  0.00    -0.246 OA
HETATM   26  N   UNK N   1      34.172  17.565   7.742  0.00  0.00    -0.275 N 
HETATM   27  C   UNK N   1      33.418  16.677   7.024  0.00  0.00     0.250 A 
HETATM   28  H   UNK N   1      34.367  18.453   7.365  0.00  0.00     0.173 HD
HETATM   29  O   UNK N   1      32.993  16.988   5.928  0.00  0.00    -0.268 OA
HETATM   30  C   UNK N   1      33.136  15.423   7.553  0.00  0.00     0.092 A 
HETATM   31  C   UNK N   1      33.633  15.097   8.813  0.00  0.00     0.104 A 
ENDBRANCH   4  23
TORSDOF 11
ENDMDL
MODEL 2
REMARK VINA RESULT:      -6.2      3.677      7.338
REMARK  11 active torsions:
REMARK  status: ('A' for Active; 'I' for Inactive)
REMARK    1  A    between atoms: C_2  and  C_1 
REMARK    2  A    between atoms: C_1  and  O_19 
REMARK    3  A    between atoms: C_3  and  O_4 
REMARK    4  A    between atoms: C_5  and  O_6 
REMARK    5  A    between atoms: C_7  and  N_9 
REMARK    6  A    between atoms: P_17  and  O_19 
REMARK    7  A    between atoms: P_17  and  O_21 
REMARK    8  A    between atoms: P_17  and  O_22 
REMARK    9  A    between atoms: O_20  and  P_23 
REMARK   10  A    between atoms: O_22  and  P_23 
REMARK   11  A    between atoms: P_23  and  O_25 
ROOT
HETATM    1  C   UNK N   1      35.602  13.913  11.444  0.00  0.00     0.180 C 
HETATM    2  C   UNK N   1      36.870  13.079  11.489  0.00  0.00     0.182 C 
HETATM    3  C   UNK N   1      37.166  13.062  12.941  0.00  0.00     0.198 C 
HETATM    4  C   UNK N   1      35.755  12.928  13.475  0.00  0.00     0.263 C 
HETATM    5  O   UNK N   1      34.919  13.731  12.666  0.00  0.00    -0.353 OA
ENDROOT
BRANCH   1   6
HETATM    6  C   UNK N   1      35.871  15.392  11.246  0.00  0.00     0.215 C 
BRANCH   6   7
HETATM    7  O   UNK N   1      34.688  15.983  10.793  0.00  0.00    -0.294 OA
BRANCH   7   8
HETATM    8  P   UNK N   1      34.063  14.925   9.567  0.00  0.00     0.401 P 
HETATM    9  O   UNK N   1      32.956  15.690   8.793  0.00  0.00    -0.631 OA
BRANCH   8  10
HETATM   10  O   UNK N   1      32.866  15.193  10.800  0.00  0.00    -0.307 OA
HETATM   11  H   UNK N   1      31.932  15.404  10.644  0.00  0.00     0.222 HD
ENDBRANCH   8  10
BRANCH   8  12
HETATM   12  O   UNK N   1      34.981  16.219   8.835  0.00  0.00    -0.195 OA
BRANCH  12  13
HETATM   13  P   UNK N   1      33.855  17.041   7.785  0.00  0.00     0.399 P 
HETATM   14  O   UNK N   1      34.559  18.113   6.915  0.00  0.00    -0.631 OA
BRANCH  13  15
HETATM   15  O   UNK N   1      34.951  16.143   6.782  0.00  0.00    -0.307 OA
HETATM   16  H   UNK N   1      35.549  16.349   6.046  0.00  0.00     0.222 HD
ENDBRANCH  13  15
BRANCH  13  17
HETATM   17  O   UNK N   1      34.503  18.176   8.929  0.00  0.00    -0.307 OA
HETATM   18  H   UNK N   1      34.880  19.035   8.683  0.00  0.00     0.222 HD
ENDBRANCH  13  17
ENDBRANCH  12  13
ENDBRANCH   8  12
ENDBRANCH   7   8
ENDBRANCH   6   7
ENDBRANCH   1   6
BRANCH   2  19
HETATM   19  O   UNK N   1      37.923  13.623  10.748  0.00  0.00    -0.390 OA
HETATM   20  H   UNK N   1      38.892  13.570  10.752  0.00  0.00     0.210 HD
ENDBRANCH   2  19
BRANCH   3  21
HETATM   21  O   UNK N   1      37.950  11.954  13.260  0.00  0.00    -0.388 OA
HETATM   22  H   UNK N   1      38.904  12.047  13.409  0.00  0.00     0.210 HD
ENDBRANCH   3  21
BRANCH   4  23
HETATM   23  N   UNK N   1      35.677  13.301  14.896  0.00  0.00    -0.280 N 
HETATM   24  C   UNK N   1      34.660  12.818  15.696  0.00  0.00     0.331 A 
HETATM   25  O   UNK N   1      33.808  12.075  15.235  0.00  0.00    -0.246 OA
HETATM   26  N   UNK N   1      34.585  13.186  17.013  0.00  0.00    -0.275 N 
HETATM   27  C   UNK N   1      35.510  14.036  17.556  0.00  0.00     0.250 A 
HETATM   28  H   UNK N   1      33.857  12.834  17.575  0.00  0.00     0.173 HD
HETATM   29  O   UNK N   1      35.429  14.354  18.727  0.00  0.00    -0.268 OA
HETATM   30  C   UNK N   1      36.536  14.538  16.765  0.00  0.00     0.092 A 
HETATM   31  C   UNK N   1      36.601  14.159  15.425  0.00  0.00     0.104 A 
ENDBRANCH   4  23
TORSDOF 11
ENDMDL
MODEL 3
REMARK VINA RESULT:      -6.0      4.272      7.830
REMARK  11 active torsions:
REMARK  status: ('A' for Active; 'I' for Inactive)
REMARK    1  A    between atoms: C_2  and  C_1 
REMARK    2  A    between atoms: C_1  and  O_19 
REMARK    3  A    between atoms: C_3  and  O_4 
REMARK    4  A    between atoms: C_5  and  O_6 
REMARK    5  A    between atoms: C_7  and  N_9 
REMARK    6  A    between atoms: P_17  and  O_19 
REMARK    7  A    between atoms: P_17  and  O_21 
REMARK    8  A    between atoms: P_17  and  O_22 
REMARK    9  A    between atoms: O_20  and  P_23 
REMARK   10  A    between atoms: O_22  and  P_23 
REMARK   11  A    between atoms: P_23  and  O_25 
ROOT
HETATM    1  C   UNK N   1      35.483  12.707  12.640  0.00  0.00     0.180 C 
HETATM    2  C   UNK N   1      36.946  12.307  12.692  0.00  0.00     0.182 C 
HETATM    3  C   UNK N   1      37.217  12.350  14.148  0.00  0.00     0.198 C 
HETATM    4  C   UNK N   1      35.913  11.772  14.655  0.00  0.00     0.263 C 
HETATM    5  O   UNK N   1      34.877  12.294  13.846  0.00  0.00    -0.353 OA
ENDROOT
BRANCH   1   6
HETATM    6  C   UNK N   1      35.280  14.200  12.474  0.00  0.00     0.215 C 
BRANCH   6   7
HETATM    7  O   UNK N   1      35.663  14.540  11.173  0.00  0.00    -0.294 OA
BRANCH   7   8
HETATM    8  P   UNK N   1      35.413  16.252  11.034  0.00  0.00     0.401 P 
HETATM    9  O   UNK N   1      35.572  16.640   9.538  0.00  0.00    -0.631 OA
BRANCH   8  10
HETATM   10  O   UNK N   1      37.079  15.858  10.723  0.00  0.00    -0.307 OA
HETATM   11  H   UNK N   1      37.721  16.431  10.274  0.00  0.00     0.222 HD
ENDBRANCH   8  10
BRANCH   8  12
HETATM   12  O   UNK N   1      34.079  15.388  10.308  0.00  0.00    -0.195 OA
BRANCH  12  13
HETATM   13  P   UNK N   1      34.110  15.834   8.621  0.00  0.00     0.399 P 
HETATM   14  O   UNK N   1      32.893  15.259   7.853  0.00  0.00    -0.631 OA
BRANCH  13  15
HETATM   15  O   UNK N   1      32.731  16.602   9.343  0.00  0.00    -0.307 OA
HETATM   16  H   UNK N   1      31.909  17.004   9.020  0.00  0.00     0.222 HD
ENDBRANCH  13  15
BRANCH  13  17
HETATM   17  O   UNK N   1      34.280  14.112   8.759  0.00  0.00    -0.307 OA
HETATM   18  H   UNK N   1      34.887  13.676   9.377  0.00  0.00     0.222 HD
ENDBRANCH  13  17
ENDBRANCH  12  13
ENDBRANCH   8  12
ENDBRANCH   7   8
ENDBRANCH   6   7
ENDBRANCH   1   6
BRANCH   2  19
HETATM   19  O   UNK N   1      37.786  13.168  11.979  0.00  0.00    -0.390 OA
HETATM   20  H   UNK N   1      38.067  13.280  11.057  0.00  0.00     0.210 HD
ENDBRANCH   2  19
BRANCH   3  21
HETATM   21  O   UNK N   1      38.304  11.533  14.460  0.00  0.00    -0.388 OA
HETATM   22  H   UNK N   1      39.120  11.571  13.936  0.00  0.00     0.210 HD
ENDBRANCH   3  21
BRANCH   4  23
HETATM   23  N   UNK N   1      35.708  12.070  16.081  0.00  0.00    -0.280 N 
HETATM   24  C   UNK N   1      35.988  11.122  17.046  0.00  0.00     0.331 A 
HETATM   25  O   UNK N   1      36.409  10.020  16.729  0.00  0.00    -0.246 OA
HETATM   26  N   UNK N   1      35.776  11.401  18.369  0.00  0.00    -0.275 N 
HETATM   27  C   UNK N   1      35.283  12.617  18.757  0.00  0.00     0.250 A 
HETATM   28  H   UNK N   1      35.981  10.720  19.049  0.00  0.00     0.173 HD
HETATM   29  O   UNK N   1      35.099  12.850  19.937  0.00  0.00    -0.268 OA
HETATM   30  C   UNK N   1      34.988  13.581  17.800  0.00  0.00     0.092 A 
HETATM   31  C   UNK N   1      35.205  13.284  16.456  0.00  0.00     0.104 A 
ENDBRANCH   4  23
TORSDOF 11
ENDMDL
MODEL 4
REMARK VINA RESULT:      -5.9      6.753      9.410
REMARK  11 active torsions:
REMARK  status: ('A' for Active; 'I' for Inactive)
REMARK    1  A    between atoms: C_2  and  C_1 
REMARK    2  A    between atoms: C_1  and  O_19 
REMARK    3  A    between atoms: C_3  and  O_4 
REMARK    4  A    between atoms: C_5  and  O_6 
REMARK    5  A    between atoms: C_7  and  N_9 
REMARK    6  A    between atoms: P_17  and  O_19 
REMARK    7  A    between atoms: P_17  and  O_21 
REMARK    8  A    between atoms: P_17  and  O_22 
REMARK    9  A    between atoms: O_20  and  P_23 
REMARK   10  A    between atoms: O_22  and  P_23 
REMARK   11  A    between atoms: P_23  and  O_25 
ROOT
HETATM    1  C   UNK N   1      29.531  16.677   6.759  0.00  0.00     0.180 C 
HETATM    2  C   UNK N   1      29.185  17.573   7.935  0.00  0.00     0.182 C 
HETATM    3  C   UNK N   1      28.357  18.615   7.284  0.00  0.00     0.198 C 
HETATM    4  C   UNK N   1      27.585  17.743   6.317  0.00  0.00     0.263 C 
HETATM    5  O   UNK N   1      28.480  16.767   5.822  0.00  0.00    -0.353 OA
ENDROOT
BRANCH   1   6
HETATM    6  C   UNK N   1      30.831  17.062   6.081  0.00  0.00     0.215 C 
BRANCH   6   7
HETATM    7  O   UNK N   1      31.834  16.223   6.575  0.00  0.00    -0.294 OA
BRANCH   7   8
HETATM    8  P   UNK N   1      33.292  16.689   5.756  0.00  0.00     0.401 P 
HETATM    9  O   UNK N   1      32.988  17.963   4.924  0.00  0.00    -0.631 OA
BRANCH   8  10
HETATM   10  O   UNK N   1      32.115  16.112   4.613  0.00  0.00    -0.307 OA
HETATM   11  H   UNK N   1      32.293  15.507   3.876  0.00  0.00     0.222 HD
ENDBRANCH   8  10
BRANCH   8  12
HETATM   12  O   UNK N   1      32.912  17.842   7.013  0.00  0.00    -0.195 OA
BRANCH  12  13
HETATM   13  P   UNK N   1      34.307  17.848   8.063  0.00  0.00     0.399 P 
HETATM   14  O   UNK N   1      34.595  16.440   8.643  0.00  0.00    -0.631 OA
BRANCH  13  15
HETATM   15  O   UNK N   1      34.694  16.873   6.680  0.00  0.00    -0.307 OA
HETATM   16  H   UNK N   1      34.655  16.984   5.717  0.00  0.00     0.222 HD
ENDBRANCH  13  15
BRANCH  13  17
HETATM   17  O   UNK N   1      32.893  17.462   8.993  0.00  0.00    -0.307 OA
HETATM   18  H   UNK N   1      32.564  18.003   9.728  0.00  0.00     0.222 HD
ENDBRANCH  13  17
ENDBRANCH  12  13
ENDBRANCH   8  12
ENDBRANCH   7   8
ENDBRANCH   6   7
ENDBRANCH   1   6
BRANCH   2  19
HETATM   19  O   UNK N   1      30.305  18.117   8.571  0.00  0.00    -0.390 OA
HETATM   20  H   UNK N   1      30.566  18.335   9.480  0.00  0.00     0.210 HD
ENDBRANCH   2  19
BRANCH   3  21
HETATM   21  O   UNK N   1      27.520  19.220   8.221  0.00  0.00    -0.388 OA
HETATM   22  H   UNK N   1      27.286  18.764   9.045  0.00  0.00     0.210 HD
ENDBRANCH   3  21
BRANCH   4  23
HETATM   23  N   UNK N   1      26.979  18.539   5.238  0.00  0.00    -0.280 N 
HETATM   24  C   UNK N   1      25.740  18.203   4.726  0.00  0.00     0.331 A 
HETATM   25  O   UNK N   1      25.130  17.238   5.160  0.00  0.00    -0.246 OA
HETATM   26  N   UNK N   1      25.192  18.938   3.710  0.00  0.00    -0.275 N 
HETATM   27  C   UNK N   1      25.859  20.011   3.183  0.00  0.00     0.250 A 
HETATM   28  H   UNK N   1      24.308  18.691   3.353  0.00  0.00     0.173 HD
HETATM   29  O   UNK N   1      25.359  20.653   2.279  0.00  0.00    -0.268 OA
HETATM   30  C   UNK N   1      27.109  20.359   3.680  0.00  0.00     0.092 A 
HETATM   31  C   UNK N   1      27.658  19.602   4.713  0.00  0.00     0.104 A 
ENDBRANCH   4  23
TORSDOF 11
ENDMDL
MODEL 5
REMARK VINA RESULT:      -5.9     13.058     14.549
REMARK  11 active torsions:
REMARK  status: ('A' for Active; 'I' for Inactive)
REMARK    1  A    between atoms: C_2  and  C_1 
REMARK    2  A    between atoms: C_1  and  O_19 
REMARK    3  A    between atoms: C_3  and  O_4 
REMARK    4  A    between atoms: C_5  and  O_6 
REMARK    5  A    between atoms: C_7  and  N_9 
REMARK    6  A    between atoms: P_17  and  O_19 
REMARK    7  A    between atoms: P_17  and  O_21 
REMARK    8  A    between atoms: P_17  and  O_22 
REMARK    9  A    between atoms: O_20  and  P_23 
REMARK   10  A    between atoms: O_22  and  P_23 
REMARK   11  A    between atoms: P_23  and  O_25 
ROOT
HETATM    1  C   UNK N   1      21.827  16.048   6.898  0.00  0.00     0.180 C 
HETATM    2  C   UNK N   1      22.880  15.321   6.080  0.00  0.00     0.182 C 
HETATM    3  C   UNK N   1      22.942  16.161   4.860  0.00  0.00     0.198 C 
HETATM    4  C   UNK N   1      22.813  17.527   5.499  0.00  0.00     0.263 C 
HETATM    5  O   UNK N   1      21.875  17.415   6.550  0.00  0.00    -0.353 OA
ENDROOT
BRANCH   1   6
HETATM    6  C   UNK N   1      20.424  15.527   6.659  0.00  0.00     0.215 C 
BRANCH   6   7
HETATM    7  O   UNK N   1      20.252  14.386   7.449  0.00  0.00    -0.294 OA
BRANCH   7   8
HETATM    8  P   UNK N   1      20.363  14.924   9.096  0.00  0.00     0.401 P 
HETATM    9  O   UNK N   1      19.169  14.315   9.879  0.00  0.00    -0.631 OA
BRANCH   8  10
HETATM   10  O   UNK N   1      18.994  15.656   8.312  0.00  0.00    -0.307 OA
HETATM   11  H   UNK N   1      18.112  15.260   8.229  0.00  0.00     0.222 HD
ENDBRANCH   8  10
BRANCH   8  12
HETATM   12  O   UNK N   1      20.715  13.215   8.994  0.00  0.00    -0.195 OA
BRANCH  12  13
HETATM   13  P   UNK N   1      22.295  13.031   9.713  0.00  0.00     0.399 P 
HETATM   14  O   UNK N   1      22.663  11.539   9.916  0.00  0.00    -0.631 OA
BRANCH  13  15
HETATM   15  O   UNK N   1      22.368  12.374   8.108  0.00  0.00    -0.307 OA
HETATM   16  H   UNK N   1      22.960  12.466   7.345  0.00  0.00     0.222 HD
ENDBRANCH  13  15
BRANCH  13  17
HETATM   17  O   UNK N   1      21.093  12.430  10.812  0.00  0.00    -0.307 OA
HETATM   18  H   UNK N   1      20.801  11.505  10.841  0.00  0.00     0.222 HD
ENDBRANCH  13  17
ENDBRANCH  12  13
ENDBRANCH   8  12
ENDBRANCH   7   8
ENDBRANCH   6   7
ENDBRANCH   1   6
BRANCH   2  19
HETATM   19  O   UNK N   1      22.542  13.997   5.785  0.00  0.00    -0.390 OA
HETATM   20  H   UNK N   1      22.867  13.114   6.023  0.00  0.00     0.210 HD
ENDBRANCH   2  19
BRANCH   3  21
HETATM   21  O   UNK N   1      24.174  15.998   4.226  0.00  0.00    -0.388 OA
HETATM   22  H   UNK N   1      25.001  16.047   4.730  0.00  0.00     0.210 HD
ENDBRANCH   3  21
BRANCH   4  23
HETATM   23  N   UNK N   1      22.424  18.549   4.515  0.00  0.00    -0.280 N 
HETATM   24  C   UNK N   1      23.383  19.258   3.818  0.00  0.00     0.331 A 
HETATM   25  O   UNK N   1      24.571  19.047   4.010  0.00  0.00    -0.246 OA
HETATM   26  N   UNK N   1      23.012  20.220   2.918  0.00  0.00    -0.275 N 
HETATM   27  C   UNK N   1      21.691  20.498   2.696  0.00  0.00     0.250 A 
HETATM   28  H   UNK N   1      23.704  20.718   2.425  0.00  0.00     0.173 HD
HETATM   29  O   UNK N   1      21.377  21.357   1.894  0.00  0.00    -0.268 OA
HETATM   30  C   UNK N   1      20.711  19.801   3.393  0.00  0.00     0.092 A 
HETATM   31  C   UNK N   1      21.101  18.826   4.308  0.00  0.00     0.104 A 
ENDBRANCH   4  23
TORSDOF 11
ENDMDL
MODEL 6
REMARK VINA RESULT:      -5.8      3.673      7.194
REMARK  11 active torsions:
REMARK  status: ('A' for Active; 'I' for Inactive)
REMARK    1  A    between atoms: C_2  and  C_1 
REMARK    2  A    between atoms: C_1  and  O_19 
REMARK    3  A    between atoms: C_3  and  O_4 
REMARK    4  A    between atoms: C_5  and  O_6 
REMARK    5  A    between atoms: C_7  and  N_9 
REMARK    6  A    between atoms: P_17  and  O_19 
REMARK    7  A    between atoms: P_17  and  O_21 
REMARK    8  A    between atoms: P_17  and  O_22 
REMARK    9  A    between atoms: O_20  and  P_23 
REMARK   10  A    between atoms: O_22  and  P_23 
REMARK   11  A    between atoms: P_23  and  O_25 
ROOT
HETATM    1  C   UNK N   1      35.447  16.092  10.629  0.00  0.00     0.180 C 
HETATM    2  C   UNK N   1      34.525  15.079  11.284  0.00  0.00     0.182 C 
HETATM    3  C   UNK N   1      35.104  13.799  10.815  0.00  0.00     0.198 C 
HETATM    4  C   UNK N   1      36.574  14.150  10.905  0.00  0.00     0.263 C 
HETATM    5  O   UNK N   1      36.715  15.490  10.480  0.00  0.00    -0.353 OA
ENDROOT
BRANCH   1   6
HETATM    6  C   UNK N   1      34.956  16.550   9.270  0.00  0.00     0.215 C 
BRANCH   6   7
HETATM    7  O   UNK N   1      34.058  17.602   9.473  0.00  0.00    -0.294 OA
BRANCH   7   8
HETATM    8  P   UNK N   1      33.560  18.117   7.891  0.00  0.00     0.401 P 
HETATM    9  O   UNK N   1      34.615  17.614   6.869  0.00  0.00    -0.631 OA
BRANCH   8  10
HETATM   10  O   UNK N   1      34.991  18.975   8.383  0.00  0.00    -0.307 OA
HETATM   11  H   UNK N   1      35.233  19.873   8.107  0.00  0.00     0.222 HD
ENDBRANCH   8  10
BRANCH   8  12
HETATM   12  O   UNK N   1      33.391  16.384   8.043  0.00  0.00    -0.195 OA
BRANCH  12  13
HETATM   13  P   UNK N   1      31.772  16.034   7.490  0.00  0.00     0.399 P 
HETATM   14  O   UNK N   1      31.469  16.719   6.133  0.00  0.00    -0.631 OA
BRANCH  13  15
HETATM   15  O   UNK N   1      32.880  15.303   6.371  0.00  0.00    -0.307 OA
HETATM   16  H   UNK N   1      32.868  15.076   5.428  0.00  0.00     0.222 HD
ENDBRANCH  13  15
BRANCH  13  17
HETATM   17  O   UNK N   1      31.910  17.733   7.818  0.00  0.00    -0.307 OA
HETATM   18  H   UNK N   1      32.298  18.098   8.628  0.00  0.00     0.222 HD
ENDBRANCH  13  17
ENDBRANCH  12  13
ENDBRANCH   8  12
ENDBRANCH   7   8
ENDBRANCH   6   7
ENDBRANCH   1   6
BRANCH   2  19
HETATM   19  O   UNK N   1      33.185  15.216  10.905  0.00  0.00    -0.390 OA
HETATM   20  H   UNK N   1      32.699  15.557  10.139  0.00  0.00     0.210 HD
ENDBRANCH   2  19
BRANCH   3  21
HETATM   21  O   UNK N   1      34.762  12.767  11.688  0.00  0.00    -0.388 OA
HETATM   22  H   UNK N   1      33.883  12.735  12.098  0.00  0.00     0.210 HD
ENDBRANCH   3  21
BRANCH   4  23
HETATM   23  N   UNK N   1      37.400  13.226  10.112  0.00  0.00    -0.280 N 
HETATM   24  C   UNK N   1      37.928  12.085  10.684  0.00  0.00     0.331 A 
HETATM   25  O   UNK N   1      37.718  11.827  11.859  0.00  0.00    -0.246 OA
HETATM   26  N   UNK N   1      38.711  11.241   9.944  0.00  0.00    -0.275 N 
HETATM   27  C   UNK N   1      38.986  11.513   8.631  0.00  0.00     0.250 A 
HETATM   28  H   UNK N   1      39.081  10.429  10.360  0.00  0.00     0.173 HD
HETATM   29  O   UNK N   1      39.684  10.753   7.986  0.00  0.00    -0.268 OA
HETATM   30  C   UNK N   1      38.470  12.659   8.039  0.00  0.00     0.092 A 
HETATM   31  C   UNK N   1      37.676  13.512   8.804  0.00  0.00     0.104 A 
ENDBRANCH   4  23
TORSDOF 11
ENDMDL
MODEL 7
REMARK VINA RESULT:      -5.8     10.004     13.003
REMARK  11 active torsions:
REMARK  status: ('A' for Active; 'I' for Inactive)
REMARK    1  A    between atoms: C_2  and  C_1 
REMARK    2  A    between atoms: C_1  and  O_19 
REMARK    3  A    between atoms: C_3  and  O_4 
REMARK    4  A    between atoms: C_5  and  O_6 
REMARK    5  A    between atoms: C_7  and  N_9 
REMARK    6  A    between atoms: P_17  and  O_19 
REMARK    7  A    between atoms: P_17  and  O_21 
REMARK    8  A    between atoms: P_17  and  O_22 
REMARK    9  A    between atoms: O_20  and  P_23 
REMARK   10  A    between atoms: O_22  and  P_23 
REMARK   11  A    between atoms: P_23  and  O_25 
ROOT
HETATM    1  C   UNK N   1      26.176  19.329   5.161  0.00  0.00     0.180 C 
HETATM    2  C   UNK N   1      26.580  20.119   3.928  0.00  0.00     0.182 C 
HETATM    3  C   UNK N   1      25.419  19.895   3.035  0.00  0.00     0.198 C 
HETATM    4  C   UNK N   1      24.307  19.971   4.060  0.00  0.00     0.263 C 
HETATM    5  O   UNK N   1      24.766  19.327   5.231  0.00  0.00    -0.353 OA
ENDROOT
BRANCH   1   6
HETATM    6  C   UNK N   1      26.670  17.897   5.138  0.00  0.00     0.215 C 
BRANCH   6   7
HETATM    7  O   UNK N   1      27.044  17.554   6.440  0.00  0.00    -0.294 OA
BRANCH   7   8
HETATM    8  P   UNK N   1      28.729  17.141   6.361  0.00  0.00     0.401 P 
HETATM    9  O   UNK N   1      29.418  18.130   5.382  0.00  0.00    -0.631 OA
BRANCH   8  10
HETATM   10  O   UNK N   1      27.946  16.776   4.851  0.00  0.00    -0.307 OA
HETATM   11  H   UNK N   1      27.213  17.276   4.460  0.00  0.00     0.222 HD
ENDBRANCH   8  10
BRANCH   8  12
HETATM   12  O   UNK N   1      28.519  18.661   7.198  0.00  0.00    -0.195 OA
BRANCH  12  13
HETATM   13  P   UNK N   1      28.912  18.321   8.864  0.00  0.00     0.399 P 
HETATM   14  O   UNK N   1      27.937  17.287   9.484  0.00  0.00    -0.631 OA
BRANCH  13  15
HETATM   15  O   UNK N   1      29.176  16.866   7.955  0.00  0.00    -0.307 OA
HETATM   16  H   UNK N   1      29.240  15.920   8.158  0.00  0.00     0.222 HD
ENDBRANCH  13  15
BRANCH  13  17
HETATM   17  O   UNK N   1      27.355  19.087   8.788  0.00  0.00    -0.307 OA
HETATM   18  H   UNK N   1      26.578  18.782   9.280  0.00  0.00     0.222 HD
ENDBRANCH  13  17
ENDBRANCH  12  13
ENDBRANCH   8  12
ENDBRANCH   7   8
ENDBRANCH   6   7
ENDBRANCH   1   6
BRANCH   2  19
HETATM   19  O   UNK N   1      27.776  19.678   3.351  0.00  0.00    -0.390 OA
HETATM   20  H   UNK N   1      28.581  20.086   2.995  0.00  0.00     0.210 HD
ENDBRANCH   2  19
BRANCH   3  21
HETATM   21  O   UNK N   1      25.331  20.920   2.094  0.00  0.00    -0.388 OA
HETATM   22  H   UNK N   1      26.085  21.134   1.522  0.00  0.00     0.210 HD
ENDBRANCH   3  21
BRANCH   4  23
HETATM   23  N   UNK N   1      23.062  19.376   3.550  0.00  0.00    -0.280 N 
HETATM   24  C   UNK N   1      22.135  20.149   2.878  0.00  0.00     0.331 A 
HETATM   25  O   UNK N   1      22.335  21.340   2.697  0.00  0.00    -0.246 OA
HETATM   26  N   UNK N   1      20.970  19.591   2.424  0.00  0.00    -0.275 N 
HETATM   27  C   UNK N   1      20.704  18.264   2.630  0.00  0.00     0.250 A 
HETATM   28  H   UNK N   1      20.317  20.149   1.944  0.00  0.00     0.173 HD
HETATM   29  O   UNK N   1      19.664  17.783   2.222  0.00  0.00    -0.268 OA
HETATM   30  C   UNK N   1      21.620  17.472   3.311  0.00  0.00     0.092 A 
HETATM   31  C   UNK N   1      22.801  18.052   3.771  0.00  0.00     0.104 A 
ENDBRANCH   4  23
TORSDOF 11
ENDMDL
MODEL 8
REMARK VINA RESULT:      -5.8      1.706      2.484
REMARK  11 active torsions:
REMARK  status: ('A' for Active; 'I' for Inactive)
REMARK    1  A    between atoms: C_2  and  C_1 
REMARK    2  A    between atoms: C_1  and  O_19 
REMARK    3  A    between atoms: C_3  and  O_4 
REMARK    4  A    between atoms: C_5  and  O_6 
REMARK    5  A    between atoms: C_7  and  N_9 
REMARK    6  A    between atoms: P_17  and  O_19 
REMARK    7  A    between atoms: P_17  and  O_21 
REMARK    8  A    between atoms: P_17  and  O_22 
REMARK    9  A    between atoms: O_20  and  P_23 
REMARK   10  A    between atoms: O_22  and  P_23 
REMARK   11  A    between atoms: P_23  and  O_25 
ROOT
HETATM    1  C   UNK N   1      34.605  15.016  10.793  0.00  0.00     0.180 C 
HETATM    2  C   UNK N   1      35.426  16.293  10.775  0.00  0.00     0.182 C 
HETATM    3  C   UNK N   1      35.089  16.847   9.443  0.00  0.00     0.198 C 
HETATM    4  C   UNK N   1      33.616  16.501   9.402  0.00  0.00     0.263 C 
HETATM    5  O   UNK N   1      33.466  15.222   9.985  0.00  0.00    -0.353 OA
ENDROOT
BRANCH   1   6
HETATM    6  C   UNK N   1      35.366  13.812  10.274  0.00  0.00     0.215 C 
BRANCH   6   7
HETATM    7  O   UNK N   1      36.272  13.421  11.265  0.00  0.00    -0.294 OA
BRANCH   7   8
HETATM    8  P   UNK N   1      35.342  12.560  12.450  0.00  0.00     0.401 P 
HETATM    9  O   UNK N   1      36.090  11.239  12.779  0.00  0.00    -0.631 OA
BRANCH   8  10
HETATM   10  O   UNK N   1      35.302  11.721  10.927  0.00  0.00    -0.307 OA
HETATM   11  H   UNK N   1      36.058  11.283  10.504  0.00  0.00     0.222 HD
ENDBRANCH   8  10
BRANCH   8  12
HETATM   12  O   UNK N   1      36.817  13.165  13.165  0.00  0.00    -0.195 OA
BRANCH  12  13
HETATM   13  P   UNK N   1      36.360  13.713  14.758  0.00  0.00     0.399 P 
HETATM   14  O   UNK N   1      37.541  14.404  15.488  0.00  0.00    -0.631 OA
BRANCH  13  15
HETATM   15  O   UNK N   1      36.709  15.117  13.800  0.00  0.00    -0.307 OA
HETATM   16  H   UNK N   1      37.129  15.978  13.953  0.00  0.00     0.222 HD
ENDBRANCH  13  15
BRANCH  13  17
HETATM   17  O   UNK N   1      37.569  12.475  14.904  0.00  0.00    -0.307 OA
HETATM   18  H   UNK N   1      37.896  12.135  15.751  0.00  0.00     0.222 HD
ENDBRANCH  13  17
ENDBRANCH  12  13
ENDBRANCH   8  12
ENDBRANCH   7   8
ENDBRANCH   6   7
ENDBRANCH   1   6
BRANCH   2  19
HETATM   19  O   UNK N   1      36.801  16.074  10.917  0.00  0.00    -0.390 OA
HETATM   20  H   UNK N   1      37.388  15.309  11.022  0.00  0.00     0.210 HD
ENDBRANCH   2  19
BRANCH   3  21
HETATM   21  O   UNK N   1      35.300  18.225   9.428  0.00  0.00    -0.388 OA
HETATM   22  H   UNK N   1      34.926  18.777   8.722  0.00  0.00     0.210 HD
ENDBRANCH   3  21
BRANCH   4  23
HETATM   23  N   UNK N   1      33.087  16.551   8.030  0.00  0.00    -0.280 N 
HETATM   24  C   UNK N   1      31.881  17.169   7.761  0.00  0.00     0.331 A 
HETATM   25  O   UNK N   1      31.234  17.682   8.661  0.00  0.00    -0.246 OA
HETATM   26  N   UNK N   1      31.388  17.194   6.485  0.00  0.00    -0.275 N 
HETATM   27  C   UNK N   1      32.076  16.608   5.457  0.00  0.00     0.250 A 
HETATM   28  H   UNK N   1      30.529  17.639   6.304  0.00  0.00     0.173 HD
HETATM   29  O   UNK N   1      31.624  16.638   4.328  0.00  0.00    -0.268 OA
HETATM   30  C   UNK N   1      33.287  15.975   5.708  0.00  0.00     0.092 A 
HETATM   31  C   UNK N   1      33.778  15.953   7.012  0.00  0.00     0.104 A 
ENDBRANCH   4  23
TORSDOF 11
ENDMDL
MODEL 9
REMARK VINA RESULT:      -5.7      3.629      7.372
REMARK  11 active torsions:
REMARK  status: ('A' for Active; 'I' for Inactive)
REMARK    1  A    between atoms: C_2  and  C_1 
REMARK    2  A    between atoms: C_1  and  O_19 
REMARK    3  A    between atoms: C_3  and  O_4 
REMARK    4  A    between atoms: C_5  and  O_6 
REMARK    5  A    between atoms: C_7  and  N_9 
REMARK    6  A    between atoms: P_17  and  O_19 
REMARK    7  A    between atoms: P_17  and  O_21 
REMARK    8  A    between atoms: P_17  and  O_22 
REMARK    9  A    between atoms: O_20  and  P_23 
REMARK   10  A    between atoms: O_22  and  P_23 
REMARK   11  A    between atoms: P_23  and  O_25 
ROOT
HETATM    1  C   UNK N   1      36.019  14.244   9.210  0.00  0.00     0.180 C 
HETATM    2  C   UNK N   1      37.407  14.156   9.819  0.00  0.00     0.182 C 
HETATM    3  C   UNK N   1      37.122  13.507  11.120  0.00  0.00     0.198 C 
HETATM    4  C   UNK N   1      36.066  12.519  10.673  0.00  0.00     0.263 C 
HETATM    5  O   UNK N   1      35.254  13.173   9.718  0.00  0.00    -0.353 OA
ENDROOT
BRANCH   1   6
HETATM    6  C   UNK N   1      35.313  15.547   9.526  0.00  0.00     0.215 C 
BRANCH   6   7
HETATM    7  O   UNK N   1      35.485  16.402   8.433  0.00  0.00    -0.294 OA
BRANCH   7   8
HETATM    8  P   UNK N   1      34.302  17.659   8.619  0.00  0.00     0.401 P 
HETATM    9  O   UNK N   1      35.027  19.025   8.470  0.00  0.00    -0.631 OA
BRANCH   8  10
HETATM   10  O   UNK N   1      35.392  17.651   9.975  0.00  0.00    -0.307 OA
HETATM   11  H   UNK N   1      36.276  17.252   9.986  0.00  0.00     0.222 HD
ENDBRANCH   8  10
BRANCH   8  12
HETATM   12  O   UNK N   1      34.848  17.585   6.960  0.00  0.00    -0.195 OA
BRANCH  12  13
HETATM   13  P   UNK N   1      33.428  17.174   6.031  0.00  0.00     0.399 P 
HETATM   14  O   UNK N   1      32.880  15.775   6.411  0.00  0.00    -0.631 OA
BRANCH  13  15
HETATM   15  O   UNK N   1      32.945  17.326   7.692  0.00  0.00    -0.307 OA
HETATM   16  H   UNK N   1      33.259  17.819   8.466  0.00  0.00     0.222 HD
ENDBRANCH  13  15
BRANCH  13  17
HETATM   17  O   UNK N   1      34.712  16.077   5.628  0.00  0.00    -0.307 OA
HETATM   18  H   UNK N   1      35.555  16.031   6.107  0.00  0.00     0.222 HD
ENDBRANCH  13  17
ENDBRANCH  12  13
ENDBRANCH   8  12
ENDBRANCH   7   8
ENDBRANCH   6   7
ENDBRANCH   1   6
BRANCH   2  19
HETATM   19  O   UNK N   1      38.026  15.400   9.980  0.00  0.00    -0.390 OA
HETATM   20  H   UNK N   1      37.762  16.290  10.264  0.00  0.00     0.210 HD
ENDBRANCH   2  19
BRANCH   3  21
HETATM   21  O   UNK N   1      38.265  12.866  11.598  0.00  0.00    -0.388 OA
HETATM   22  H   UNK N   1      39.127  13.312  11.584  0.00  0.00     0.210 HD
ENDBRANCH   3  21
BRANCH   4  23
HETATM   23  N   UNK N   1      35.285  12.011  11.811  0.00  0.00    -0.280 N 
HETATM   24  C   UNK N   1      34.519  10.868  11.686  0.00  0.00     0.331 A 
HETATM   25  O   UNK N   1      34.478  10.263  10.626  0.00  0.00    -0.246 OA
HETATM   26  N   UNK N   1      33.781  10.412  12.744  0.00  0.00    -0.275 N 
HETATM   27  C   UNK N   1      33.786  11.080  13.939  0.00  0.00     0.250 A 
HETATM   28  H   UNK N   1      33.241   9.596  12.645  0.00  0.00     0.173 HD
HETATM   29  O   UNK N   1      33.124  10.663  14.871  0.00  0.00    -0.268 OA
HETATM   30  C   UNK N   1      34.544  12.235  14.083  0.00  0.00     0.092 A 
HETATM   31  C   UNK N   1      35.289  12.691  12.997  0.00  0.00     0.104 A 
ENDBRANCH   4  23
TORSDOF 11
ENDMDL
