REMARK  11 active torsions:
REMARK  status: ('A' for Active; 'I' for Inactive)
REMARK    1  A    between atoms: C_2  and  C_1 
REMARK    2  A    between atoms: C_1  and  O_19 
REMARK    3  A    between atoms: C_3  and  O_4 
REMARK    4  A    between atoms: C_5  and  O_6 
REMARK    5  A    between atoms: C_7  and  N_9 
REMARK    6  A    between atoms: P_17  and  O_19 
REMARK    7  A    between atoms: P_17  and  O_21 
REMARK    8  A    between atoms: P_17  and  O_22 
REMARK    9  A    between atoms: O_20  and  P_23 
REMARK   10  A    between atoms: O_22  and  P_23 
REMARK   11  A    between atoms: P_23  and  O_25 
ROOT
HETATM    1  C   UNK N   1       1.348  -1.187  -1.029  0.00  0.00     0.180 C 
HETATM    2  C   UNK N   1       1.066  -2.518  -0.355  0.00  0.00     0.182 C 
HETATM    3  C   UNK N   1      -0.253  -2.263   0.271  0.00  0.00     0.198 C 
HETATM    4  C   UNK N   1      -0.891  -1.445  -0.832  0.00  0.00     0.263 C 
HETATM    5  O   UNK N   1       0.109  -0.599  -1.363  0.00  0.00    -0.353 OA
ENDROOT
BRANCH   1   6
HETATM    6  C   UNK N   1       2.127  -0.229  -0.150  0.00  0.00     0.215 C 
BRANCH   6   7
HETATM    7  O   UNK N   1       3.391  -0.057  -0.722  0.00  0.00    -0.294 OA
BRANCH   7   8
HETATM    8  P   UNK N   1       4.483   0.205   0.602  0.00  0.00     0.401 P 
HETATM    9  O   UNK N   1       5.915   0.351   0.020  0.00  0.00    -0.631 OA
BRANCH   8  10
HETATM   10  O   UNK N   1       4.757  -1.360  -0.106  0.00  0.00    -0.307 OA
HETATM   11  H   UNK N   1       4.077  -1.928  -0.501  0.00  0.00     0.222 HD
ENDBRANCH   8  10
BRANCH   8  12
HETATM   12  O   UNK N   1       4.325   1.664  -0.347  0.00  0.00    -0.195 OA
BRANCH  12  13
HETATM   13  P   UNK N   1       3.798   2.887   0.781  0.00  0.00     0.399 P 
HETATM   14  O   UNK N   1       3.615   4.263   0.091  0.00  0.00    -0.631 OA
BRANCH  13  15
HETATM   15  O   UNK N   1       2.516   2.639  -0.363  0.00  0.00    -0.307 OA
HETATM   16  H   UNK N   1       2.037   3.190  -1.002  0.00  0.00     0.222 HD
ENDBRANCH  13  15
BRANCH  13  17
HETATM   17  O   UNK N   1       5.380   3.295   0.193  0.00  0.00    -0.307 OA
HETATM   18  H   UNK N   1       6.019   2.644  -0.136  0.00  0.00     0.222 HD
ENDBRANCH  13  17
ENDBRANCH  12  13
ENDBRANCH   8  12
ENDBRANCH   7   8
ENDBRANCH   6   7
ENDBRANCH   1   6
BRANCH   2  19
HETATM   19  O   UNK N   1       2.031  -2.881   0.590  0.00  0.00    -0.390 OA
HETATM   20  H   UNK N   1       2.148  -3.586   1.246  0.00  0.00     0.210 HD
ENDBRANCH   2  19
BRANCH   3  21
HETATM   21  O   UNK N   1      -0.926  -3.466   0.482  0.00  0.00    -0.388 OA
HETATM   22  H   UNK N   1      -1.885  -3.479   0.629  0.00  0.00     0.210 HD
ENDBRANCH   3  21
BRANCH   4  23
HETATM   23  N   UNK N   1      -2.054  -0.690  -0.341  0.00  0.00    -0.280 N 
HETATM   24  C   UNK N   1      -3.257  -1.326  -0.101  0.00  0.00     0.331 A 
HETATM   25  O   UNK N   1      -3.373  -2.526  -0.295  0.00  0.00    -0.246 OA
HETATM   26  N   UNK N   1      -4.339  -0.612   0.338  0.00  0.00    -0.275 N 
HETATM   27  C   UNK N   1      -4.250   0.738   0.543  0.00  0.00     0.250 A 
HETATM   28  H   UNK N   1      -5.191  -1.075   0.508  0.00  0.00     0.173 HD
HETATM   29  O   UNK N   1      -5.221   1.359   0.932  0.00  0.00    -0.268 OA
HETATM   30  C   UNK N   1      -3.051   1.397   0.300  0.00  0.00     0.092 A 
HETATM   31  C   UNK N   1      -1.957   0.660  -0.149  0.00  0.00     0.104 A 
ENDBRANCH   4  23
TORSDOF 11
