MODEL 1
REMARK VINA RESULT:      -6.9      0.000      0.000
REMARK  14 active torsions:
REMARK  status: ('A' for Active; 'I' for Inactive)
REMARK    1  A    between atoms: C_2  and  C_1 
REMARK    2  A    between atoms: C_1  and  O_19 
REMARK    3  A    between atoms: C_3  and  O_4 
REMARK    4  A    between atoms: C_5  and  O_6 
REMARK    5  A    between atoms: C_7  and  N_9 
REMARK    6  A    between atoms: P_17  and  O_19 
REMARK    7  A    between atoms: P_17  and  O_21 
REMARK    8  A    between atoms: P_17  and  O_22 
REMARK    9  A    between atoms: O_20  and  P_27 
REMARK   10  A    between atoms: O_22  and  P_23 
REMARK   11  A    between atoms: P_23  and  O_25 
REMARK   12  A    between atoms: P_23  and  O_26 
REMARK   13  A    between atoms: O_26  and  P_27 
REMARK   14  A    between atoms: P_27  and  O_29 
ROOT
HETATM    1  C   UNK N   1      20.539  16.051   5.334  0.00  0.00     0.180 C 
HETATM    2  C   UNK N   1      21.861  16.709   5.669  0.00  0.00     0.182 C 
HETATM    3  C   UNK N   1      21.519  18.171   5.685  0.00  0.00     0.198 C 
HETATM    4  C   UNK N   1      20.340  18.214   4.712  0.00  0.00     0.263 C 
HETATM    5  O   UNK N   1      19.940  16.892   4.383  0.00  0.00    -0.353 OA
ENDROOT
BRANCH   1   6
HETATM    6  C   UNK N   1      19.598  15.901   6.528  0.00  0.00     0.215 C 
BRANCH   6   7
HETATM    7  O   UNK N   1      19.974  14.782   7.273  0.00  0.00    -0.294 OA
BRANCH   7   8
HETATM    8  P   UNK N   1      19.773  15.242   8.937  0.00  0.00     0.401 P 
HETATM    9  O   UNK N   1      20.610  16.529   9.172  0.00  0.00    -0.631 OA
BRANCH   8  10
HETATM   10  O   UNK N   1      19.063  16.414   7.867  0.00  0.00    -0.307 OA
HETATM   11  H   UNK N   1      18.376  16.144   7.237  0.00  0.00     0.222 HD
ENDBRANCH   8  10
BRANCH   8  12
HETATM   12  O   UNK N   1      21.399  14.612   8.749  0.00  0.00    -0.195 OA
BRANCH  12  13
HETATM   13  P   UNK N   1      21.351  12.954   9.317  0.00  0.00     0.410 P 
HETATM   14  O   UNK N   1      21.126  12.943  10.855  0.00  0.00    -0.631 OA
BRANCH  13  15
HETATM   15  O   UNK N   1      19.821  13.700   9.658  0.00  0.00    -0.307 OA
HETATM   16  H   UNK N   1      19.635  14.498  10.175  0.00  0.00     0.222 HD
ENDBRANCH  13  15
BRANCH  13  17
HETATM   17  O   UNK N   1      22.868  13.584   9.930  0.00  0.00    -0.195 OA
BRANCH  17  18
HETATM   18  P   UNK N   1      23.864  12.216  10.415  0.00  0.00     0.399 P 
HETATM   19  O   UNK N   1      24.474  11.625   9.115  0.00  0.00    -0.631 OA
BRANCH  18  20
HETATM   20  O   UNK N   1      22.933  10.939  11.134  0.00  0.00    -0.307 OA
HETATM   21  H   UNK N   1      22.377  10.344  10.608  0.00  0.00     0.222 HD
ENDBRANCH  18  20
BRANCH  18  22
HETATM   22  O   UNK N   1      25.211  12.643  11.429  0.00  0.00    -0.307 OA
HETATM   23  H   UNK N   1      26.052  12.266  11.731  0.00  0.00     0.222 HD
ENDBRANCH  18  22
ENDBRANCH  17  18
ENDBRANCH  13  17
ENDBRANCH  12  13
ENDBRANCH   8  12
ENDBRANCH   7   8
ENDBRANCH   6   7
ENDBRANCH   1   6
BRANCH   2  24
HETATM   24  O   UNK N   1      22.430  16.263   6.866  0.00  0.00    -0.390 OA
HETATM   25  H   UNK N   1      21.917  16.137   7.680  0.00  0.00     0.210 HD
ENDBRANCH   2  24
BRANCH   3  26
HETATM   26  O   UNK N   1      21.059  18.556   6.947  0.00  0.00    -0.388 OA
HETATM   27  H   UNK N   1      20.219  18.918   7.267  0.00  0.00     0.210 HD
ENDBRANCH   3  26
BRANCH   4  28
HETATM   28  N   UNK N   1      20.641  19.012   3.515  0.00  0.00    -0.280 N 
HETATM   29  C   UNK N   1      19.680  19.195   2.538  0.00  0.00     0.331 A 
HETATM   30  O   UNK N   1      18.563  18.722   2.671  0.00  0.00    -0.246 OA
HETATM   31  N   UNK N   1      19.979  19.897   1.402  0.00  0.00    -0.275 N 
HETATM   32  C   UNK N   1      21.226  20.424   1.213  0.00  0.00     0.250 A 
HETATM   33  H   UNK N   1      19.288  20.025   0.714  0.00  0.00     0.173 HD
HETATM   34  O   UNK N   1      21.480  21.038   0.194  0.00  0.00    -0.268 OA
HETATM   35  C   UNK N   1      22.206  20.253   2.186  0.00  0.00     0.092 A 
HETATM   36  C   UNK N   1      21.890  19.536   3.338  0.00  0.00     0.104 A 
ENDBRANCH   4  28
TORSDOF 14
ENDMDL
MODEL 2
REMARK VINA RESULT:      -6.7      4.664      9.179
REMARK  14 active torsions:
REMARK  status: ('A' for Active; 'I' for Inactive)
REMARK    1  A    between atoms: C_2  and  C_1 
REMARK    2  A    between atoms: C_1  and  O_19 
REMARK    3  A    between atoms: C_3  and  O_4 
REMARK    4  A    between atoms: C_5  and  O_6 
REMARK    5  A    between atoms: C_7  and  N_9 
REMARK    6  A    between atoms: P_17  and  O_19 
REMARK    7  A    between atoms: P_17  and  O_21 
REMARK    8  A    between atoms: P_17  and  O_22 
REMARK    9  A    between atoms: O_20  and  P_27 
REMARK   10  A    between atoms: O_22  and  P_23 
REMARK   11  A    between atoms: P_23  and  O_25 
REMARK   12  A    between atoms: P_23  and  O_26 
REMARK   13  A    between atoms: O_26  and  P_27 
REMARK   14  A    between atoms: P_27  and  O_29 
ROOT
HETATM    1  C   UNK N   1      22.341  14.644   6.516  0.00  0.00     0.180 C 
HETATM    2  C   UNK N   1      22.628  13.193   6.195  0.00  0.00     0.182 C 
HETATM    3  C   UNK N   1      21.659  12.452   7.071  0.00  0.00     0.198 C 
HETATM    4  C   UNK N   1      21.482  13.441   8.224  0.00  0.00     0.263 C 
HETATM    5  O   UNK N   1      22.104  14.675   7.899  0.00  0.00    -0.353 OA
ENDROOT
BRANCH   1   6
HETATM    6  C   UNK N   1      21.124  15.214   5.791  0.00  0.00     0.215 C 
BRANCH   6   7
HETATM    7  O   UNK N   1      21.417  15.344   4.432  0.00  0.00    -0.294 OA
BRANCH   7   8
HETATM    8  P   UNK N   1      19.888  15.619   3.650  0.00  0.00     0.401 P 
HETATM    9  O   UNK N   1      20.043  15.210   2.160  0.00  0.00    -0.631 OA
BRANCH   8  10
HETATM   10  O   UNK N   1      20.272  13.924   3.711  0.00  0.00    -0.307 OA
HETATM   11  H   UNK N   1      20.979  13.566   3.152  0.00  0.00     0.222 HD
ENDBRANCH   8  10
BRANCH   8  12
HETATM   12  O   UNK N   1      21.005  16.849   3.089  0.00  0.00    -0.195 OA
BRANCH  12  13
HETATM   13  P   UNK N   1      20.285  18.392   3.509  0.00  0.00     0.410 P 
HETATM   14  O   UNK N   1      19.012  18.619   2.648  0.00  0.00    -0.631 OA
BRANCH  13  15
HETATM   15  O   UNK N   1      19.145  17.134   3.866  0.00  0.00    -0.307 OA
HETATM   16  H   UNK N   1      18.177  17.157   3.819  0.00  0.00     0.222 HD
ENDBRANCH  13  15
BRANCH  13  17
HETATM   17  O   UNK N   1      20.949  18.641   1.906  0.00  0.00    -0.195 OA
BRANCH  17  18
HETATM   18  P   UNK N   1      21.205  20.368   1.689  0.00  0.00     0.399 P 
HETATM   19  O   UNK N   1      22.734  20.611   1.805  0.00  0.00    -0.631 OA
BRANCH  18  20
HETATM   20  O   UNK N   1      20.470  21.312   2.947  0.00  0.00    -0.307 OA
HETATM   21  H   UNK N   1      20.628  21.134   3.887  0.00  0.00     0.222 HD
ENDBRANCH  18  20
BRANCH  18  22
HETATM   22  O   UNK N   1      20.742  20.963   0.121  0.00  0.00    -0.307 OA
HETATM   23  H   UNK N   1      20.081  21.552  -0.276  0.00  0.00     0.222 HD
ENDBRANCH  18  22
ENDBRANCH  17  18
ENDBRANCH  13  17
ENDBRANCH  12  13
ENDBRANCH   8  12
ENDBRANCH   7   8
ENDBRANCH   6   7
ENDBRANCH   1   6
BRANCH   2  24
HETATM   24  O   UNK N   1      22.499  12.875   4.839  0.00  0.00    -0.390 OA
HETATM   25  H   UNK N   1      21.750  12.369   4.485  0.00  0.00     0.210 HD
ENDBRANCH   2  24
BRANCH   3  26
HETATM   26  O   UNK N   1      20.427  12.304   6.429  0.00  0.00    -0.388 OA
HETATM   27  H   UNK N   1      19.971  12.810   5.739  0.00  0.00     0.210 HD
ENDBRANCH   3  26
BRANCH   4  28
HETATM   28  N   UNK N   1      21.972  12.895   9.498  0.00  0.00    -0.280 N 
HETATM   29  C   UNK N   1      21.095  12.663  10.542  0.00  0.00     0.331 A 
HETATM   30  O   UNK N   1      19.901  12.879  10.409  0.00  0.00    -0.246 OA
HETATM   31  N   UNK N   1      21.562  12.202  11.742  0.00  0.00    -0.275 N 
HETATM   32  C   UNK N   1      22.896  11.967  11.931  0.00  0.00     0.250 A 
HETATM   33  H   UNK N   1      20.930  12.036  12.479  0.00  0.00     0.173 HD
HETATM   34  O   UNK N   1      23.297  11.566  13.007  0.00  0.00    -0.268 OA
HETATM   35  C   UNK N   1      23.793  12.192  10.893  0.00  0.00     0.092 A 
HETATM   36  C   UNK N   1      23.306  12.663   9.675  0.00  0.00     0.104 A 
ENDBRANCH   4  28
TORSDOF 14
ENDMDL
MODEL 3
REMARK VINA RESULT:      -6.6      9.678     11.877
REMARK  14 active torsions:
REMARK  status: ('A' for Active; 'I' for Inactive)
REMARK    1  A    between atoms: C_2  and  C_1 
REMARK    2  A    between atoms: C_1  and  O_19 
REMARK    3  A    between atoms: C_3  and  O_4 
REMARK    4  A    between atoms: C_5  and  O_6 
REMARK    5  A    between atoms: C_7  and  N_9 
REMARK    6  A    between atoms: P_17  and  O_19 
REMARK    7  A    between atoms: P_17  and  O_21 
REMARK    8  A    between atoms: P_17  and  O_22 
REMARK    9  A    between atoms: O_20  and  P_27 
REMARK   10  A    between atoms: O_22  and  P_23 
REMARK   11  A    between atoms: P_23  and  O_25 
REMARK   12  A    between atoms: P_23  and  O_26 
REMARK   13  A    between atoms: O_26  and  P_27 
REMARK   14  A    between atoms: P_27  and  O_29 
ROOT
HETATM    1  C   UNK N   1      32.059  16.781   6.936  0.00  0.00     0.180 C 
HETATM    2  C   UNK N   1      32.072  17.834   8.024  0.00  0.00     0.182 C 
HETATM    3  C   UNK N   1      30.680  17.762   8.583  0.00  0.00     0.198 C 
HETATM    4  C   UNK N   1      29.895  17.262   7.371  0.00  0.00     0.263 C 
HETATM    5  O   UNK N   1      30.794  16.885   6.338  0.00  0.00    -0.353 OA
ENDROOT
BRANCH   1   6
HETATM    6  C   UNK N   1      32.251  15.354   7.448  0.00  0.00     0.215 C 
BRANCH   6   7
HETATM    7  O   UNK N   1      33.616  15.083   7.556  0.00  0.00    -0.294 OA
BRANCH   7   8
HETATM    8  P   UNK N   1      33.793  14.156   9.015  0.00  0.00     0.401 P 
HETATM    9  O   UNK N   1      33.066  14.926  10.151  0.00  0.00    -0.631 OA
BRANCH   8  10
HETATM   10  O   UNK N   1      32.134  14.212   8.499  0.00  0.00    -0.307 OA
HETATM   11  H   UNK N   1      31.694  13.404   8.189  0.00  0.00     0.222 HD
ENDBRANCH   8  10
BRANCH   8  12
HETATM   12  O   UNK N   1      34.816  15.574   9.155  0.00  0.00    -0.195 OA
BRANCH  12  13
HETATM   13  P   UNK N   1      35.497  15.528  10.771  0.00  0.00     0.410 P 
HETATM   14  O   UNK N   1      36.973  16.010  10.721  0.00  0.00    -0.631 OA
BRANCH  13  15
HETATM   15  O   UNK N   1      35.525  17.169  10.205  0.00  0.00    -0.307 OA
HETATM   16  H   UNK N   1      35.583  17.989  10.718  0.00  0.00     0.222 HD
ENDBRANCH  13  15
BRANCH  13  17
HETATM   17  O   UNK N   1      36.298  14.221   9.920  0.00  0.00    -0.195 OA
BRANCH  17  18
HETATM   18  P   UNK N   1      37.296  13.353  11.081  0.00  0.00     0.399 P 
HETATM   19  O   UNK N   1      36.899  11.855  10.979  0.00  0.00    -0.631 OA
BRANCH  18  20
HETATM   20  O   UNK N   1      36.975  13.826  12.719  0.00  0.00    -0.307 OA
HETATM   21  H   UNK N   1      36.095  14.107  13.014  0.00  0.00     0.222 HD
ENDBRANCH  18  20
BRANCH  18  22
HETATM   22  O   UNK N   1      39.001  13.421  10.742  0.00  0.00    -0.307 OA
HETATM   23  H   UNK N   1      39.715  12.838  10.439  0.00  0.00     0.222 HD
ENDBRANCH  18  22
ENDBRANCH  17  18
ENDBRANCH  13  17
ENDBRANCH  12  13
ENDBRANCH   8  12
ENDBRANCH   7   8
ENDBRANCH   6   7
ENDBRANCH   1   6
BRANCH   2  24
HETATM   24  O   UNK N   1      33.065  17.641   8.990  0.00  0.00    -0.390 OA
HETATM   25  H   UNK N   1      32.944  17.067   9.763  0.00  0.00     0.210 HD
ENDBRANCH   2  24
BRANCH   3  26
HETATM   26  O   UNK N   1      30.601  16.792   9.586  0.00  0.00    -0.388 OA
HETATM   27  H   UNK N   1      29.882  16.232   9.915  0.00  0.00     0.210 HD
ENDBRANCH   3  26
BRANCH   4  28
HETATM   28  N   UNK N   1      28.907  18.248   6.908  0.00  0.00    -0.280 N 
HETATM   29  C   UNK N   1      28.081  18.886   7.815  0.00  0.00     0.331 A 
HETATM   30  O   UNK N   1      28.179  18.660   9.010  0.00  0.00    -0.246 OA
HETATM   31  N   UNK N   1      27.129  19.766   7.376  0.00  0.00    -0.275 N 
HETATM   32  C   UNK N   1      26.979  20.027   6.042  0.00  0.00     0.250 A 
HETATM   33  H   UNK N   1      26.547  20.218   8.029  0.00  0.00     0.173 HD
HETATM   34  O   UNK N   1      26.122  20.805   5.667  0.00  0.00    -0.268 OA
HETATM   35  C   UNK N   1      27.803  19.398   5.116  0.00  0.00     0.092 A 
HETATM   36  C   UNK N   1      28.767  18.502   5.574  0.00  0.00     0.104 A 
ENDBRANCH   4  28
TORSDOF 14
ENDMDL
MODEL 4
REMARK VINA RESULT:      -6.6     15.552     18.091
REMARK  14 active torsions:
REMARK  status: ('A' for Active; 'I' for Inactive)
REMARK    1  A    between atoms: C_2  and  C_1 
REMARK    2  A    between atoms: C_1  and  O_19 
REMARK    3  A    between atoms: C_3  and  O_4 
REMARK    4  A    between atoms: C_5  and  O_6 
REMARK    5  A    between atoms: C_7  and  N_9 
REMARK    6  A    between atoms: P_17  and  O_19 
REMARK    7  A    between atoms: P_17  and  O_21 
REMARK    8  A    between atoms: P_17  and  O_22 
REMARK    9  A    between atoms: O_20  and  P_27 
REMARK   10  A    between atoms: O_22  and  P_23 
REMARK   11  A    between atoms: P_23  and  O_25 
REMARK   12  A    between atoms: P_23  and  O_26 
REMARK   13  A    between atoms: O_26  and  P_27 
REMARK   14  A    between atoms: P_27  and  O_29 
ROOT
HETATM    1  C   UNK N   1      34.914  12.929  13.103  0.00  0.00     0.180 C 
HETATM    2  C   UNK N   1      36.092  13.817  13.443  0.00  0.00     0.182 C 
HETATM    3  C   UNK N   1      36.864  12.994  14.434  0.00  0.00     0.198 C 
HETATM    4  C   UNK N   1      35.752  12.144  15.049  0.00  0.00     0.263 C 
HETATM    5  O   UNK N   1      34.549  12.321  14.314  0.00  0.00    -0.353 OA
ENDROOT
BRANCH   1   6
HETATM    6  C   UNK N   1      35.229  11.842  12.077  0.00  0.00     0.215 C 
BRANCH   6   7
HETATM    7  O   UNK N   1      35.010  12.343  10.793  0.00  0.00    -0.294 OA
BRANCH   7   8
HETATM    8  P   UNK N   1      36.337  11.763   9.833  0.00  0.00     0.401 P 
HETATM    9  O   UNK N   1      37.649  12.277  10.487  0.00  0.00    -0.631 OA
BRANCH   8  10
HETATM   10  O   UNK N   1      36.337  11.040  11.415  0.00  0.00    -0.307 OA
HETATM   11  H   UNK N   1      36.108  10.104  11.521  0.00  0.00     0.222 HD
ENDBRANCH   8  10
BRANCH   8  12
HETATM   12  O   UNK N   1      36.188  13.488   9.552  0.00  0.00    -0.195 OA
BRANCH  12  13
HETATM   13  P   UNK N   1      34.770  13.698   8.540  0.00  0.00     0.410 P 
HETATM   14  O   UNK N   1      35.212  13.834   7.057  0.00  0.00    -0.631 OA
BRANCH  13  15
HETATM   15  O   UNK N   1      35.576  12.236   8.067  0.00  0.00    -0.307 OA
HETATM   16  H   UNK N   1      36.460  12.123   7.685  0.00  0.00     0.222 HD
ENDBRANCH  13  15
BRANCH  13  17
HETATM   17  O   UNK N   1      35.560  15.263   8.519  0.00  0.00    -0.195 OA
BRANCH  17  18
HETATM   18  P   UNK N   1      34.981  16.178   9.907  0.00  0.00     0.399 P 
HETATM   19  O   UNK N   1      36.239  16.641  10.692  0.00  0.00    -0.631 OA
BRANCH  18  20
HETATM   20  O   UNK N   1      34.058  15.204  11.007  0.00  0.00    -0.307 OA
HETATM   21  H   UNK N   1      33.222  14.784  10.751  0.00  0.00     0.222 HD
ENDBRANCH  18  20
BRANCH  18  22
HETATM   22  O   UNK N   1      34.115  17.628   9.489  0.00  0.00    -0.307 OA
HETATM   23  H   UNK N   1      33.753  18.418   9.921  0.00  0.00     0.222 HD
ENDBRANCH  18  22
ENDBRANCH  17  18
ENDBRANCH  13  17
ENDBRANCH  12  13
ENDBRANCH   8  12
ENDBRANCH   7   8
ENDBRANCH   6   7
ENDBRANCH   1   6
BRANCH   2  24
HETATM   24  O   UNK N   1      36.853  14.201  12.334  0.00  0.00    -0.390 OA
HETATM   25  H   UNK N   1      36.546  14.089  11.421  0.00  0.00     0.210 HD
ENDBRANCH   2  24
BRANCH   3  26
HETATM   26  O   UNK N   1      37.755  12.140  13.778  0.00  0.00    -0.388 OA
HETATM   27  H   UNK N   1      38.722  12.064  13.773  0.00  0.00     0.210 HD
ENDBRANCH   3  26
BRANCH   4  28
HETATM   28  N   UNK N   1      35.569  12.426  16.480  0.00  0.00    -0.280 N 
HETATM   29  C   UNK N   1      35.434  11.388  17.384  0.00  0.00     0.331 A 
HETATM   30  O   UNK N   1      35.493  10.227  17.010  0.00  0.00    -0.246 OA
HETATM   31  N   UNK N   1      35.215  11.654  18.708  0.00  0.00    -0.275 N 
HETATM   32  C   UNK N   1      35.124  12.942  19.158  0.00  0.00     0.250 A 
HETATM   33  H   UNK N   1      35.123  10.909  19.345  0.00  0.00     0.173 HD
HETATM   34  O   UNK N   1      34.920  13.163  20.336  0.00  0.00    -0.268 OA
HETATM   35  C   UNK N   1      35.260  13.999  18.264  0.00  0.00     0.092 A 
HETATM   36  C   UNK N   1      35.482  13.716  16.918  0.00  0.00     0.104 A 
ENDBRANCH   4  28
TORSDOF 14
ENDMDL
MODEL 5
REMARK VINA RESULT:      -6.5     12.282     15.273
REMARK  14 active torsions:
REMARK  status: ('A' for Active; 'I' for Inactive)
REMARK    1  A    between atoms: C_2  and  C_1 
REMARK    2  A    between atoms: C_1  and  O_19 
REMARK    3  A    between atoms: C_3  and  O_4 
REMARK    4  A    between atoms: C_5  and  O_6 
REMARK    5  A    between atoms: C_7  and  N_9 
REMARK    6  A    between atoms: P_17  and  O_19 
REMARK    7  A    between atoms: P_17  and  O_21 
REMARK    8  A    between atoms: P_17  and  O_22 
REMARK    9  A    between atoms: O_20  and  P_27 
REMARK   10  A    between atoms: O_22  and  P_23 
REMARK   11  A    between atoms: P_23  and  O_25 
REMARK   12  A    between atoms: P_23  and  O_26 
REMARK   13  A    between atoms: O_26  and  P_27 
REMARK   14  A    between atoms: P_27  and  O_29 
ROOT
HETATM    1  C   UNK N   1      35.036  13.928  11.753  0.00  0.00     0.180 C 
HETATM    2  C   UNK N   1      36.021  13.820  10.607  0.00  0.00     0.182 C 
HETATM    3  C   UNK N   1      36.155  15.240  10.138  0.00  0.00     0.198 C 
HETATM    4  C   UNK N   1      34.796  15.816  10.536  0.00  0.00     0.263 C 
HETATM    5  O   UNK N   1      34.092  14.879  11.337  0.00  0.00    -0.353 OA
ENDROOT
BRANCH   1   6
HETATM    6  C   UNK N   1      35.661  14.391  13.068  0.00  0.00     0.215 C 
BRANCH   6   7
HETATM    7  O   UNK N   1      35.128  13.642  14.119  0.00  0.00    -0.294 OA
BRANCH   7   8
HETATM    8  P   UNK N   1      36.492  12.909  14.908  0.00  0.00     0.401 P 
HETATM    9  O   UNK N   1      37.433  12.357  13.802  0.00  0.00    -0.631 OA
BRANCH   8  10
HETATM   10  O   UNK N   1      36.965  14.319  14.007  0.00  0.00    -0.307 OA
HETATM   11  H   UNK N   1      37.195  15.139  14.473  0.00  0.00     0.222 HD
ENDBRANCH   8  10
BRANCH   8  12
HETATM   12  O   UNK N   1      35.501  11.621  14.249  0.00  0.00    -0.195 OA
BRANCH  12  13
HETATM   13  P   UNK N   1      35.011  10.634  15.613  0.00  0.00     0.410 P 
HETATM   14  O   UNK N   1      36.274  10.134  16.367  0.00  0.00    -0.631 OA
BRANCH  13  15
HETATM   15  O   UNK N   1      35.880  12.012  16.211  0.00  0.00    -0.307 OA
HETATM   16  H   UNK N   1      36.237  12.767  15.720  0.00  0.00     0.222 HD
ENDBRANCH  13  15
BRANCH  13  17
HETATM   17  O   UNK N   1      35.708   9.496  14.476  0.00  0.00    -0.195 OA
BRANCH  17  18
HETATM   18  P   UNK N   1      34.933   9.748  12.916  0.00  0.00     0.399 P 
HETATM   19  O   UNK N   1      34.686   8.340  12.309  0.00  0.00    -0.631 OA
BRANCH  18  20
HETATM   20  O   UNK N   1      35.959  10.584  11.793  0.00  0.00    -0.307 OA
HETATM   21  H   UNK N   1      36.223  11.508  11.920  0.00  0.00     0.222 HD
ENDBRANCH  18  20
BRANCH  18  22
HETATM   22  O   UNK N   1      33.373  10.511  13.013  0.00  0.00    -0.307 OA
HETATM   23  H   UNK N   1      32.993  11.401  13.086  0.00  0.00     0.222 HD
ENDBRANCH  18  22
ENDBRANCH  17  18
ENDBRANCH  13  17
ENDBRANCH  12  13
ENDBRANCH   8  12
ENDBRANCH   7   8
ENDBRANCH   6   7
ENDBRANCH   1   6
BRANCH   2  24
HETATM   24  O   UNK N   1      37.243  13.239  10.962  0.00  0.00    -0.390 OA
HETATM   25  H   UNK N   1      37.675  12.553  10.428  0.00  0.00     0.210 HD
ENDBRANCH   2  24
BRANCH   3  26
HETATM   26  O   UNK N   1      37.144  15.908  10.864  0.00  0.00    -0.388 OA
HETATM   27  H   UNK N   1      37.204  16.213  11.782  0.00  0.00     0.210 HD
ENDBRANCH   3  26
BRANCH   4  28
HETATM   28  N   UNK N   1      34.012  16.239   9.366  0.00  0.00    -0.280 N 
HETATM   29  C   UNK N   1      34.259  17.460   8.765  0.00  0.00     0.331 A 
HETATM   30  O   UNK N   1      35.148  18.187   9.178  0.00  0.00    -0.246 OA
HETATM   31  N   UNK N   1      33.495  17.872   7.707  0.00  0.00    -0.275 N 
HETATM   32  C   UNK N   1      32.479  17.091   7.231  0.00  0.00     0.250 A 
HETATM   33  H   UNK N   1      33.679  18.741   7.283  0.00  0.00     0.173 HD
HETATM   34  O   UNK N   1      31.803  17.475   6.295  0.00  0.00    -0.268 OA
HETATM   35  C   UNK N   1      32.218  15.859   7.820  0.00  0.00     0.092 A 
HETATM   36  C   UNK N   1      33.001  15.450   8.897  0.00  0.00     0.104 A 
ENDBRANCH   4  28
TORSDOF 14
ENDMDL
MODEL 6
REMARK VINA RESULT:      -6.4     12.235     15.100
REMARK  14 active torsions:
REMARK  status: ('A' for Active; 'I' for Inactive)
REMARK    1  A    between atoms: C_2  and  C_1 
REMARK    2  A    between atoms: C_1  and  O_19 
REMARK    3  A    between atoms: C_3  and  O_4 
REMARK    4  A    between atoms: C_5  and  O_6 
REMARK    5  A    between atoms: C_7  and  N_9 
REMARK    6  A    between atoms: P_17  and  O_19 
REMARK    7  A    between atoms: P_17  and  O_21 
REMARK    8  A    between atoms: P_17  and  O_22 
REMARK    9  A    between atoms: O_20  and  P_27 
REMARK   10  A    between atoms: O_22  and  P_23 
REMARK   11  A    between atoms: P_23  and  O_25 
REMARK   12  A    between atoms: P_23  and  O_26 
REMARK   13  A    between atoms: O_26  and  P_27 
REMARK   14  A    between atoms: P_27  and  O_29 
ROOT
HETATM    1  C   UNK N   1      33.813  14.739   8.670  0.00  0.00     0.180 C 
HETATM    2  C   UNK N   1      33.437  15.700   9.778  0.00  0.00     0.182 C 
HETATM    3  C   UNK N   1      34.767  16.085  10.360  0.00  0.00     0.198 C 
HETATM    4  C   UNK N   1      35.603  14.844  10.044  0.00  0.00     0.263 C 
HETATM    5  O   UNK N   1      34.874  13.980   9.185  0.00  0.00    -0.353 OA
ENDROOT
BRANCH   1   6
HETATM    6  C   UNK N   1      34.270  15.423   7.382  0.00  0.00     0.215 C 
BRANCH   6   7
HETATM    7  O   UNK N   1      33.157  15.697   6.586  0.00  0.00    -0.294 OA
BRANCH   7   8
HETATM    8  P   UNK N   1      33.533  17.175   5.752  0.00  0.00     0.401 P 
HETATM    9  O   UNK N   1      34.221  18.125   6.770  0.00  0.00    -0.631 OA
BRANCH   8  10
HETATM   10  O   UNK N   1      34.977  16.327   6.219  0.00  0.00    -0.307 OA
HETATM   11  H   UNK N   1      35.809  16.487   5.745  0.00  0.00     0.222 HD
ENDBRANCH   8  10
BRANCH   8  12
HETATM   12  O   UNK N   1      32.201  17.501   6.846  0.00  0.00    -0.195 OA
BRANCH  12  13
HETATM   13  P   UNK N   1      30.790  16.732   6.143  0.00  0.00     0.410 P 
HETATM   14  O   UNK N   1      29.878  17.814   5.503  0.00  0.00    -0.631 OA
BRANCH  13  15
HETATM   15  O   UNK N   1      31.676  17.524   4.878  0.00  0.00    -0.307 OA
HETATM   16  H   UNK N   1      31.341  18.047   4.134  0.00  0.00     0.222 HD
ENDBRANCH  13  15
BRANCH  13  17
HETATM   17  O   UNK N   1      30.172  17.586   7.543  0.00  0.00    -0.195 OA
BRANCH  17  18
HETATM   18  P   UNK N   1      28.416  17.465   7.517  0.00  0.00     0.399 P 
HETATM   19  O   UNK N   1      27.969  17.152   8.971  0.00  0.00    -0.631 OA
BRANCH  18  20
HETATM   20  O   UNK N   1      27.856  16.141   6.545  0.00  0.00    -0.307 OA
HETATM   21  H   UNK N   1      28.394  15.351   6.386  0.00  0.00     0.222 HD
ENDBRANCH  18  20
BRANCH  18  22
HETATM   22  O   UNK N   1      27.609  18.941   7.073  0.00  0.00    -0.307 OA
HETATM   23  H   UNK N   1      26.722  19.250   6.832  0.00  0.00     0.222 HD
ENDBRANCH  18  22
ENDBRANCH  17  18
ENDBRANCH  13  17
ENDBRANCH  12  13
ENDBRANCH   8  12
ENDBRANCH   7   8
ENDBRANCH   6   7
ENDBRANCH   1   6
BRANCH   2  24
HETATM   24  O   UNK N   1      32.685  16.798   9.348  0.00  0.00    -0.390 OA
HETATM   25  H   UNK N   1      32.652  17.084   8.421  0.00  0.00     0.210 HD
ENDBRANCH   2  24
BRANCH   3  26
HETATM   26  O   UNK N   1      35.313  17.169   9.668  0.00  0.00    -0.388 OA
HETATM   27  H   UNK N   1      35.342  18.123   9.840  0.00  0.00     0.210 HD
ENDBRANCH   3  26
BRANCH   4  28
HETATM   28  N   UNK N   1      36.054  14.158  11.263  0.00  0.00    -0.280 N 
HETATM   29  C   UNK N   1      37.227  13.425  11.258  0.00  0.00     0.331 A 
HETATM   30  O   UNK N   1      37.915  13.362  10.252  0.00  0.00    -0.246 OA
HETATM   31  N   UNK N   1      37.618  12.746  12.380  0.00  0.00    -0.275 N 
HETATM   32  C   UNK N   1      36.860  12.779  13.518  0.00  0.00     0.250 A 
HETATM   33  H   UNK N   1      38.456  12.229  12.368  0.00  0.00     0.173 HD
HETATM   34  O   UNK N   1      37.217  12.163  14.504  0.00  0.00    -0.268 OA
HETATM   35  C   UNK N   1      35.680  13.513  13.543  0.00  0.00     0.092 A 
HETATM   36  C   UNK N   1      35.290  14.199  12.394  0.00  0.00     0.104 A 
ENDBRANCH   4  28
TORSDOF 14
ENDMDL
MODEL 7
REMARK VINA RESULT:      -6.4     13.161     16.286
REMARK  14 active torsions:
REMARK  status: ('A' for Active; 'I' for Inactive)
REMARK    1  A    between atoms: C_2  and  C_1 
REMARK    2  A    between atoms: C_1  and  O_19 
REMARK    3  A    between atoms: C_3  and  O_4 
REMARK    4  A    between atoms: C_5  and  O_6 
REMARK    5  A    between atoms: C_7  and  N_9 
REMARK    6  A    between atoms: P_17  and  O_19 
REMARK    7  A    between atoms: P_17  and  O_21 
REMARK    8  A    between atoms: P_17  and  O_22 
REMARK    9  A    between atoms: O_20  and  P_27 
REMARK   10  A    between atoms: O_22  and  P_23 
REMARK   11  A    between atoms: P_23  and  O_25 
REMARK   12  A    between atoms: P_23  and  O_26 
REMARK   13  A    between atoms: O_26  and  P_27 
REMARK   14  A    between atoms: P_27  and  O_29 
ROOT
HETATM    1  C   UNK N   1      34.717  14.812  11.289  0.00  0.00     0.180 C 
HETATM    2  C   UNK N   1      35.985  15.404  11.867  0.00  0.00     0.182 C 
HETATM    3  C   UNK N   1      36.711  14.201  12.396  0.00  0.00     0.198 C 
HETATM    4  C   UNK N   1      35.547  13.259  12.703  0.00  0.00     0.263 C 
HETATM    5  O   UNK N   1      34.341  13.800  12.185  0.00  0.00    -0.353 OA
ENDROOT
BRANCH   1   6
HETATM    6  C   UNK N   1      34.891  14.204   9.898  0.00  0.00     0.215 C 
BRANCH   6   7
HETATM    7  O   UNK N   1      34.356  15.073   8.945  0.00  0.00    -0.294 OA
BRANCH   7   8
HETATM    8  P   UNK N   1      32.646  14.766   8.942  0.00  0.00     0.401 P 
HETATM    9  O   UNK N   1      32.308  14.006   7.630  0.00  0.00    -0.631 OA
BRANCH   8  10
HETATM   10  O   UNK N   1      33.554  13.287   9.059  0.00  0.00    -0.307 OA
HETATM   11  H   UNK N   1      34.229  13.186   9.748  0.00  0.00     0.222 HD
ENDBRANCH   8  10
BRANCH   8  12
HETATM   12  O   UNK N   1      32.967  16.012   7.751  0.00  0.00    -0.195 OA
BRANCH  12  13
HETATM   13  P   UNK N   1      31.975  17.387   8.202  0.00  0.00     0.410 P 
HETATM   14  O   UNK N   1      30.483  16.957   8.234  0.00  0.00    -0.631 OA
BRANCH  13  15
HETATM   15  O   UNK N   1      31.782  16.149   9.402  0.00  0.00    -0.307 OA
HETATM   16  H   UNK N   1      31.561  15.213   9.282  0.00  0.00     0.222 HD
ENDBRANCH  13  15
BRANCH  13  17
HETATM   17  O   UNK N   1      31.616  17.125   6.506  0.00  0.00    -0.195 OA
BRANCH  17  18
HETATM   18  P   UNK N   1      33.143  17.092   5.630  0.00  0.00     0.399 P 
HETATM   19  O   UNK N   1      32.910  17.860   4.300  0.00  0.00    -0.631 OA
BRANCH  18  20
HETATM   20  O   UNK N   1      33.616  15.484   5.181  0.00  0.00    -0.307 OA
HETATM   21  H   UNK N   1      33.591  15.174   4.263  0.00  0.00     0.222 HD
ENDBRANCH  18  20
BRANCH  18  22
HETATM   22  O   UNK N   1      34.444  17.916   6.440  0.00  0.00    -0.307 OA
HETATM   23  H   UNK N   1      34.582  18.681   7.019  0.00  0.00     0.222 HD
ENDBRANCH  18  22
ENDBRANCH  17  18
ENDBRANCH  13  17
ENDBRANCH  12  13
ENDBRANCH   8  12
ENDBRANCH   7   8
ENDBRANCH   6   7
ENDBRANCH   1   6
BRANCH   2  24
HETATM   24  O   UNK N   1      36.737  16.143  10.947  0.00  0.00    -0.390 OA
HETATM   25  H   UNK N   1      36.871  15.861  10.029  0.00  0.00     0.210 HD
ENDBRANCH   2  24
BRANCH   3  26
HETATM   26  O   UNK N   1      37.494  13.618  11.396  0.00  0.00    -0.388 OA
HETATM   27  H   UNK N   1      37.304  12.985  10.687  0.00  0.00     0.210 HD
ENDBRANCH   3  26
BRANCH   4  28
HETATM   28  N   UNK N   1      35.444  12.960  14.139  0.00  0.00    -0.280 N 
HETATM   29  C   UNK N   1      34.682  11.892  14.576  0.00  0.00     0.331 A 
HETATM   30  O   UNK N   1      34.110  11.169  13.777  0.00  0.00    -0.246 OA
HETATM   31  N   UNK N   1      34.548  11.646  15.916  0.00  0.00    -0.275 N 
HETATM   32  C   UNK N   1      35.160  12.448  16.839  0.00  0.00     0.250 A 
HETATM   33  H   UNK N   1      34.006  10.882  16.218  0.00  0.00     0.173 HD
HETATM   34  O   UNK N   1      35.024  12.222  18.027  0.00  0.00    -0.268 OA
HETATM   35  C   UNK N   1      35.933  13.524  16.419  0.00  0.00     0.092 A 
HETATM   36  C   UNK N   1      36.061  13.766  15.052  0.00  0.00     0.104 A 
ENDBRANCH   4  28
TORSDOF 14
ENDMDL
MODEL 8
REMARK VINA RESULT:      -6.4     10.601     13.084
REMARK  14 active torsions:
REMARK  status: ('A' for Active; 'I' for Inactive)
REMARK    1  A    between atoms: C_2  and  C_1 
REMARK    2  A    between atoms: C_1  and  O_19 
REMARK    3  A    between atoms: C_3  and  O_4 
REMARK    4  A    between atoms: C_5  and  O_6 
REMARK    5  A    between atoms: C_7  and  N_9 
REMARK    6  A    between atoms: P_17  and  O_19 
REMARK    7  A    between atoms: P_17  and  O_21 
REMARK    8  A    between atoms: P_17  and  O_22 
REMARK    9  A    between atoms: O_20  and  P_27 
REMARK   10  A    between atoms: O_22  and  P_23 
REMARK   11  A    between atoms: P_23  and  O_25 
REMARK   12  A    between atoms: P_23  and  O_26 
REMARK   13  A    between atoms: O_26  and  P_27 
REMARK   14  A    between atoms: P_27  and  O_29 
ROOT
HETATM    1  C   UNK N   1      33.783  15.414   7.950  0.00  0.00     0.180 C 
HETATM    2  C   UNK N   1      33.991  16.008   6.572  0.00  0.00     0.182 C 
HETATM    3  C   UNK N   1      33.464  17.406   6.721  0.00  0.00     0.198 C 
HETATM    4  C   UNK N   1      32.431  17.220   7.833  0.00  0.00     0.263 C 
HETATM    5  O   UNK N   1      32.548  15.917   8.384  0.00  0.00    -0.353 OA
ENDROOT
BRANCH   1   6
HETATM    6  C   UNK N   1      34.861  15.800   8.962  0.00  0.00     0.215 C 
BRANCH   6   7
HETATM    7  O   UNK N   1      34.374  15.590  10.254  0.00  0.00    -0.294 OA
BRANCH   7   8
HETATM    8  P   UNK N   1      35.658  16.077  11.320  0.00  0.00     0.401 P 
HETATM    9  O   UNK N   1      36.974  16.085  10.495  0.00  0.00    -0.631 OA
BRANCH   8  10
HETATM   10  O   UNK N   1      35.379  17.266  10.083  0.00  0.00    -0.307 OA
HETATM   11  H   UNK N   1      34.517  17.313   9.640  0.00  0.00     0.222 HD
ENDBRANCH   8  10
BRANCH   8  12
HETATM   12  O   UNK N   1      35.852  14.363  10.996  0.00  0.00    -0.195 OA
BRANCH  12  13
HETATM   13  P   UNK N   1      35.482  13.537  12.498  0.00  0.00     0.410 P 
HETATM   14  O   UNK N   1      36.794  13.315  13.300  0.00  0.00    -0.631 OA
BRANCH  13  15
HETATM   15  O   UNK N   1      36.170  15.086  12.874  0.00  0.00    -0.307 OA
HETATM   16  H   UNK N   1      36.395  15.813  12.275  0.00  0.00     0.222 HD
ENDBRANCH  13  15
BRANCH  13  17
HETATM   17  O   UNK N   1      36.322  12.338  11.533  0.00  0.00    -0.195 OA
BRANCH  17  18
HETATM   18  P   UNK N   1      35.354  12.029  10.095  0.00  0.00     0.399 P 
HETATM   19  O   UNK N   1      35.215  10.487   9.975  0.00  0.00    -0.631 OA
BRANCH  18  20
HETATM   20  O   UNK N   1      36.139  12.557   8.641  0.00  0.00    -0.307 OA
HETATM   21  H   UNK N   1      36.612  11.946   8.055  0.00  0.00     0.222 HD
ENDBRANCH  18  20
BRANCH  18  22
HETATM   22  O   UNK N   1      33.733  12.653  10.183  0.00  0.00    -0.307 OA
HETATM   23  H   UNK N   1      33.234  13.442   9.922  0.00  0.00     0.222 HD
ENDBRANCH  18  22
ENDBRANCH  17  18
ENDBRANCH  13  17
ENDBRANCH  12  13
ENDBRANCH   8  12
ENDBRANCH   7   8
ENDBRANCH   6   7
ENDBRANCH   1   6
BRANCH   2  24
HETATM   24  O   UNK N   1      35.317  15.962   6.128  0.00  0.00    -0.390 OA
HETATM   25  H   UNK N   1      36.044  15.622   6.673  0.00  0.00     0.210 HD
ENDBRANCH   2  24
BRANCH   3  26
HETATM   26  O   UNK N   1      34.464  18.262   7.190  0.00  0.00    -0.388 OA
HETATM   27  H   UNK N   1      34.513  18.884   7.932  0.00  0.00     0.210 HD
ENDBRANCH   3  26
BRANCH   4  28
HETATM   28  N   UNK N   1      31.065  17.502   7.368  0.00  0.00    -0.280 N 
HETATM   29  C   UNK N   1      30.154  18.113   8.211  0.00  0.00     0.331 A 
HETATM   30  O   UNK N   1      30.480  18.451   9.337  0.00  0.00    -0.246 OA
HETATM   31  N   UNK N   1      28.869  18.329   7.793  0.00  0.00    -0.275 N 
HETATM   32  C   UNK N   1      28.465  17.945   6.544  0.00  0.00     0.250 A 
HETATM   33  H   UNK N   1      28.228  18.767   8.398  0.00  0.00     0.173 HD
HETATM   34  O   UNK N   1      27.317  18.135   6.190  0.00  0.00    -0.268 OA
HETATM   35  C   UNK N   1      29.368  17.332   5.682  0.00  0.00     0.092 A 
HETATM   36  C   UNK N   1      30.673  17.116   6.119  0.00  0.00     0.104 A 
ENDBRANCH   4  28
TORSDOF 14
ENDMDL
MODEL 9
REMARK VINA RESULT:      -6.3     13.987     15.971
REMARK  14 active torsions:
REMARK  status: ('A' for Active; 'I' for Inactive)
REMARK    1  A    between atoms: C_2  and  C_1 
REMARK    2  A    between atoms: C_1  and  O_19 
REMARK    3  A    between atoms: C_3  and  O_4 
REMARK    4  A    between atoms: C_5  and  O_6 
REMARK    5  A    between atoms: C_7  and  N_9 
REMARK    6  A    between atoms: P_17  and  O_19 
REMARK    7  A    between atoms: P_17  and  O_21 
REMARK    8  A    between atoms: P_17  and  O_22 
REMARK    9  A    between atoms: O_20  and  P_27 
REMARK   10  A    between atoms: O_22  and  P_23 
REMARK   11  A    between atoms: P_23  and  O_25 
REMARK   12  A    between atoms: P_23  and  O_26 
REMARK   13  A    between atoms: O_26  and  P_27 
REMARK   14  A    between atoms: P_27  and  O_29 
ROOT
HETATM    1  C   UNK N   1      36.117  12.370  10.612  0.00  0.00     0.180 C 
HETATM    2  C   UNK N   1      37.264  13.337  10.814  0.00  0.00     0.182 C 
HETATM    3  C   UNK N   1      36.571  14.613  11.197  0.00  0.00     0.198 C 
HETATM    4  C   UNK N   1      35.221  14.440  10.501  0.00  0.00     0.263 C 
HETATM    5  O   UNK N   1      35.108  13.120   9.990  0.00  0.00    -0.353 OA
ENDROOT
BRANCH   1   6
HETATM    6  C   UNK N   1      35.567  11.777  11.909  0.00  0.00     0.215 C 
BRANCH   6   7
HETATM    7  O   UNK N   1      36.283  10.621  12.226  0.00  0.00    -0.294 OA
BRANCH   7   8
HETATM    8  P   UNK N   1      35.233   9.692  13.255  0.00  0.00     0.401 P 
HETATM    9  O   UNK N   1      33.960  10.542  13.516  0.00  0.00    -0.631 OA
BRANCH   8  10
HETATM   10  O   UNK N   1      34.538   9.914  11.677  0.00  0.00    -0.307 OA
HETATM   11  H   UNK N   1      33.791  10.521  11.556  0.00  0.00     0.222 HD
ENDBRANCH   8  10
BRANCH   8  12
HETATM   12  O   UNK N   1      35.904  10.999  14.214  0.00  0.00    -0.195 OA
BRANCH  12  13
HETATM   13  P   UNK N   1      36.885  10.240  15.455  0.00  0.00     0.410 P 
HETATM   14  O   UNK N   1      36.007   9.256  16.276  0.00  0.00    -0.631 OA
BRANCH  13  15
HETATM   15  O   UNK N   1      36.292   9.007  14.388  0.00  0.00    -0.307 OA
HETATM   16  H   UNK N   1      35.377   8.807  14.136  0.00  0.00     0.222 HD
ENDBRANCH  13  15
BRANCH  13  17
HETATM   17  O   UNK N   1      35.822  11.321  16.336  0.00  0.00    -0.195 OA
BRANCH  17  18
HETATM   18  P   UNK N   1      35.974  12.925  15.626  0.00  0.00     0.399 P 
HETATM   19  O   UNK N   1      35.981  13.935  16.806  0.00  0.00    -0.631 OA
BRANCH  18  20
HETATM   20  O   UNK N   1      34.610  13.346  14.639  0.00  0.00    -0.307 OA
HETATM   21  H   UNK N   1      34.363  12.836  13.852  0.00  0.00     0.222 HD
ENDBRANCH  18  20
BRANCH  18  22
HETATM   22  O   UNK N   1      37.463  13.181  14.764  0.00  0.00    -0.307 OA
HETATM   23  H   UNK N   1      38.271  13.713  14.836  0.00  0.00     0.222 HD
ENDBRANCH  18  22
ENDBRANCH  17  18
ENDBRANCH  13  17
ENDBRANCH  12  13
ENDBRANCH   8  12
ENDBRANCH   7   8
ENDBRANCH   6   7
ENDBRANCH   1   6
BRANCH   2  24
HETATM   24  O   UNK N   1      38.204  12.915  11.760  0.00  0.00    -0.390 OA
HETATM   25  H   UNK N   1      37.966  12.677  12.670  0.00  0.00     0.210 HD
ENDBRANCH   2  24
BRANCH   3  26
HETATM   26  O   UNK N   1      36.350  14.659  12.576  0.00  0.00    -0.388 OA
HETATM   27  H   UNK N   1      35.803  14.134  13.181  0.00  0.00     0.210 HD
ENDBRANCH   3  26
BRANCH   4  28
HETATM   28  N   UNK N   1      35.004  15.455   9.459  0.00  0.00    -0.280 N 
HETATM   29  C   UNK N   1      34.953  16.797   9.792  0.00  0.00     0.331 A 
HETATM   30  O   UNK N   1      35.115  17.157  10.946  0.00  0.00    -0.246 OA
HETATM   31  N   UNK N   1      34.701  17.734   8.827  0.00  0.00    -0.275 N 
HETATM   32  C   UNK N   1      34.496  17.363   7.527  0.00  0.00     0.250 A 
HETATM   33  H   UNK N   1      34.670  18.687   9.071  0.00  0.00     0.173 HD
HETATM   34  O   UNK N   1      34.265  18.208   6.683  0.00  0.00    -0.268 OA
HETATM   35  C   UNK N   1      34.546  16.020   7.173  0.00  0.00     0.092 A 
HETATM   36  C   UNK N   1      34.801  15.073   8.164  0.00  0.00     0.104 A 
ENDBRANCH   4  28
TORSDOF 14
ENDMDL
