REMARK  14 active torsions:
REMARK  status: ('A' for Active; 'I' for Inactive)
REMARK    1  A    between atoms: C_2  and  C_1 
REMARK    2  A    between atoms: C_1  and  O_19 
REMARK    3  A    between atoms: C_3  and  O_4 
REMARK    4  A    between atoms: C_5  and  O_6 
REMARK    5  A    between atoms: C_7  and  N_9 
REMARK    6  A    between atoms: P_17  and  O_19 
REMARK    7  A    between atoms: P_17  and  O_21 
REMARK    8  A    between atoms: P_17  and  O_22 
REMARK    9  A    between atoms: O_20  and  P_27 
REMARK   10  A    between atoms: O_22  and  P_23 
REMARK   11  A    between atoms: P_23  and  O_25 
REMARK   12  A    between atoms: P_23  and  O_26 
REMARK   13  A    between atoms: O_26  and  P_27 
REMARK   14  A    between atoms: P_27  and  O_29 
ROOT
HETATM    1  C   UNK N   1      -0.542   0.556   0.428  0.00  0.00     0.180 C 
HETATM    2  C   UNK N   1       0.481   1.307   1.254  0.00  0.00     0.182 C 
HETATM    3  C   UNK N   1       1.684   1.342   0.356  0.00  0.00     0.198 C 
HETATM    4  C   UNK N   1       1.471   0.080  -0.480  0.00  0.00     0.263 C 
HETATM    5  O   UNK N   1       0.181  -0.455  -0.223  0.00  0.00    -0.353 OA
ENDROOT
BRANCH   1   6
HETATM    6  C   UNK N   1      -1.248   1.415  -0.620  0.00  0.00     0.215 C 
BRANCH   6   7
HETATM    7  O   UNK N   1      -2.171   2.249   0.014  0.00  0.00    -0.294 OA
BRANCH   7   8
HETATM    8  P   UNK N   1      -3.605   2.186  -0.966  0.00  0.00     0.401 P 
HETATM    9  O   UNK N   1      -4.704   3.012  -0.243  0.00  0.00    -0.631 OA
BRANCH   8  10
HETATM   10  O   UNK N   1      -2.954   3.797  -0.901  0.00  0.00    -0.307 OA
HETATM   11  H   UNK N   1      -1.994   3.932  -0.865  0.00  0.00     0.222 HD
ENDBRANCH   8  10
BRANCH   8  12
HETATM   12  O   UNK N   1      -3.882   1.191   0.452  0.00  0.00    -0.195 OA
BRANCH  12  13
HETATM   13  P   UNK N   1      -4.839  -0.176  -0.089  0.00  0.00     0.410 P 
HETATM   14  O   UNK N   1      -5.407  -0.928   1.146  0.00  0.00    -0.631 OA
BRANCH  13  15
HETATM   15  O   UNK N   1      -5.870   0.907   0.792  0.00  0.00    -0.307 OA
HETATM   16  H   UNK N   1      -5.634   1.708   1.284  0.00  0.00     0.222 HD
ENDBRANCH  13  15
BRANCH  13  17
HETATM   17  O   UNK N   1      -3.403  -0.896   0.613  0.00  0.00    -0.195 OA
BRANCH  17  18
HETATM   18  P   UNK N   1      -3.324  -2.572   0.081  0.00  0.00     0.399 P 
HETATM   19  O   UNK N   1      -3.702  -3.447   1.307  0.00  0.00    -0.631 OA
BRANCH  18  20
HETATM   20  O   UNK N   1      -1.719  -3.049  -0.375  0.00  0.00    -0.307 OA
HETATM   21  H   UNK N   1      -1.501  -3.959  -0.629  0.00  0.00     0.222 HD
ENDBRANCH  18  20
BRANCH  18  22
HETATM   22  O   UNK N   1      -4.466  -2.975  -1.168  0.00  0.00    -0.307 OA
HETATM   23  H   UNK N   1      -4.978  -2.536  -1.865  0.00  0.00     0.222 HD
ENDBRANCH  18  22
ENDBRANCH  17  18
ENDBRANCH  13  17
ENDBRANCH  12  13
ENDBRANCH   8  12
ENDBRANCH   7   8
ENDBRANCH   6   7
ENDBRANCH   1   6
BRANCH   2  24
HETATM   24  O   UNK N   1       0.060   2.577   1.662  0.00  0.00    -0.390 OA
HETATM   25  H   UNK N   1       0.676   3.271   1.945  0.00  0.00     0.210 HD
ENDBRANCH   2  24
BRANCH   3  26
HETATM   26  O   UNK N   1       1.630   2.447  -0.498  0.00  0.00    -0.388 OA
HETATM   27  H   UNK N   1       2.275   2.862  -1.091  0.00  0.00     0.210 HD
ENDBRANCH   3  26
BRANCH   4  28
HETATM   28  N   UNK N   1       2.533  -0.913  -0.260  0.00  0.00    -0.280 N 
HETATM   29  C   UNK N   1       3.844  -0.616  -0.585  0.00  0.00     0.331 A 
HETATM   30  O   UNK N   1       4.140   0.481  -1.030  0.00  0.00    -0.246 OA
HETATM   31  N   UNK N   1       4.822  -1.560  -0.425  0.00  0.00    -0.275 N 
HETATM   32  C   UNK N   1       4.522  -2.805   0.053  0.00  0.00     0.250 A 
HETATM   33  H   UNK N   1       5.753  -1.339  -0.656  0.00  0.00     0.173 HD
HETATM   34  O   UNK N   1       5.401  -3.636   0.181  0.00  0.00    -0.268 OA
HETATM   35  C   UNK N   1       3.210  -3.121   0.388  0.00  0.00     0.092 A 
HETATM   36  C   UNK N   1       2.222  -2.153   0.220  0.00  0.00     0.104 A 
ENDBRANCH   4  28
TORSDOF 14
