MODEL 1
REMARK VINA RESULT:      -7.7      0.000      0.000
REMARK  6 active torsions:
REMARK  status: ('A' for Active; 'I' for Inactive)
REMARK    1  A    between atoms: C_1  and  C_8 
REMARK    2  A    between atoms: C_3  and  N_25 
REMARK       I    between atoms: C_13  and  N_16 
REMARK    3  A    between atoms: N_16  and  C_17 
REMARK    4  A    between atoms: N_28  and  C_31 
REMARK    5  A    between atoms: C_31  and  C_32 
REMARK    6  A    between atoms: C_32  and  N_33 
ROOT
HETATM    1  C   UNK N   1      36.484  14.130   8.677  0.00  0.00    -0.004 A 
HETATM    2  C   UNK N   1      35.378  14.920   8.697  0.00  0.00     0.062 A 
HETATM    3  C   UNK N   1      34.781  15.401   7.577  0.00  0.00     0.103 A 
HETATM    4  N   UNK N   1      35.349  15.143   6.361  0.00  0.00    -0.352 N 
ATOM      5  HN  UNK N   1      34.914  15.500   5.510  1.00  0.00     0.166 HD
HETATM    6  C   UNK N   1      36.506  14.404   6.279  0.00  0.00     0.090 A 
HETATM    7  C   UNK N   1      37.076  13.832   7.443  0.00  0.00     0.031 A 
ENDROOT
BRANCH   1   8
HETATM    8  C   UNK N   1      36.726  13.484   9.963  0.00  0.00     0.060 A 
HETATM    9  C   UNK N   1      37.943  12.908  10.314  0.00  0.00     0.048 A 
HETATM   10  C   UNK N   1      37.978  12.092  11.447  0.00  0.00     0.108 A 
HETATM   11  N   UNK N   1      36.840  11.874  12.169  0.00  0.00    -0.202 N 
HETATM   12  C   UNK N   1      35.669  12.461  11.811  0.00  0.00     0.683 A 
ATOM     13  HN  UNK N   1      36.869  11.263  12.986  1.00  0.00     0.183 HD
HETATM   14  N   UNK N   1      35.621  13.233  10.726  0.00  0.00    -0.191 N 
HETATM   15  N   UNK N   1      34.473  12.233  12.547  0.00  0.00    -0.192 N 
ATOM     16  HN  UNK N   1      34.730  13.652  10.456  1.00  0.00     0.184 HD
HETATM   17  H   UNK N   1      33.600  12.324  12.101  0.00  0.00     0.184 HD
BRANCH  15  18
HETATM   18  C   UNK N   1      34.531  11.876  13.905  0.00  0.00     0.050 A 
HETATM   19  C   UNK N   1      34.873  12.843  14.851  0.00  0.00     0.054 A 
HETATM   20  C   UNK N   1      35.034  12.512  16.181  0.00  0.00     0.042 A 
HETATM   21  C   UNK N   1      34.856  11.180  16.586  0.00  0.00    -0.040 A 
HETATM   22 Cl   UNK N   1      35.493  13.786  17.294  0.00  0.00    -0.084 Cl
HETATM   23  C   UNK N   1      34.477  10.209  15.648  0.00  0.00     0.011 A 
HETATM   24  C   UNK N   1      35.075  10.785  18.002  0.00  0.00     0.050 C 
HETATM   25  C   UNK N   1      34.306  10.556  14.303  0.00  0.00     0.030 A 
ENDBRANCH  15  18
ENDBRANCH   1   8
BRANCH   3  26
HETATM   26  N   UNK N   1      33.498  15.995   7.745  0.00  0.00    -0.364 N 
HETATM   27  C   UNK N   1      32.376  15.351   7.047  0.00  0.00     0.154 C 
HETATM   28  C   UNK N   1      31.161  16.221   6.894  0.00  0.00     0.292 C 
HETATM   29  N   UNK N   1      30.921  16.875   8.155  0.00  0.00     0.093 N 
HETATM   30  C   UNK N   1      31.965  17.886   8.281  0.00  0.00     0.292 C 
HETATM   31  C   UNK N   1      33.345  17.240   8.480  0.00  0.00     0.154 C 
BRANCH  29  32
HETATM   32  C   UNK N   1      29.647  17.548   8.019  0.00  0.00     0.291 C 
BRANCH  32  33
HETATM   33  C   UNK N   1      29.201  18.064   9.366  0.00  0.00     0.141 C 
BRANCH  33  34
HETATM   34  N   UNK N   1      27.762  18.228   9.353  0.00  0.00    -0.428 N 
HETATM   35  H   UNK N   1      27.059  17.537   9.617  0.00  0.00     0.149 HD
HETATM   36  H   UNK N   1      27.412  19.136   9.046  0.00  0.00     0.149 HD
ENDBRANCH  33  34
ENDBRANCH  32  33
ENDBRANCH  29  32
ENDBRANCH   3  26
TORSDOF 6
ENDMDL
MODEL 2
REMARK VINA RESULT:      -7.7      7.461     12.456
REMARK  6 active torsions:
REMARK  status: ('A' for Active; 'I' for Inactive)
REMARK    1  A    between atoms: C_1  and  C_8 
REMARK    2  A    between atoms: C_3  and  N_25 
REMARK       I    between atoms: C_13  and  N_16 
REMARK    3  A    between atoms: N_16  and  C_17 
REMARK    4  A    between atoms: N_28  and  C_31 
REMARK    5  A    between atoms: C_31  and  C_32 
REMARK    6  A    between atoms: C_32  and  N_33 
ROOT
HETATM    1  C   UNK N   1      23.342  18.623   4.597  0.00  0.00    -0.004 A 
HETATM    2  C   UNK N   1      22.837  17.982   5.686  0.00  0.00     0.062 A 
HETATM    3  C   UNK N   1      21.623  17.376   5.702  0.00  0.00     0.103 A 
HETATM    4  N   UNK N   1      20.824  17.465   4.596  0.00  0.00    -0.352 N 
ATOM      5  HN  UNK N   1      19.907  17.018   4.594  1.00  0.00     0.166 HD
HETATM    6  C   UNK N   1      21.251  18.156   3.486  0.00  0.00     0.090 A 
HETATM    7  C   UNK N   1      22.553  18.712   3.444  0.00  0.00     0.031 A 
ENDROOT
BRANCH   1   8
HETATM    8  C   UNK N   1      24.770  18.890   4.726  0.00  0.00     0.060 A 
HETATM    9  C   UNK N   1      25.454  19.801   3.926  0.00  0.00     0.048 A 
HETATM   10  C   UNK N   1      26.851  19.778   3.956  0.00  0.00     0.108 A 
HETATM   11  N   UNK N   1      27.504  18.878   4.747  0.00  0.00    -0.202 N 
HETATM   12  C   UNK N   1      26.810  18.011   5.530  0.00  0.00     0.683 A 
ATOM     13  HN  UNK N   1      28.524  18.856   4.752  1.00  0.00     0.183 HD
HETATM   14  N   UNK N   1      25.478  18.016   5.502  0.00  0.00    -0.191 N 
HETATM   15  N   UNK N   1      27.478  17.060   6.350  0.00  0.00    -0.192 N 
ATOM     16  HN  UNK N   1      24.969  17.346   6.078  1.00  0.00     0.184 HD
HETATM   17  H   UNK N   1      27.022  16.223   6.598  0.00  0.00     0.184 HD
BRANCH  15  18
HETATM   18  C   UNK N   1      28.784  17.306   6.806  0.00  0.00     0.050 A 
HETATM   19  C   UNK N   1      29.866  16.797   6.087  0.00  0.00     0.054 A 
HETATM   20  C   UNK N   1      31.158  16.936   6.551  0.00  0.00     0.042 A 
HETATM   21  C   UNK N   1      31.386  17.593   7.770  0.00  0.00    -0.040 A 
HETATM   22 Cl   UNK N   1      32.453  16.240   5.595  0.00  0.00    -0.084 Cl
HETATM   23  C   UNK N   1      30.307  18.139   8.482  0.00  0.00     0.011 A 
HETATM   24  C   UNK N   1      32.761  17.710   8.321  0.00  0.00     0.050 C 
HETATM   25  C   UNK N   1      29.002  18.003   7.997  0.00  0.00     0.030 A 
ENDBRANCH  15  18
ENDBRANCH   1   8
BRANCH   3  26
HETATM   26  N   UNK N   1      21.346  16.536   6.818  0.00  0.00    -0.364 N 
HETATM   27  C   UNK N   1      22.072  15.259   6.878  0.00  0.00     0.154 C 
HETATM   28  C   UNK N   1      21.458  14.241   7.796  0.00  0.00     0.292 C 
HETATM   29  N   UNK N   1      21.104  14.907   9.024  0.00  0.00     0.093 N 
HETATM   30  C   UNK N   1      19.938  15.727   8.709  0.00  0.00     0.292 C 
HETATM   31  C   UNK N   1      20.312  16.889   7.776  0.00  0.00     0.154 C 
BRANCH  29  32
HETATM   32  C   UNK N   1      20.694  13.863   9.940  0.00  0.00     0.291 C 
BRANCH  32  33
HETATM   33  C   UNK N   1      21.857  12.936  10.203  0.00  0.00     0.141 C 
BRANCH  33  34
HETATM   34  N   UNK N   1      21.488  12.007  11.252  0.00  0.00    -0.428 N 
HETATM   35  H   UNK N   1      21.593  12.138  12.259  0.00  0.00     0.149 HD
HETATM   36  H   UNK N   1      21.076  11.124  10.951  0.00  0.00     0.149 HD
ENDBRANCH  33  34
ENDBRANCH  32  33
ENDBRANCH  29  32
ENDBRANCH   3  26
TORSDOF 6
ENDMDL
MODEL 3
REMARK VINA RESULT:      -7.6      7.664     12.562
REMARK  6 active torsions:
REMARK  status: ('A' for Active; 'I' for Inactive)
REMARK    1  A    between atoms: C_1  and  C_8 
REMARK    2  A    between atoms: C_3  and  N_25 
REMARK       I    between atoms: C_13  and  N_16 
REMARK    3  A    between atoms: N_16  and  C_17 
REMARK    4  A    between atoms: N_28  and  C_31 
REMARK    5  A    between atoms: C_31  and  C_32 
REMARK    6  A    between atoms: C_32  and  N_33 
ROOT
HETATM    1  C   UNK N   1      23.206  18.656   4.606  0.00  0.00    -0.004 A 
HETATM    2  C   UNK N   1      22.731  18.003   5.701  0.00  0.00     0.062 A 
HETATM    3  C   UNK N   1      21.474  17.496   5.783  0.00  0.00     0.103 A 
HETATM    4  N   UNK N   1      20.607  17.705   4.747  0.00  0.00    -0.352 N 
ATOM      5  HN  UNK N   1      19.658  17.333   4.796  1.00  0.00     0.166 HD
HETATM    6  C   UNK N   1      21.009  18.414   3.640  0.00  0.00     0.090 A 
HETATM    7  C   UNK N   1      22.345  18.865   3.522  0.00  0.00     0.031 A 
ENDROOT
BRANCH   1   8
HETATM    8  C   UNK N   1      24.658  18.801   4.636  0.00  0.00     0.060 A 
HETATM    9  C   UNK N   1      25.352  19.720   3.855  0.00  0.00     0.048 A 
HETATM   10  C   UNK N   1      26.740  19.587   3.768  0.00  0.00     0.108 A 
HETATM   11  N   UNK N   1      27.375  18.577   4.430  0.00  0.00    -0.202 N 
HETATM   12  C   UNK N   1      26.673  17.704   5.198  0.00  0.00     0.683 A 
ATOM     13  HN  UNK N   1      28.387  18.477   4.349  1.00  0.00     0.183 HD
HETATM   14  N   UNK N   1      25.347  17.813   5.281  0.00  0.00    -0.191 N 
HETATM   15  N   UNK N   1      27.320  16.638   5.884  0.00  0.00    -0.192 N 
ATOM     16  HN  UNK N   1      24.830  17.138   5.844  1.00  0.00     0.184 HD
HETATM   17  H   UNK N   1      26.816  15.821   6.105  0.00  0.00     0.184 HD
BRANCH  15  18
HETATM   18  C   UNK N   1      28.673  16.745   6.249  0.00  0.00     0.050 A 
HETATM   19  C   UNK N   1      29.020  17.492   7.375  0.00  0.00     0.054 A 
HETATM   20  C   UNK N   1      30.342  17.699   7.711  0.00  0.00     0.042 A 
HETATM   21  C   UNK N   1      31.353  17.156   6.903  0.00  0.00    -0.040 A 
HETATM   22 Cl   UNK N   1      30.685  18.675   9.127  0.00  0.00    -0.084 Cl
HETATM   23  C   UNK N   1      31.012  16.374   5.789  0.00  0.00     0.011 A 
HETATM   24  C   UNK N   1      32.784  17.409   7.210  0.00  0.00     0.050 C 
HETATM   25  C   UNK N   1      29.668  16.160   5.463  0.00  0.00     0.030 A 
ENDBRANCH  15  18
ENDBRANCH   1   8
BRANCH   3  26
HETATM   26  N   UNK N   1      21.210  16.627   6.879  0.00  0.00    -0.364 N 
HETATM   27  C   UNK N   1      21.954  15.359   6.909  0.00  0.00     0.154 C 
HETATM   28  C   UNK N   1      21.355  14.311   7.803  0.00  0.00     0.292 C 
HETATM   29  N   UNK N   1      20.993  14.942   9.046  0.00  0.00     0.093 N 
HETATM   30  C   UNK N   1      19.815  15.752   8.750  0.00  0.00     0.292 C 
HETATM   31  C   UNK N   1      20.171  16.942   7.845  0.00  0.00     0.154 C 
BRANCH  29  32
HETATM   32  C   UNK N   1      20.599  13.871   9.937  0.00  0.00     0.291 C 
BRANCH  32  33
HETATM   33  C   UNK N   1      21.767  12.939  10.156  0.00  0.00     0.141 C 
BRANCH  33  34
HETATM   34  N   UNK N   1      21.443  12.027  11.233  0.00  0.00    -0.428 N 
HETATM   35  H   UNK N   1      21.598  12.170  12.232  0.00  0.00     0.149 HD
HETATM   36  H   UNK N   1      21.012  11.142  10.964  0.00  0.00     0.149 HD
ENDBRANCH  33  34
ENDBRANCH  32  33
ENDBRANCH  29  32
ENDBRANCH   3  26
TORSDOF 6
ENDMDL
MODEL 4
REMARK VINA RESULT:      -7.5      3.291      5.964
REMARK  6 active torsions:
REMARK  status: ('A' for Active; 'I' for Inactive)
REMARK    1  A    between atoms: C_1  and  C_8 
REMARK    2  A    between atoms: C_3  and  N_25 
REMARK       I    between atoms: C_13  and  N_16 
REMARK    3  A    between atoms: N_16  and  C_17 
REMARK    4  A    between atoms: N_28  and  C_31 
REMARK    5  A    between atoms: C_31  and  C_32 
REMARK    6  A    between atoms: C_32  and  N_33 
ROOT
HETATM    1  C   UNK N   1      36.772  12.063  14.523  0.00  0.00    -0.004 A 
HETATM    2  C   UNK N   1      36.433  13.084  13.691  0.00  0.00     0.062 A 
HETATM    3  C   UNK N   1      36.745  13.108  12.370  0.00  0.00     0.103 A 
HETATM    4  N   UNK N   1      37.497  12.093  11.849  0.00  0.00    -0.352 N 
ATOM      5  HN  UNK N   1      37.742  12.099  10.859  1.00  0.00     0.166 HD
HETATM    6  C   UNK N   1      37.925  11.064  12.654  0.00  0.00     0.090 A 
HETATM    7  C   UNK N   1      37.525  10.999  14.011  0.00  0.00     0.031 A 
ENDROOT
BRANCH   1   8
HETATM    8  C   UNK N   1      36.046  12.116  15.788  0.00  0.00     0.060 A 
HETATM    9  C   UNK N   1      35.587  13.299  16.358  0.00  0.00     0.048 A 
HETATM   10  C   UNK N   1      35.148  13.259  17.684  0.00  0.00     0.108 A 
HETATM   11  N   UNK N   1      35.184  12.087  18.383  0.00  0.00    -0.202 N 
HETATM   12  C   UNK N   1      35.624  10.944  17.795  0.00  0.00     0.683 A 
ATOM     13  HN  UNK N   1      34.878  12.069  19.356  1.00  0.00     0.183 HD
HETATM   14  N   UNK N   1      36.054  10.972  16.534  0.00  0.00    -0.191 N 
HETATM   15  N   UNK N   1      35.679   9.718  18.515  0.00  0.00    -0.192 N 
ATOM     16  HN  UNK N   1      36.401  10.110  16.112  1.00  0.00     0.184 HD
HETATM   17  H   UNK N   1      36.321   9.022  18.246  0.00  0.00     0.184 HD
BRANCH  15  18
HETATM   18  C   UNK N   1      34.823   9.496  19.607  0.00  0.00     0.050 A 
HETATM   19  C   UNK N   1      33.543   8.990  19.379  0.00  0.00     0.054 A 
HETATM   20  C   UNK N   1      32.640   8.847  20.412  0.00  0.00     0.042 A 
HETATM   21  C   UNK N   1      33.014   9.223  21.712  0.00  0.00    -0.040 A 
HETATM   22 Cl   UNK N   1      31.044   8.230  20.029  0.00  0.00    -0.084 Cl
HETATM   23  C   UNK N   1      34.311   9.699  21.956  0.00  0.00     0.011 A 
HETATM   24  C   UNK N   1      32.045   9.131  22.835  0.00  0.00     0.050 C 
HETATM   25  C   UNK N   1      35.223   9.830  20.903  0.00  0.00     0.030 A 
ENDBRANCH  15  18
ENDBRANCH   1   8
BRANCH   3  26
HETATM   26  N   UNK N   1      36.107  14.111  11.585  0.00  0.00    -0.364 N 
HETATM   27  C   UNK N   1      35.888  13.796  10.166  0.00  0.00     0.154 C 
HETATM   28  C   UNK N   1      35.623  14.995   9.300  0.00  0.00     0.292 C 
HETATM   29  N   UNK N   1      34.680  15.840   9.987  0.00  0.00     0.093 N 
HETATM   30  C   UNK N   1      35.423  16.454  11.083  0.00  0.00     0.292 C 
HETATM   31  C   UNK N   1      35.802  15.415  12.149  0.00  0.00     0.154 C 
BRANCH  29  32
HETATM   32  C   UNK N   1      34.314  16.877   9.046  0.00  0.00     0.291 C 
BRANCH  32  33
HETATM   33  C   UNK N   1      32.957  16.569   8.457  0.00  0.00     0.141 C 
BRANCH  33  34
HETATM   34  N   UNK N   1      32.134  15.948   9.475  0.00  0.00    -0.428 N 
HETATM   35  H   UNK N   1      32.277  15.039   9.915  0.00  0.00     0.149 HD
HETATM   36  H   UNK N   1      31.321  16.480   9.787  0.00  0.00     0.149 HD
ENDBRANCH  33  34
ENDBRANCH  32  33
ENDBRANCH  29  32
ENDBRANCH   3  26
TORSDOF 6
ENDMDL
MODEL 5
REMARK VINA RESULT:      -7.5      5.027     10.464
REMARK  6 active torsions:
REMARK  status: ('A' for Active; 'I' for Inactive)
REMARK    1  A    between atoms: C_1  and  C_8 
REMARK    2  A    between atoms: C_3  and  N_25 
REMARK       I    between atoms: C_13  and  N_16 
REMARK    3  A    between atoms: N_16  and  C_17 
REMARK    4  A    between atoms: N_28  and  C_31 
REMARK    5  A    between atoms: C_31  and  C_32 
REMARK    6  A    between atoms: C_32  and  N_33 
ROOT
HETATM    1  C   UNK N   1      31.357  16.874   6.486  0.00  0.00    -0.004 A 
HETATM    2  C   UNK N   1      32.108  16.374   7.504  0.00  0.00     0.062 A 
HETATM    3  C   UNK N   1      33.465  16.365   7.500  0.00  0.00     0.103 A 
HETATM    4  N   UNK N   1      34.126  16.817   6.392  0.00  0.00    -0.352 N 
ATOM      5  HN  UNK N   1      35.147  16.813   6.373  1.00  0.00     0.166 HD
HETATM    6  C   UNK N   1      33.422  17.275   5.304  0.00  0.00     0.090 A 
HETATM    7  C   UNK N   1      32.010  17.362   5.347  0.00  0.00     0.031 A 
ENDROOT
BRANCH   1   8
HETATM    8  C   UNK N   1      29.964  17.070   6.871  0.00  0.00     0.060 A 
HETATM    9  C   UNK N   1      29.576  17.661   8.069  0.00  0.00     0.048 A 
HETATM   10  C   UNK N   1      28.235  17.553   8.447  0.00  0.00     0.108 A 
HETATM   11  N   UNK N   1      27.351  16.879   7.655  0.00  0.00    -0.202 N 
HETATM   12  C   UNK N   1      27.756  16.325   6.482  0.00  0.00     0.683 A 
ATOM     13  HN  UNK N   1      26.378  16.790   7.946  1.00  0.00     0.183 HD
HETATM   14  N   UNK N   1      29.034  16.412   6.116  0.00  0.00    -0.191 N 
HETATM   15  N   UNK N   1      26.849  15.609   5.652  0.00  0.00    -0.192 N 
ATOM     16  HN  UNK N   1      29.329  15.974   5.243  1.00  0.00     0.184 HD
HETATM   17  H   UNK N   1      27.188  14.913   5.044  0.00  0.00     0.184 HD
BRANCH  15  18
HETATM   18  C   UNK N   1      25.472  15.888   5.697  0.00  0.00     0.050 A 
HETATM   19  C   UNK N   1      24.976  16.989   5.000  0.00  0.00     0.054 A 
HETATM   20  C   UNK N   1      23.648  17.352   5.094  0.00  0.00     0.042 A 
HETATM   21  C   UNK N   1      22.786  16.605   5.911  0.00  0.00    -0.040 A 
HETATM   22 Cl   UNK N   1      23.119  18.768   4.205  0.00  0.00    -0.084 Cl
HETATM   23  C   UNK N   1      23.268  15.475   6.588  0.00  0.00     0.011 A 
HETATM   24  C   UNK N   1      21.364  17.005   6.075  0.00  0.00     0.050 C 
HETATM   25  C   UNK N   1      24.614  15.108   6.476  0.00  0.00     0.030 A 
ENDBRANCH  15  18
ENDBRANCH   1   8
BRANCH   3  26
HETATM   26  N   UNK N   1      34.102  16.047   8.733  0.00  0.00    -0.364 N 
HETATM   27  C   UNK N   1      33.781  14.739   9.323  0.00  0.00     0.154 C 
HETATM   28  C   UNK N   1      34.113  14.621  10.784  0.00  0.00     0.292 C 
HETATM   29  N   UNK N   1      35.425  15.180  10.987  0.00  0.00     0.093 N 
HETATM   30  C   UNK N   1      35.263  16.626  10.861  0.00  0.00     0.292 C 
HETATM   31  C   UNK N   1      34.934  17.025   9.415  0.00  0.00     0.154 C 
BRANCH  29  32
HETATM   32  C   UNK N   1      35.779  14.878  12.358  0.00  0.00     0.291 C 
BRANCH  32  33
HETATM   33  C   UNK N   1      36.504  13.554  12.413  0.00  0.00     0.141 C 
BRANCH  33  34
HETATM   34  N   UNK N   1      37.609  13.586  11.476  0.00  0.00    -0.428 N 
HETATM   35  H   UNK N   1      38.575  13.855  11.668  0.00  0.00     0.149 HD
HETATM   36  H   UNK N   1      37.398  13.308  10.517  0.00  0.00     0.149 HD
ENDBRANCH  33  34
ENDBRANCH  32  33
ENDBRANCH  29  32
ENDBRANCH   3  26
TORSDOF 6
ENDMDL
MODEL 6
REMARK VINA RESULT:      -7.4      4.797     10.793
REMARK  6 active torsions:
REMARK  status: ('A' for Active; 'I' for Inactive)
REMARK    1  A    between atoms: C_1  and  C_8 
REMARK    2  A    between atoms: C_3  and  N_25 
REMARK       I    between atoms: C_13  and  N_16 
REMARK    3  A    between atoms: N_16  and  C_17 
REMARK    4  A    between atoms: N_28  and  C_31 
REMARK    5  A    between atoms: C_31  and  C_32 
REMARK    6  A    between atoms: C_32  and  N_33 
ROOT
HETATM    1  C   UNK N   1      32.671  16.097   6.430  0.00  0.00    -0.004 A 
HETATM    2  C   UNK N   1      33.172  15.741   7.644  0.00  0.00     0.062 A 
HETATM    3  C   UNK N   1      34.449  15.322   7.834  0.00  0.00     0.103 A 
HETATM    4  N   UNK N   1      35.267  15.179   6.748  0.00  0.00    -0.352 N 
ATOM      5  HN  UNK N   1      36.228  14.861   6.874  1.00  0.00     0.166 HD
HETATM    6  C   UNK N   1      34.798  15.460   5.486  0.00  0.00     0.090 A 
HETATM    7  C   UNK N   1      33.494  15.979   5.303  0.00  0.00     0.031 A 
ENDROOT
BRANCH   1   8
HETATM    8  C   UNK N   1      31.407  16.816   6.542  0.00  0.00     0.060 A 
HETATM    9  C   UNK N   1      30.873  17.242   7.754  0.00  0.00     0.048 A 
HETATM   10  C   UNK N   1      29.545  17.676   7.768  0.00  0.00     0.108 A 
HETATM   11  N   UNK N   1      28.810  17.667   6.618  0.00  0.00    -0.202 N 
HETATM   12  C   UNK N   1      29.362  17.260   5.446  0.00  0.00     0.683 A 
ATOM     13  HN  UNK N   1      27.836  17.970   6.639  1.00  0.00     0.183 HD
HETATM   14  N   UNK N   1      30.624  16.834   5.422  0.00  0.00    -0.191 N 
HETATM   15  N   UNK N   1      28.604  17.233   4.242  0.00  0.00    -0.192 N 
ATOM     16  HN  UNK N   1      31.020  16.511   4.539  1.00  0.00     0.184 HD
HETATM   17  H   UNK N   1      28.852  16.610   3.521  0.00  0.00     0.184 HD
BRANCH  15  18
HETATM   18  C   UNK N   1      27.502  18.090   4.077  0.00  0.00     0.050 A 
HETATM   19  C   UNK N   1      26.215  17.552   4.065  0.00  0.00     0.054 A 
HETATM   20  C   UNK N   1      25.115  18.345   3.811  0.00  0.00     0.042 A 
HETATM   21  C   UNK N   1      25.295  19.713   3.553  0.00  0.00    -0.040 A 
HETATM   22 Cl   UNK N   1      23.538  17.578   3.787  0.00  0.00    -0.084 Cl
HETATM   23  C   UNK N   1      26.583  20.269   3.598  0.00  0.00     0.011 A 
HETATM   24  C   UNK N   1      24.135  20.580   3.223  0.00  0.00     0.050 C 
HETATM   25  C   UNK N   1      27.691  19.458   3.868  0.00  0.00     0.030 A 
ENDBRANCH  15  18
ENDBRANCH   1   8
BRANCH   3  26
HETATM   26  N   UNK N   1      34.894  15.232   9.183  0.00  0.00    -0.364 N 
HETATM   27  C   UNK N   1      34.882  13.895   9.794  0.00  0.00     0.154 C 
HETATM   28  C   UNK N   1      34.937  13.900  11.295  0.00  0.00     0.292 C 
HETATM   29  N   UNK N   1      35.943  14.848  11.700  0.00  0.00     0.093 N 
HETATM   30  C   UNK N   1      35.371  16.166  11.444  0.00  0.00     0.292 C 
HETATM   31  C   UNK N   1      35.229  16.429   9.937  0.00  0.00     0.154 C 
BRANCH  29  32
HETATM   32  C   UNK N   1      36.093  14.685  13.130  0.00  0.00     0.291 C 
BRANCH  32  33
HETATM   33  C   UNK N   1      36.001  13.220  13.484  0.00  0.00     0.141 C 
BRANCH  33  34
HETATM   34  N   UNK N   1      37.310  12.754  13.897  0.00  0.00    -0.428 N 
HETATM   35  H   UNK N   1      38.215  13.158  13.653  0.00  0.00     0.149 HD
HETATM   36  H   UNK N   1      37.328  11.930  14.499  0.00  0.00     0.149 HD
ENDBRANCH  33  34
ENDBRANCH  32  33
ENDBRANCH  29  32
ENDBRANCH   3  26
TORSDOF 6
ENDMDL
MODEL 7
REMARK VINA RESULT:      -7.3      5.480     11.517
REMARK  6 active torsions:
REMARK  status: ('A' for Active; 'I' for Inactive)
REMARK    1  A    between atoms: C_1  and  C_8 
REMARK    2  A    between atoms: C_3  and  N_25 
REMARK       I    between atoms: C_13  and  N_16 
REMARK    3  A    between atoms: N_16  and  C_17 
REMARK    4  A    between atoms: N_28  and  C_31 
REMARK    5  A    between atoms: C_31  and  C_32 
REMARK    6  A    between atoms: C_32  and  N_33 
ROOT
HETATM    1  C   UNK N   1      31.144  17.115   5.612  0.00  0.00    -0.004 A 
HETATM    2  C   UNK N   1      31.774  16.529   6.666  0.00  0.00     0.062 A 
HETATM    3  C   UNK N   1      33.123  16.415   6.763  0.00  0.00     0.103 A 
HETATM    4  N   UNK N   1      33.899  16.845   5.723  0.00  0.00    -0.352 N 
ATOM      5  HN  UNK N   1      34.915  16.763   5.779  1.00  0.00     0.166 HD
HETATM    6  C   UNK N   1      33.318  17.387   4.601  0.00  0.00     0.090 A 
HETATM    7  C   UNK N   1      31.916  17.582   4.542  0.00  0.00     0.031 A 
ENDROOT
BRANCH   1   8
HETATM    8  C   UNK N   1      29.743  17.407   5.898  0.00  0.00     0.060 A 
HETATM    9  C   UNK N   1      29.206  17.402   7.182  0.00  0.00     0.048 A 
HETATM   10  C   UNK N   1      27.815  17.431   7.309  0.00  0.00     0.108 A 
HETATM   11  N   UNK N   1      27.026  17.455   6.196  0.00  0.00    -0.202 N 
HETATM   12  C   UNK N   1      27.578  17.474   4.955  0.00  0.00     0.683 A 
ATOM     13  HN  UNK N   1      26.011  17.459   6.296  1.00  0.00     0.183 HD
HETATM   14  N   UNK N   1      28.904  17.437   4.820  0.00  0.00    -0.191 N 
HETATM   15  N   UNK N   1      26.768  17.487   3.786  0.00  0.00    -0.192 N 
ATOM     16  HN  UNK N   1      29.305  17.431   3.883  1.00  0.00     0.184 HD
HETATM   17  H   UNK N   1      27.121  17.125   2.942  0.00  0.00     0.184 HD
BRANCH  15  18
HETATM   18  C   UNK N   1      25.465  18.013   3.830  0.00  0.00     0.050 A 
HETATM   19  C   UNK N   1      24.387  17.150   4.026  0.00  0.00     0.054 A 
HETATM   20  C   UNK N   1      23.088  17.611   3.980  0.00  0.00     0.042 A 
HETATM   21  C   UNK N   1      22.848  18.971   3.726  0.00  0.00    -0.040 A 
HETATM   22 Cl   UNK N   1      21.795  16.450   4.210  0.00  0.00    -0.084 Cl
HETATM   23  C   UNK N   1      23.927  19.852   3.563  0.00  0.00     0.011 A 
HETATM   24  C   UNK N   1      21.458  19.487   3.617  0.00  0.00     0.050 C 
HETATM   25  C   UNK N   1      25.241  19.376   3.622  0.00  0.00     0.030 A 
ENDBRANCH  15  18
ENDBRANCH   1   8
BRANCH   3  26
HETATM   26  N   UNK N   1      33.638  16.015   8.028  0.00  0.00    -0.364 N 
HETATM   27  C   UNK N   1      34.127  17.085   8.910  0.00  0.00     0.154 C 
HETATM   28  C   UNK N   1      35.033  16.612  10.011  0.00  0.00     0.292 C 
HETATM   29  N   UNK N   1      34.445  15.434  10.596  0.00  0.00     0.093 N 
HETATM   30  C   UNK N   1      34.632  14.370   9.615  0.00  0.00     0.292 C 
HETATM   31  C   UNK N   1      33.771  14.607   8.365  0.00  0.00     0.154 C 
BRANCH  29  32
HETATM   32  C   UNK N   1      35.244  15.126  11.763  0.00  0.00     0.291 C 
BRANCH  32  33
HETATM   33  C   UNK N   1      36.075  13.894  11.495  0.00  0.00     0.141 C 
BRANCH  33  34
HETATM   34  N   UNK N   1      37.036  13.734  12.568  0.00  0.00    -0.428 N 
HETATM   35  H   UNK N   1      37.854  14.314  12.756  0.00  0.00     0.149 HD
HETATM   36  H   UNK N   1      36.876  12.955  13.207  0.00  0.00     0.149 HD
ENDBRANCH  33  34
ENDBRANCH  32  33
ENDBRANCH  29  32
ENDBRANCH   3  26
TORSDOF 6
ENDMDL
MODEL 8
REMARK VINA RESULT:      -7.1      6.373     12.579
REMARK  6 active torsions:
REMARK  status: ('A' for Active; 'I' for Inactive)
REMARK    1  A    between atoms: C_1  and  C_8 
REMARK    2  A    between atoms: C_3  and  N_25 
REMARK       I    between atoms: C_13  and  N_16 
REMARK    3  A    between atoms: N_16  and  C_17 
REMARK    4  A    between atoms: N_28  and  C_31 
REMARK    5  A    between atoms: C_31  and  C_32 
REMARK    6  A    between atoms: C_32  and  N_33 
ROOT
HETATM    1  C   UNK N   1      28.898  18.015   7.248  0.00  0.00    -0.004 A 
HETATM    2  C   UNK N   1      30.127  17.459   7.076  0.00  0.00     0.062 A 
HETATM    3  C   UNK N   1      31.051  17.363   8.067  0.00  0.00     0.103 A 
HETATM    4  N   UNK N   1      30.771  17.911   9.287  0.00  0.00    -0.352 N 
ATOM      5  HN  UNK N   1      31.456  17.851  10.041  1.00  0.00     0.166 HD
HETATM    6  C   UNK N   1      29.570  18.546   9.504  0.00  0.00     0.090 A 
HETATM    7  C   UNK N   1      28.577  18.567   8.494  0.00  0.00     0.031 A 
ENDROOT
BRANCH   1   8
HETATM    8  C   UNK N   1      27.990  17.699   6.150  0.00  0.00     0.060 A 
HETATM    9  C   UNK N   1      28.398  17.078   4.974  0.00  0.00     0.048 A 
HETATM   10  C   UNK N   1      27.508  17.069   3.896  0.00  0.00     0.108 A 
HETATM   11  N   UNK N   1      26.285  17.663   4.013  0.00  0.00    -0.202 N 
HETATM   12  C   UNK N   1      25.908  18.250   5.179  0.00  0.00     0.683 A 
ATOM     13  HN  UNK N   1      25.647  17.668   3.217  1.00  0.00     0.183 HD
HETATM   14  N   UNK N   1      26.752  18.274   6.210  0.00  0.00    -0.191 N 
HETATM   15  N   UNK N   1      24.642  18.884   5.311  0.00  0.00    -0.192 N 
ATOM     16  HN  UNK N   1      26.464  18.735   7.073  1.00  0.00     0.184 HD
HETATM   17  H   UNK N   1      24.523  19.606   5.970  0.00  0.00     0.184 HD
BRANCH  15  18
HETATM   18  C   UNK N   1      23.560  18.487   4.506  0.00  0.00     0.050 A 
HETATM   19  C   UNK N   1      22.909  19.438   3.719  0.00  0.00     0.054 A 
HETATM   20  C   UNK N   1      21.786  19.109   2.989  0.00  0.00     0.042 A 
HETATM   21  C   UNK N   1      21.287  17.798   3.045  0.00  0.00    -0.040 A 
HETATM   22 Cl   UNK N   1      21.017  20.374   2.051  0.00  0.00    -0.084 Cl
HETATM   23  C   UNK N   1      21.955  16.827   3.806  0.00  0.00     0.011 A 
HETATM   24  C   UNK N   1      20.048  17.429   2.313  0.00  0.00     0.050 C 
HETATM   25  C   UNK N   1      23.101  17.168   4.534  0.00  0.00     0.030 A 
ENDBRANCH  15  18
ENDBRANCH   1   8
BRANCH   3  26
HETATM   26  N   UNK N   1      32.179  16.535   7.806  0.00  0.00    -0.364 N 
HETATM   27  C   UNK N   1      33.277  16.590   8.782  0.00  0.00     0.154 C 
HETATM   28  C   UNK N   1      34.587  16.060   8.271  0.00  0.00     0.292 C 
HETATM   29  N   UNK N   1      34.325  14.826   7.576  0.00  0.00     0.093 N 
HETATM   30  C   UNK N   1      33.678  15.205   6.323  0.00  0.00     0.292 C 
HETATM   31  C   UNK N   1      32.271  15.770   6.573  0.00  0.00     0.154 C 
BRANCH  29  32
HETATM   32  C   UNK N   1      35.622  14.260   7.266  0.00  0.00     0.291 C 
BRANCH  32  33
HETATM   33  C   UNK N   1      35.975  14.560   5.829  0.00  0.00     0.141 C 
BRANCH  33  34
HETATM   34  N   UNK N   1      37.417  14.559   5.691  0.00  0.00    -0.428 N 
HETATM   35  H   UNK N   1      38.105  14.298   6.397  0.00  0.00     0.149 HD
HETATM   36  H   UNK N   1      37.785  14.851   4.785  0.00  0.00     0.149 HD
ENDBRANCH  33  34
ENDBRANCH  32  33
ENDBRANCH  29  32
ENDBRANCH   3  26
TORSDOF 6
ENDMDL
MODEL 9
REMARK VINA RESULT:      -7.1      5.575     10.120
REMARK  6 active torsions:
REMARK  status: ('A' for Active; 'I' for Inactive)
REMARK    1  A    between atoms: C_1  and  C_8 
REMARK    2  A    between atoms: C_3  and  N_25 
REMARK       I    between atoms: C_13  and  N_16 
REMARK    3  A    between atoms: N_16  and  C_17 
REMARK    4  A    between atoms: N_28  and  C_31 
REMARK    5  A    between atoms: C_31  and  C_32 
REMARK    6  A    between atoms: C_32  and  N_33 
ROOT
HETATM    1  C   UNK N   1      27.022  18.838   4.485  0.00  0.00    -0.004 A 
HETATM    2  C   UNK N   1      25.924  18.260   5.043  0.00  0.00     0.062 A 
HETATM    3  C   UNK N   1      24.652  18.562   4.679  0.00  0.00     0.103 A 
HETATM    4  N   UNK N   1      24.444  19.546   3.753  0.00  0.00    -0.352 N 
ATOM      5  HN  UNK N   1      23.493  19.787   3.472  1.00  0.00     0.166 HD
HETATM    6  C   UNK N   1      25.512  20.214   3.200  0.00  0.00     0.090 A 
HETATM    7  C   UNK N   1      26.838  19.836   3.519  0.00  0.00     0.031 A 
ENDROOT
BRANCH   1   8
HETATM    8  C   UNK N   1      28.249  18.116   4.802  0.00  0.00     0.060 A 
HETATM    9  C   UNK N   1      28.859  17.222   3.927  0.00  0.00     0.048 A 
HETATM   10  C   UNK N   1      29.866  16.397   4.433  0.00  0.00     0.108 A 
HETATM   11  N   UNK N   1      30.220  16.475   5.749  0.00  0.00    -0.202 N 
HETATM   12  C   UNK N   1      29.617  17.368   6.576  0.00  0.00     0.683 A 
ATOM     13  HN  UNK N   1      30.945  15.857   6.115  1.00  0.00     0.183 HD
HETATM   14  N   UNK N   1      28.648  18.153   6.108  0.00  0.00    -0.191 N 
HETATM   15  N   UNK N   1      29.967  17.451   7.953  0.00  0.00    -0.192 N 
ATOM     16  HN  UNK N   1      28.189  18.805   6.745  1.00  0.00     0.184 HD
HETATM   17  H   UNK N   1      29.310  17.788   8.604  0.00  0.00     0.184 HD
BRANCH  15  18
HETATM   18  C   UNK N   1      31.243  17.055   8.388  0.00  0.00     0.050 A 
HETATM   19  C   UNK N   1      32.316  17.935   8.246  0.00  0.00     0.054 A 
HETATM   20  C   UNK N   1      33.600  17.550   8.573  0.00  0.00     0.042 A 
HETATM   21  C   UNK N   1      33.830  16.250   9.048  0.00  0.00    -0.040 A 
HETATM   22 Cl   UNK N   1      34.891  18.713   8.336  0.00  0.00    -0.084 Cl
HETATM   23  C   UNK N   1      32.752  15.370   9.227  0.00  0.00     0.011 A 
HETATM   24  C   UNK N   1      35.209  15.790   9.356  0.00  0.00     0.050 C 
HETATM   25  C   UNK N   1      31.452  15.774   8.903  0.00  0.00     0.030 A 
ENDBRANCH  15  18
ENDBRANCH   1   8
BRANCH   3  26
HETATM   26  N   UNK N   1      23.630  17.698   5.165  0.00  0.00    -0.364 N 
HETATM   27  C   UNK N   1      22.284  18.275   5.292  0.00  0.00     0.154 C 
HETATM   28  C   UNK N   1      21.360  17.499   6.188  0.00  0.00     0.292 C 
HETATM   29  N   UNK N   1      21.497  16.103   5.864  0.00  0.00     0.093 N 
HETATM   30  C   UNK N   1      22.795  15.698   6.397  0.00  0.00     0.292 C 
HETATM   31  C   UNK N   1      23.945  16.353   5.616  0.00  0.00     0.154 C 
BRANCH  29  32
HETATM   32  C   UNK N   1      20.464  15.416   6.610  0.00  0.00     0.291 C 
BRANCH  32  33
HETATM   33  C   UNK N   1      21.042  14.879   7.898  0.00  0.00     0.141 C 
BRANCH  33  34
HETATM   34  N   UNK N   1      20.256  15.378   9.008  0.00  0.00    -0.428 N 
HETATM   35  H   UNK N   1      19.249  15.289   9.142  0.00  0.00     0.149 HD
HETATM   36  H   UNK N   1      20.769  15.873   9.739  0.00  0.00     0.149 HD
ENDBRANCH  33  34
ENDBRANCH  32  33
ENDBRANCH  29  32
ENDBRANCH   3  26
TORSDOF 6
ENDMDL
