MODEL 1
REMARK VINA RESULT:      -6.4      0.000      0.000
REMARK  6 active torsions:
REMARK  status: ('A' for Active; 'I' for Inactive)
REMARK       I    between atoms: C_4  and  N_22 
REMARK       I    between atoms: C_7  and  N_23 
REMARK    1  A    between atoms: N_8  and  O_9 
REMARK    2  A    between atoms: O_9  and  C_10 
REMARK    3  A    between atoms: C_10  and  C_11 
REMARK    4  A    between atoms: C_11  and  C_12 
REMARK    5  A    between atoms: C_12  and  O_13 
REMARK    6  A    between atoms: O_13  and  C_14 
ROOT
HETATM    1  C   UNK N   1      21.728  17.739   4.513  0.00  0.00     0.158 A 
HETATM    2  N   UNK N   1      20.898  16.549   4.421  0.00  0.00    -0.197 N 
ATOM      3  HN  UNK N   1      21.063  15.795   5.088  1.00  0.00     0.180 HD
HETATM    4  C   UNK N   1      19.965  16.390   3.546  0.00  0.00     0.688 A 
HETATM    5  N   UNK N   1      19.691  17.391   2.582  0.00  0.00    -0.021 N 
ATOM      6  HN  UNK N   1      18.971  17.221   1.880  1.00  0.00     0.203 HD
HETATM    7  C   UNK N   1      20.328  18.506   2.571  0.00  0.00     0.714 A 
HETATM    8  N   UNK N   1      21.342  18.770   3.538  0.00  0.00    -0.058 N 
HETATM    9  C   UNK N   1      23.170  17.304   4.295  0.00  0.00     0.066 C 
HETATM   10  C   UNK N   1      21.599  18.293   5.920  0.00  0.00     0.066 C 
HETATM   11  N   UNK N   1      19.197  15.206   3.557  0.00  0.00    -0.234 N 
HETATM   12  N   UNK N   1      19.995  19.485   1.609  0.00  0.00    -0.232 N 
HETATM   13  H   UNK N   1      18.543  14.958   2.865  0.00  0.00     0.174 HD
HETATM   14  H   UNK N   1      19.324  14.584   4.309  0.00  0.00     0.174 HD
HETATM   15  H   UNK N   1      20.624  20.213   1.396  0.00  0.00     0.174 HD
HETATM   16  H   UNK N   1      19.127  19.441   1.148  0.00  0.00     0.174 HD
ENDROOT
BRANCH   8  17
HETATM   17  O   UNK N   1      21.808  20.039   3.647  0.00  0.00    -0.262 OA
BRANCH  17  18
HETATM   18  C   UNK N   1      22.849  20.201   2.727  0.00  0.00     0.204 C 
BRANCH  18  19
HETATM   19  C   UNK N   1      24.131  20.631   3.407  0.00  0.00     0.055 C 
BRANCH  19  20
HETATM   20  C   UNK N   1      25.286  20.277   2.492  0.00  0.00     0.178 C 
BRANCH  20  21
HETATM   21  O   UNK N   1      26.483  20.649   3.064  0.00  0.00    -0.351 OA
BRANCH  21  22
HETATM   22  C   UNK N   1      26.908  20.204   4.273  0.00  0.00     0.068 A 
HETATM   23  C   UNK N   1      27.196  18.844   4.428  0.00  0.00     0.038 A 
HETATM   24  C   UNK N   1      27.641  18.352   5.659  0.00  0.00     0.022 A 
HETATM   25  C   UNK N   1      27.805  19.219   6.742  0.00  0.00     0.011 A 
HETATM   26  C   UNK N   1      27.522  20.581   6.597  0.00  0.00     0.022 A 
HETATM   27 Br   UNK N   1      28.412  18.542   8.417  0.00  0.00    -0.051 Br
HETATM   28  C   UNK N   1      27.072  21.074   5.368  0.00  0.00     0.038 A 
ENDBRANCH  21  22
ENDBRANCH  20  21
ENDBRANCH  19  20
ENDBRANCH  18  19
ENDBRANCH  17  18
ENDBRANCH   8  17
TORSDOF 6
ENDMDL
MODEL 2
REMARK VINA RESULT:      -6.1     11.126     12.855
REMARK  6 active torsions:
REMARK  status: ('A' for Active; 'I' for Inactive)
REMARK       I    between atoms: C_4  and  N_22 
REMARK       I    between atoms: C_7  and  N_23 
REMARK    1  A    between atoms: N_8  and  O_9 
REMARK    2  A    between atoms: O_9  and  C_10 
REMARK    3  A    between atoms: C_10  and  C_11 
REMARK    4  A    between atoms: C_11  and  C_12 
REMARK    5  A    between atoms: C_12  and  O_13 
REMARK    6  A    between atoms: O_13  and  C_14 
ROOT
HETATM    1  C   UNK N   1      30.245  23.112  -3.442  0.00  0.00     0.158 A 
HETATM    2  N   UNK N   1      31.377  22.514  -2.755  0.00  0.00    -0.197 N 
ATOM      3  HN  UNK N   1      31.690  22.941  -1.884  1.00  0.00     0.180 HD
HETATM    4  C   UNK N   1      32.009  21.475  -3.181  0.00  0.00     0.688 A 
HETATM    5  N   UNK N   1      31.635  20.839  -4.391  0.00  0.00    -0.021 N 
ATOM      6  HN  UNK N   1      32.177  20.041  -4.721  1.00  0.00     0.203 HD
HETATM    7  C   UNK N   1      30.632  21.246  -5.081  0.00  0.00     0.714 A 
HETATM    8  N   UNK N   1      29.858  22.362  -4.647  0.00  0.00    -0.058 N 
HETATM    9  C   UNK N   1      30.634  24.540  -3.801  0.00  0.00     0.066 C 
HETATM   10  C   UNK N   1      29.079  23.159  -2.474  0.00  0.00     0.066 C 
HETATM   11  N   UNK N   1      33.081  20.955  -2.424  0.00  0.00    -0.234 N 
HETATM   12  N   UNK N   1      30.280  20.558  -6.264  0.00  0.00    -0.232 N 
HETATM   13  H   UNK N   1      33.681  20.236  -2.726  0.00  0.00     0.174 HD
HETATM   14  H   UNK N   1      33.240  21.338  -1.532  0.00  0.00     0.174 HD
HETATM   15  H   UNK N   1      29.714  20.988  -6.945  0.00  0.00     0.174 HD
HETATM   16  H   UNK N   1      30.604  19.640  -6.409  0.00  0.00     0.174 HD
ENDROOT
BRANCH   8  17
HETATM   17  O   UNK N   1      28.674  22.598  -5.262  0.00  0.00    -0.262 OA
BRANCH  17  18
HETATM   18  C   UNK N   1      28.920  23.390  -6.389  0.00  0.00     0.204 C 
BRANCH  18  19
HETATM   19  C   UNK N   1      27.633  23.908  -6.997  0.00  0.00     0.055 C 
BRANCH  19  20
HETATM   20  C   UNK N   1      26.503  23.012  -6.530  0.00  0.00     0.178 C 
BRANCH  20  21
HETATM   21  O   UNK N   1      25.514  23.762  -5.930  0.00  0.00    -0.351 OA
BRANCH  21  22
HETATM   22  C   UNK N   1      25.727  24.984  -5.382  0.00  0.00     0.068 A 
HETATM   23  C   UNK N   1      25.296  26.119  -6.075  0.00  0.00     0.038 A 
HETATM   24  C   UNK N   1      25.495  27.394  -5.538  0.00  0.00     0.022 A 
HETATM   25  C   UNK N   1      26.122  27.541  -4.298  0.00  0.00     0.011 A 
HETATM   26  C   UNK N   1      26.554  26.413  -3.595  0.00  0.00     0.022 A 
HETATM   27 Br   UNK N   1      26.389  29.282  -3.570  0.00  0.00    -0.051 Br
HETATM   28  C   UNK N   1      26.361  25.137  -4.134  0.00  0.00     0.038 A 
ENDBRANCH  21  22
ENDBRANCH  20  21
ENDBRANCH  19  20
ENDBRANCH  18  19
ENDBRANCH  17  18
ENDBRANCH   8  17
TORSDOF 6
ENDMDL
MODEL 3
REMARK VINA RESULT:      -6.0      4.206      6.672
REMARK  6 active torsions:
REMARK  status: ('A' for Active; 'I' for Inactive)
REMARK       I    between atoms: C_4  and  N_22 
REMARK       I    between atoms: C_7  and  N_23 
REMARK    1  A    between atoms: N_8  and  O_9 
REMARK    2  A    between atoms: O_9  and  C_10 
REMARK    3  A    between atoms: C_10  and  C_11 
REMARK    4  A    between atoms: C_11  and  C_12 
REMARK    5  A    between atoms: C_12  and  O_13 
REMARK    6  A    between atoms: O_13  and  C_14 
ROOT
HETATM    1  C   UNK N   1      21.537  17.925   3.920  0.00  0.00     0.158 A 
HETATM    2  N   UNK N   1      21.562  19.361   3.694  0.00  0.00    -0.197 N 
ATOM      3  HN  UNK N   1      22.135  19.934   4.314  1.00  0.00     0.180 HD
HETATM    4  C   UNK N   1      20.905  19.953   2.758  0.00  0.00     0.688 A 
HETATM    5  N   UNK N   1      20.079  19.218   1.870  0.00  0.00    -0.021 N 
ATOM      6  HN  UNK N   1      19.542  19.719   1.162  1.00  0.00     0.203 HD
HETATM    7  C   UNK N   1      19.992  17.939   1.938  0.00  0.00     0.714 A 
HETATM    8  N   UNK N   1      20.727  17.213   2.920  0.00  0.00    -0.058 N 
HETATM    9  C   UNK N   1      20.986  17.695   5.320  0.00  0.00     0.066 C 
HETATM   10  C   UNK N   1      22.966  17.417   3.874  0.00  0.00     0.066 C 
HETATM   11  N   UNK N   1      21.017  21.351   2.607  0.00  0.00    -0.234 N 
HETATM   12  N   UNK N   1      19.180  17.250   1.008  0.00  0.00    -0.232 N 
HETATM   13  H   UNK N   1      20.472  21.892   1.992  0.00  0.00     0.174 HD
HETATM   14  H   UNK N   1      21.689  21.818   3.154  0.00  0.00     0.174 HD
HETATM   15  H   UNK N   1      18.875  16.332   1.193  0.00  0.00     0.174 HD
HETATM   16  H   UNK N   1      18.917  17.692   0.169  0.00  0.00     0.174 HD
ENDROOT
BRANCH   8  17
HETATM   17  O   UNK N   1      20.802  15.865   2.796  0.00  0.00    -0.262 OA
BRANCH  17  18
HETATM   18  C   UNK N   1      19.763  15.302   3.545  0.00  0.00     0.204 C 
BRANCH  18  19
HETATM   19  C   UNK N   1      20.102  13.898   4.000  0.00  0.00     0.055 C 
BRANCH  19  20
HETATM   20  C   UNK N   1      21.166  14.001   5.074  0.00  0.00     0.178 C 
BRANCH  20  21
HETATM   21  O   UNK N   1      20.585  14.233   6.303  0.00  0.00    -0.351 OA
BRANCH  21  22
HETATM   22  C   UNK N   1      21.067  13.733   7.467  0.00  0.00     0.068 A 
HETATM   23  C   UNK N   1      20.640  14.298   8.673  0.00  0.00     0.038 A 
HETATM   24  C   UNK N   1      21.113  13.804   9.892  0.00  0.00     0.022 A 
HETATM   25  C   UNK N   1      22.013  12.735   9.913  0.00  0.00     0.011 A 
HETATM   26  C   UNK N   1      22.444  12.161   8.713  0.00  0.00     0.022 A 
HETATM   27 Br   UNK N   1      22.653  12.066  11.578  0.00  0.00    -0.051 Br
HETATM   28  C   UNK N   1      21.976  12.658   7.493  0.00  0.00     0.038 A 
ENDBRANCH  21  22
ENDBRANCH  20  21
ENDBRANCH  19  20
ENDBRANCH  18  19
ENDBRANCH  17  18
ENDBRANCH   8  17
TORSDOF 6
ENDMDL
MODEL 4
REMARK VINA RESULT:      -6.0     12.612     15.295
REMARK  6 active torsions:
REMARK  status: ('A' for Active; 'I' for Inactive)
REMARK       I    between atoms: C_4  and  N_22 
REMARK       I    between atoms: C_7  and  N_23 
REMARK    1  A    between atoms: N_8  and  O_9 
REMARK    2  A    between atoms: O_9  and  C_10 
REMARK    3  A    between atoms: C_10  and  C_11 
REMARK    4  A    between atoms: C_11  and  C_12 
REMARK    5  A    between atoms: C_12  and  O_13 
REMARK    6  A    between atoms: O_13  and  C_14 
ROOT
HETATM    1  C   UNK N   1      34.386  14.532   8.340  0.00  0.00     0.158 A 
HETATM    2  N   UNK N   1      33.996  15.517   7.345  0.00  0.00    -0.197 N 
ATOM      3  HN  UNK N   1      33.680  15.181   6.435  1.00  0.00     0.180 HD
HETATM    4  C   UNK N   1      34.026  16.789   7.544  0.00  0.00     0.688 A 
HETATM    5  N   UNK N   1      34.467  17.325   8.779  0.00  0.00    -0.021 N 
ATOM      6  HN  UNK N   1      34.514  18.337   8.894  1.00  0.00     0.203 HD
HETATM    7  C   UNK N   1      34.810  16.564   9.756  0.00  0.00     0.714 A 
HETATM    8  N   UNK N   1      34.758  15.146   9.624  0.00  0.00    -0.058 N 
HETATM    9  C   UNK N   1      35.553  13.742   7.764  0.00  0.00     0.066 C 
HETATM   10  C   UNK N   1      33.218  13.585   8.547  0.00  0.00     0.066 C 
HETATM   11  N   UNK N   1      33.601  17.663   6.520  0.00  0.00    -0.234 N 
HETATM   12  N   UNK N   1      35.212  17.148  10.979  0.00  0.00    -0.232 N 
HETATM   13  H   UNK N   1      33.691  18.642   6.548  0.00  0.00     0.174 HD
HETATM   14  H   UNK N   1      33.185  17.265   5.722  0.00  0.00     0.174 HD
HETATM   15  H   UNK N   1      35.730  16.628  11.635  0.00  0.00     0.174 HD
HETATM   16  H   UNK N   1      34.971  18.081  11.177  0.00  0.00     0.174 HD
ENDROOT
BRANCH   8  17
HETATM   17  O   UNK N   1      34.884  14.394  10.744  0.00  0.00    -0.262 OA
BRANCH  17  18
HETATM   18  C   UNK N   1      36.220  13.988  10.848  0.00  0.00     0.204 C 
BRANCH  18  19
HETATM   19  C   UNK N   1      36.485  13.275  12.156  0.00  0.00     0.055 C 
BRANCH  19  20
HETATM   20  C   UNK N   1      35.951  14.144  13.277  0.00  0.00     0.178 C 
BRANCH  20  21
HETATM   21  O   UNK N   1      34.812  13.585  13.817  0.00  0.00    -0.351 OA
BRANCH  21  22
HETATM   22  C   UNK N   1      34.829  12.586  14.734  0.00  0.00     0.068 A 
HETATM   23  C   UNK N   1      35.419  12.823  15.980  0.00  0.00     0.038 A 
HETATM   24  C   UNK N   1      35.450  11.817  16.950  0.00  0.00     0.022 A 
HETATM   25  C   UNK N   1      34.885  10.568  16.682  0.00  0.00     0.011 A 
HETATM   26  C   UNK N   1      34.290  10.321  15.441  0.00  0.00     0.022 A 
HETATM   27 Br   UNK N   1      34.929   9.201  18.009  0.00  0.00    -0.051 Br
HETATM   28  C   UNK N   1      34.264  11.325  14.467  0.00  0.00     0.038 A 
ENDBRANCH  21  22
ENDBRANCH  20  21
ENDBRANCH  19  20
ENDBRANCH  18  19
ENDBRANCH  17  18
ENDBRANCH   8  17
TORSDOF 6
ENDMDL
MODEL 5
REMARK VINA RESULT:      -6.0     11.046     12.352
REMARK  6 active torsions:
REMARK  status: ('A' for Active; 'I' for Inactive)
REMARK       I    between atoms: C_4  and  N_22 
REMARK       I    between atoms: C_7  and  N_23 
REMARK    1  A    between atoms: N_8  and  O_9 
REMARK    2  A    between atoms: O_9  and  C_10 
REMARK    3  A    between atoms: C_10  and  C_11 
REMARK    4  A    between atoms: C_11  and  C_12 
REMARK    5  A    between atoms: C_12  and  O_13 
REMARK    6  A    between atoms: O_13  and  C_14 
ROOT
HETATM    1  C   UNK N   1      25.742  27.014  -5.530  0.00  0.00     0.158 A 
HETATM    2  N   UNK N   1      26.188  27.996  -4.557  0.00  0.00    -0.197 N 
ATOM      3  HN  UNK N   1      26.083  28.983  -4.789  1.00  0.00     0.180 HD
HETATM    4  C   UNK N   1      26.708  27.694  -3.418  0.00  0.00     0.688 A 
HETATM    5  N   UNK N   1      26.896  26.341  -3.037  0.00  0.00    -0.021 N 
ATOM      6  HN  UNK N   1      27.343  26.134  -2.145  1.00  0.00     0.203 HD
HETATM    7  C   UNK N   1      26.516  25.373  -3.790  0.00  0.00     0.714 A 
HETATM    8  N   UNK N   1      25.890  25.633  -5.045  0.00  0.00    -0.058 N 
HETATM    9  C   UNK N   1      26.557  27.228  -6.798  0.00  0.00     0.066 C 
HETATM   10  C   UNK N   1      24.283  27.290  -5.842  0.00  0.00     0.066 C 
HETATM   11  N   UNK N   1      27.086  28.724  -2.531  0.00  0.00    -0.234 N 
HETATM   12  N   UNK N   1      26.695  24.042  -3.351  0.00  0.00    -0.232 N 
HETATM   13  H   UNK N   1      27.584  28.586  -1.693  0.00  0.00     0.174 HD
HETATM   14  H   UNK N   1      26.833  29.646  -2.765  0.00  0.00     0.174 HD
HETATM   15  H   UNK N   1      26.676  23.296  -3.993  0.00  0.00     0.174 HD
HETATM   16  H   UNK N   1      26.841  23.859  -2.395  0.00  0.00     0.174 HD
ENDROOT
BRANCH   8  17
HETATM   17  O   UNK N   1      25.285  24.602  -5.684  0.00  0.00    -0.262 OA
BRANCH  17  18
HETATM   18  C   UNK N   1      26.056  24.272  -6.804  0.00  0.00     0.204 C 
BRANCH  18  19
HETATM   19  C   UNK N   1      26.609  22.866  -6.705  0.00  0.00     0.055 C 
BRANCH  19  20
HETATM   20  C   UNK N   1      28.121  22.962  -6.656  0.00  0.00     0.178 C 
BRANCH  20  21
HETATM   21  O   UNK N   1      28.553  23.051  -5.350  0.00  0.00    -0.351 OA
BRANCH  21  22
HETATM   22  C   UNK N   1      29.724  22.528  -4.910  0.00  0.00     0.068 A 
HETATM   23  C   UNK N   1      30.470  23.241  -3.966  0.00  0.00     0.038 A 
HETATM   24  C   UNK N   1      31.679  22.729  -3.487  0.00  0.00     0.022 A 
HETATM   25  C   UNK N   1      32.148  21.495  -3.946  0.00  0.00     0.011 A 
HETATM   26  C   UNK N   1      31.409  20.773  -4.887  0.00  0.00     0.022 A 
HETATM   27 Br   UNK N   1      33.797  20.802  -3.288  0.00  0.00    -0.051 Br
HETATM   28  C   UNK N   1      30.202  21.286  -5.372  0.00  0.00     0.038 A 
ENDBRANCH  21  22
ENDBRANCH  20  21
ENDBRANCH  19  20
ENDBRANCH  18  19
ENDBRANCH  17  18
ENDBRANCH   8  17
TORSDOF 6
ENDMDL
MODEL 6
REMARK VINA RESULT:      -5.9     12.624     15.370
REMARK  6 active torsions:
REMARK  status: ('A' for Active; 'I' for Inactive)
REMARK       I    between atoms: C_4  and  N_22 
REMARK       I    between atoms: C_7  and  N_23 
REMARK    1  A    between atoms: N_8  and  O_9 
REMARK    2  A    between atoms: O_9  and  C_10 
REMARK    3  A    between atoms: C_10  and  C_11 
REMARK    4  A    between atoms: C_11  and  C_12 
REMARK    5  A    between atoms: C_12  and  O_13 
REMARK    6  A    between atoms: O_13  and  C_14 
ROOT
HETATM    1  C   UNK N   1      35.348  11.574  13.005  0.00  0.00     0.158 A 
HETATM    2  N   UNK N   1      36.444  10.745  13.476  0.00  0.00    -0.197 N 
ATOM      3  HN  UNK N   1      36.404   9.743  13.288  1.00  0.00     0.180 HD
HETATM    4  C   UNK N   1      37.465  11.199  14.117  0.00  0.00     0.688 A 
HETATM    5  N   UNK N   1      37.579  12.578  14.424  0.00  0.00    -0.021 N 
ATOM      6  HN  UNK N   1      38.380  12.903  14.964  1.00  0.00     0.203 HD
HETATM    7  C   UNK N   1      36.695  13.427  14.039  0.00  0.00     0.714 A 
HETATM    8  N   UNK N   1      35.562  13.002  13.285  0.00  0.00    -0.058 N 
HETATM    9  C   UNK N   1      34.079  11.078  13.685  0.00  0.00     0.066 C 
HETATM   10  C   UNK N   1      35.208  11.363  11.509  0.00  0.00     0.066 C 
HETATM   11  N   UNK N   1      38.491  10.313  14.509  0.00  0.00    -0.234 N 
HETATM   12  N   UNK N   1      36.871  14.796  14.343  0.00  0.00    -0.232 N 
HETATM   13  H   UNK N   1      39.248  10.555  15.090  0.00  0.00     0.174 HD
HETATM   14  H   UNK N   1      38.448   9.387  14.177  0.00  0.00     0.174 HD
HETATM   15  H   UNK N   1      36.109  15.418  14.312  0.00  0.00     0.174 HD
HETATM   16  H   UNK N   1      37.764  15.131  14.587  0.00  0.00     0.174 HD
ENDROOT
BRANCH   8  17
HETATM   17  O   UNK N   1      34.797  13.950  12.691  0.00  0.00    -0.262 OA
BRANCH  17  18
HETATM   18  C   UNK N   1      35.538  14.514  11.646  0.00  0.00     0.204 C 
BRANCH  18  19
HETATM   19  C   UNK N   1      35.254  15.994  11.499  0.00  0.00     0.055 C 
BRANCH  19  20
HETATM   20  C   UNK N   1      35.295  16.331  10.021  0.00  0.00     0.178 C 
BRANCH  20  21
HETATM   21  O   UNK N   1      34.316  17.252   9.713  0.00  0.00    -0.351 OA
BRANCH  21  22
HETATM   22  C   UNK N   1      33.653  17.273   8.530  0.00  0.00     0.068 A 
HETATM   23  C   UNK N   1      34.391  17.283   7.342  0.00  0.00     0.038 A 
HETATM   24  C   UNK N   1      33.741  17.300   6.105  0.00  0.00     0.022 A 
HETATM   25  C   UNK N   1      32.345  17.302   6.048  0.00  0.00     0.011 A 
HETATM   26  C   UNK N   1      31.597  17.290   7.230  0.00  0.00     0.022 A 
HETATM   27 Br   UNK N   1      31.463  17.325   4.359  0.00  0.00    -0.051 Br
HETATM   28  C   UNK N   1      32.247  17.278   8.468  0.00  0.00     0.038 A 
ENDBRANCH  21  22
ENDBRANCH  20  21
ENDBRANCH  19  20
ENDBRANCH  18  19
ENDBRANCH  17  18
ENDBRANCH   8  17
TORSDOF 6
ENDMDL
MODEL 7
REMARK VINA RESULT:      -5.9     10.926     13.270
REMARK  6 active torsions:
REMARK  status: ('A' for Active; 'I' for Inactive)
REMARK       I    between atoms: C_4  and  N_22 
REMARK       I    between atoms: C_7  and  N_23 
REMARK    1  A    between atoms: N_8  and  O_9 
REMARK    2  A    between atoms: O_9  and  C_10 
REMARK    3  A    between atoms: C_10  and  C_11 
REMARK    4  A    between atoms: C_11  and  C_12 
REMARK    5  A    between atoms: C_12  and  O_13 
REMARK    6  A    between atoms: O_13  and  C_14 
ROOT
HETATM    1  C   UNK N   1      35.560  14.283   8.382  0.00  0.00     0.158 A 
HETATM    2  N   UNK N   1      36.861  13.846   8.859  0.00  0.00    -0.197 N 
ATOM      3  HN  UNK N   1      37.342  13.113   8.338  1.00  0.00     0.180 HD
HETATM    4  C   UNK N   1      37.445  14.329   9.901  0.00  0.00     0.688 A 
HETATM    5  N   UNK N   1      36.828  15.341  10.679  0.00  0.00    -0.021 N 
ATOM      6  HN  UNK N   1      37.297  15.678  11.519  1.00  0.00     0.203 HD
HETATM    7  C   UNK N   1      35.691  15.841  10.351  0.00  0.00     0.714 A 
HETATM    8  N   UNK N   1      35.009  15.386   9.184  0.00  0.00    -0.058 N 
HETATM    9  C   UNK N   1      34.633  13.076   8.420  0.00  0.00     0.066 C 
HETATM   10  C   UNK N   1      35.714  14.729   6.940  0.00  0.00     0.066 C 
HETATM   11  N   UNK N   1      38.722  13.853  10.266  0.00  0.00    -0.234 N 
HETATM   12  N   UNK N   1      35.133  16.870  11.142  0.00  0.00    -0.232 N 
HETATM   13  H   UNK N   1      39.189  14.089  11.100  0.00  0.00     0.174 HD
HETATM   14  H   UNK N   1      39.179  13.244   9.643  0.00  0.00     0.174 HD
HETATM   15  H   UNK N   1      34.172  17.078  11.088  0.00  0.00     0.174 HD
HETATM   16  H   UNK N   1      35.710  17.384  11.751  0.00  0.00     0.174 HD
ENDROOT
BRANCH   8  17
HETATM   17  O   UNK N   1      33.949  16.107   8.741  0.00  0.00    -0.262 OA
BRANCH  17  18
HETATM   18  C   UNK N   1      34.415  17.365   8.343  0.00  0.00     0.204 C 
BRANCH  18  19
HETATM   19  C   UNK N   1      33.273  18.296   7.994  0.00  0.00     0.055 C 
BRANCH  19  20
HETATM   20  C   UNK N   1      32.007  17.467   7.903  0.00  0.00     0.178 C 
BRANCH  20  21
HETATM   21  O   UNK N   1      31.558  17.420   6.601  0.00  0.00    -0.351 OA
BRANCH  21  22
HETATM   22  C   UNK N   1      32.105  16.626   5.647  0.00  0.00     0.068 A 
HETATM   23  C   UNK N   1      32.618  17.219   4.489  0.00  0.00     0.038 A 
HETATM   24  C   UNK N   1      33.193  16.432   3.487  0.00  0.00     0.022 A 
HETATM   25  C   UNK N   1      33.264  15.045   3.641  0.00  0.00     0.011 A 
HETATM   26  C   UNK N   1      32.756  14.443   4.796  0.00  0.00     0.022 A 
HETATM   27 Br   UNK N   1      34.051  13.977   2.272  0.00  0.00    -0.051 Br
HETATM   28  C   UNK N   1      32.176  15.228   5.796  0.00  0.00     0.038 A 
ENDBRANCH  21  22
ENDBRANCH  20  21
ENDBRANCH  19  20
ENDBRANCH  18  19
ENDBRANCH  17  18
ENDBRANCH   8  17
TORSDOF 6
ENDMDL
MODEL 8
REMARK VINA RESULT:      -5.9     11.003     12.198
REMARK  6 active torsions:
REMARK  status: ('A' for Active; 'I' for Inactive)
REMARK       I    between atoms: C_4  and  N_22 
REMARK       I    between atoms: C_7  and  N_23 
REMARK    1  A    between atoms: N_8  and  O_9 
REMARK    2  A    between atoms: O_9  and  C_10 
REMARK    3  A    between atoms: C_10  and  C_11 
REMARK    4  A    between atoms: C_11  and  C_12 
REMARK    5  A    between atoms: C_12  and  O_13 
REMARK    6  A    between atoms: O_13  and  C_14 
ROOT
HETATM    1  C   UNK N   1      25.980  26.189  -6.068  0.00  0.00     0.158 A 
HETATM    2  N   UNK N   1      25.483  25.001  -6.741  0.00  0.00    -0.197 N 
ATOM      3  HN  UNK N   1      24.975  25.122  -7.617  1.00  0.00     0.180 HD
HETATM    4  C   UNK N   1      25.646  23.802  -6.297  0.00  0.00     0.688 A 
HETATM    5  N   UNK N   1      26.331  23.563  -5.079  0.00  0.00    -0.021 N 
ATOM      6  HN  UNK N   1      26.412  22.606  -4.735  1.00  0.00     0.203 HD
HETATM    7  C   UNK N   1      26.849  24.522  -4.400  0.00  0.00     0.714 A 
HETATM    8  N   UNK N   1      26.747  25.869  -4.854  0.00  0.00    -0.058 N 
HETATM    9  C   UNK N   1      24.776  27.056  -5.729  0.00  0.00     0.066 C 
HETATM   10  C   UNK N   1      26.861  26.947  -7.043  0.00  0.00     0.066 C 
HETATM   11  N   UNK N   1      25.147  22.712  -7.040  0.00  0.00    -0.234 N 
HETATM   12  N   UNK N   1      27.549  24.227  -3.209  0.00  0.00    -0.232 N 
HETATM   13  H   UNK N   1      25.133  21.780  -6.724  0.00  0.00     0.174 HD
HETATM   14  H   UNK N   1      24.787  22.895  -7.937  0.00  0.00     0.174 HD
HETATM   15  H   UNK N   1      27.713  24.928  -2.537  0.00  0.00     0.174 HD
HETATM   16  H   UNK N   1      27.876  23.313  -3.048  0.00  0.00     0.174 HD
ENDROOT
BRANCH   8  17
HETATM   17  O   UNK N   1      27.514  26.808  -4.248  0.00  0.00    -0.262 OA
BRANCH  17  18
HETATM   18  C   UNK N   1      28.833  26.641  -4.686  0.00  0.00     0.204 C 
BRANCH  18  19
HETATM   19  C   UNK N   1      29.816  27.334  -3.767  0.00  0.00     0.055 C 
BRANCH  19  20
HETATM   20  C   UNK N   1      30.943  26.364  -3.472  0.00  0.00     0.178 C 
BRANCH  20  21
HETATM   21  O   UNK N   1      30.438  25.110  -3.206  0.00  0.00    -0.351 OA
BRANCH  21  22
HETATM   22  C   UNK N   1      31.126  23.962  -3.424  0.00  0.00     0.068 A 
HETATM   23  C   UNK N   1      32.110  23.943  -4.418  0.00  0.00     0.038 A 
HETATM   24  C   UNK N   1      32.842  22.779  -4.667  0.00  0.00     0.022 A 
HETATM   25  C   UNK N   1      32.599  21.625  -3.917  0.00  0.00     0.011 A 
HETATM   26  C   UNK N   1      31.620  21.634  -2.919  0.00  0.00     0.022 A 
HETATM   27 Br   UNK N   1      33.600  20.041  -4.260  0.00  0.00    -0.051 Br
HETATM   28  C   UNK N   1      30.883  22.796  -2.673  0.00  0.00     0.038 A 
ENDBRANCH  21  22
ENDBRANCH  20  21
ENDBRANCH  19  20
ENDBRANCH  18  19
ENDBRANCH  17  18
ENDBRANCH   8  17
TORSDOF 6
ENDMDL
MODEL 9
REMARK VINA RESULT:      -5.8      5.565      6.877
REMARK  6 active torsions:
REMARK  status: ('A' for Active; 'I' for Inactive)
REMARK       I    between atoms: C_4  and  N_22 
REMARK       I    between atoms: C_7  and  N_23 
REMARK    1  A    between atoms: N_8  and  O_9 
REMARK    2  A    between atoms: O_9  and  C_10 
REMARK    3  A    between atoms: C_10  and  C_11 
REMARK    4  A    between atoms: C_11  and  C_12 
REMARK    5  A    between atoms: C_12  and  O_13 
REMARK    6  A    between atoms: O_13  and  C_14 
ROOT
HETATM    1  C   UNK N   1      22.684  12.727   8.251  0.00  0.00     0.158 A 
HETATM    2  N   UNK N   1      21.791  12.364   9.339  0.00  0.00    -0.197 N 
ATOM      3  HN  UNK N   1      20.833  12.103   9.108  1.00  0.00     0.180 HD
HETATM    4  C   UNK N   1      22.139  12.353  10.580  0.00  0.00     0.688 A 
HETATM    5  N   UNK N   1      23.451  12.718  10.973  0.00  0.00    -0.021 N 
ATOM      6  HN  UNK N   1      23.685  12.734  11.965  1.00  0.00     0.203 HD
HETATM    7  C   UNK N   1      24.349  13.029  10.109  0.00  0.00     0.714 A 
HETATM    8  N   UNK N   1      24.048  13.018   8.716  0.00  0.00    -0.058 N 
HETATM    9  C   UNK N   1      22.083  13.940   7.556  0.00  0.00     0.066 C 
HETATM   10  C   UNK N   1      22.716  11.573   7.266  0.00  0.00     0.066 C 
HETATM   11  N   UNK N   1      21.203  11.960  11.560  0.00  0.00    -0.234 N 
HETATM   12  N   UNK N   1      25.651  13.353  10.551  0.00  0.00    -0.232 N 
HETATM   13  H   UNK N   1      21.350  12.024  12.531  0.00  0.00     0.174 HD
HETATM   14  H   UNK N   1      20.343  11.595  11.252  0.00  0.00     0.174 HD
HETATM   15  H   UNK N   1      26.269  13.851   9.967  0.00  0.00     0.174 HD
HETATM   16  H   UNK N   1      25.944  13.081  11.450  0.00  0.00     0.174 HD
ENDROOT
BRANCH   8  17
HETATM   17  O   UNK N   1      25.078  13.105   7.839  0.00  0.00    -0.262 OA
BRANCH  17  18
HETATM   18  C   UNK N   1      25.218  14.446   7.464  0.00  0.00     0.204 C 
BRANCH  18  19
HETATM   19  C   UNK N   1      25.477  14.584   5.979  0.00  0.00     0.055 C 
BRANCH  19  20
HETATM   20  C   UNK N   1      26.977  14.627   5.769  0.00  0.00     0.178 C 
BRANCH  20  21
HETATM   21  O   UNK N   1      27.307  15.612   4.863  0.00  0.00    -0.351 OA
BRANCH  21  22
HETATM   22  C   UNK N   1      27.252  16.938   5.143  0.00  0.00     0.068 A 
HETATM   23  C   UNK N   1      27.860  17.407   6.313  0.00  0.00     0.038 A 
HETATM   24  C   UNK N   1      27.827  18.767   6.630  0.00  0.00     0.022 A 
HETATM   25  C   UNK N   1      27.190  19.670   5.776  0.00  0.00     0.011 A 
HETATM   26  C   UNK N   1      26.582  19.213   4.603  0.00  0.00     0.022 A 
HETATM   27 Br   UNK N   1      27.149  21.525   6.214  0.00  0.00    -0.051 Br
HETATM   28  C   UNK N   1      26.609  17.851   4.287  0.00  0.00     0.038 A 
ENDBRANCH  21  22
ENDBRANCH  20  21
ENDBRANCH  19  20
ENDBRANCH  18  19
ENDBRANCH  17  18
ENDBRANCH   8  17
TORSDOF 6
ENDMDL
