REMARK  5 active torsions:
REMARK  status: ('A' for Active; 'I' for Inactive)
REMARK    1  A    between atoms: C_3  and  C_24 
REMARK    2  A    between atoms: C_7  and  C_8 
REMARK    3  A    between atoms: C_8  and  O_10 
REMARK    4  A    between atoms: C_11  and  C_12 
REMARK    5  A    between atoms: C_24  and  O_26 
ROOT
HETATM    1  S   UNK N   1       3.435   2.940  -0.403  0.00  0.00    -0.147 SA
HETATM    2  C   UNK N   1       4.617   1.905  -1.295  0.00  0.00     0.139 C 
HETATM    3  C   UNK N   1       5.471   1.232  -0.271  0.00  0.00     0.092 C 
HETATM    4  N   UNK N   1       5.036   0.193   0.359  0.00  0.00    -0.362 N 
ATOM      5  HN  UNK N   1       5.605  -0.204   1.106  1.00  0.00     0.165 HD
HETATM    6  C   UNK N   1       3.787  -0.418   0.045  0.00  0.00     0.104 C 
HETATM    7  C   UNK N   1       2.582   0.191  -0.060  0.00  0.00     0.050 C 
HETATM    8  C   UNK N   1       2.357   1.663   0.403  0.00  0.00     0.140 C 
ENDROOT
BRANCH   8   9
HETATM    9  C   UNK N   1       0.922   2.168   0.293  0.00  0.00     0.046 A 
HETATM   10  C   UNK N   1      -0.234   1.556   0.818  0.00  0.00     0.125 A 
HETATM   11  N   UNK N   1      -1.263   2.310   0.406  0.00  0.00    -0.303 N 
HETATM   12  C   UNK N   1      -0.758   3.335  -0.269  0.00  0.00     0.156 A 
HETATM   13  C   UNK N   1      -2.635   2.321   0.432  0.00  0.00     0.031 A 
HETATM   14  N   UNK N   1       0.574   3.305  -0.379  0.00  0.00    -0.337 N 
HETATM   15  S   UNK N   1      -1.967   4.318  -0.838  0.00  0.00    -0.056 SA
ATOM     16  HN  UNK N   1       1.184   3.971  -0.851  1.00  0.00     0.168 HD
HETATM   17  C   UNK N   1      -3.204   3.376  -0.213  0.00  0.00     0.009 A 
HETATM   18  C   UNK N   1      -4.668   3.357  -0.222  0.00  0.00     0.048 A 
HETATM   19  C   UNK N   1      -4.951   2.025   0.538  0.00  0.00     0.011 A 
HETATM   20  C   UNK N   1      -3.606   1.373   0.986  0.00  0.00     0.059 A 
ENDBRANCH   8   9
BRANCH   7  21
HETATM   21  C   UNK N   1       1.504  -0.694  -0.612  0.00  0.00     0.174 C 
HETATM   22  O   UNK N   1       0.439  -0.247  -0.993  0.00  0.00    -0.646 OA
BRANCH  21  23
HETATM   23  O   UNK N   1       1.740  -2.014  -0.765  0.00  0.00    -0.773 OA
HETATM   24  H   UNK N   1       1.028  -2.614  -0.871  0.00  0.00     0.167 HD
ENDBRANCH  21  23
ENDBRANCH   7  21
BRANCH   3  25
HETATM   25  C   UNK N   1       6.846   1.718  -0.040  0.00  0.00     0.190 C 
HETATM   26  O   UNK N   1       7.267   2.687  -0.653  0.00  0.00    -0.645 OA
BRANCH  25  27
HETATM   27  O   UNK N   1       7.660   1.067   0.813  0.00  0.00    -0.772 OA
HETATM   28  H   UNK N   1       7.551   0.350   1.406  0.00  0.00     0.167 HD
ENDBRANCH  25  27
ENDBRANCH   3  25
TORSDOF 5
