MODEL 1
REMARK VINA RESULT:      -7.0      0.000      0.000
REMARK  5 active torsions:
REMARK  status: ('A' for Active; 'I' for Inactive)
REMARK    1  A    between atoms: C_3  and  C_24 
REMARK    2  A    between atoms: C_7  and  C_8 
REMARK    3  A    between atoms: C_8  and  O_10 
REMARK    4  A    between atoms: C_11  and  C_12 
REMARK    5  A    between atoms: C_24  and  O_26 
ROOT
HETATM    1  S   UNK N   1      21.215  18.744   4.457  0.00  0.00    -0.147 SA
HETATM    2  C   UNK N   1      19.932  19.216   3.275  0.00  0.00     0.139 C 
HETATM    3  C   UNK N   1      20.534  19.120   1.912  0.00  0.00     0.092 C 
HETATM    4  N   UNK N   1      20.649  17.973   1.330  0.00  0.00    -0.362 N 
ATOM      5  HN  UNK N   1      21.131  17.922   0.433  1.00  0.00     0.165 HD
HETATM    6  C   UNK N   1      20.124  16.777   1.899  0.00  0.00     0.104 C 
HETATM    7  C   UNK N   1      20.325  16.312   3.155  0.00  0.00     0.050 C 
HETATM    8  C   UNK N   1      21.396  16.932   4.104  0.00  0.00     0.140 C 
ENDROOT
BRANCH   8   9
HETATM    9  C   UNK N   1      21.551  16.236   5.453  0.00  0.00     0.046 A 
HETATM   10  C   UNK N   1      22.529  15.285   5.808  0.00  0.00     0.125 A 
HETATM   11  N   UNK N   1      22.224  14.899   7.055  0.00  0.00    -0.303 N 
HETATM   12  C   UNK N   1      21.172  15.609   7.444  0.00  0.00     0.156 A 
HETATM   13  C   UNK N   1      22.627  13.992   8.003  0.00  0.00     0.031 A 
HETATM   14  N   UNK N   1      20.709  16.443   6.508  0.00  0.00    -0.337 N 
HETATM   15  S   UNK N   1      20.708  15.181   8.978  0.00  0.00    -0.056 SA
ATOM     16  HN  UNK N   1      19.916  17.082   6.567  1.00  0.00     0.168 HD
HETATM   17  C   UNK N   1      21.894  14.010   9.150  0.00  0.00     0.009 A 
HETATM   18  C   UNK N   1      22.299  13.009  10.138  0.00  0.00     0.048 A 
HETATM   19  C   UNK N   1      23.454  12.290   9.375  0.00  0.00     0.011 A 
HETATM   20  C   UNK N   1      23.675  12.968   7.987  0.00  0.00     0.059 A 
ENDBRANCH   8   9
BRANCH   7  21
HETATM   21  C   UNK N   1      19.462  15.137   3.510  0.00  0.00     0.174 C 
HETATM   22  O   UNK N   1      19.631  14.042   3.009  0.00  0.00    -0.646 OA
BRANCH  21  23
HETATM   23  O   UNK N   1      18.519  15.269   4.466  0.00  0.00    -0.773 OA
HETATM   24  H   UNK N   1      18.748  15.197   5.372  0.00  0.00     0.167 HD
ENDBRANCH  21  23
ENDBRANCH   7  21
BRANCH   3  25
HETATM   25  C   UNK N   1      20.927  20.354   1.203  0.00  0.00     0.190 C 
HETATM   26  O   UNK N   1      21.484  21.258   1.806  0.00  0.00    -0.645 OA
BRANCH  25  27
HETATM   27  O   UNK N   1      20.630  20.509  -0.102  0.00  0.00    -0.772 OA
HETATM   28  H   UNK N   1      21.082  20.868  -0.839  0.00  0.00     0.167 HD
ENDBRANCH  25  27
ENDBRANCH   3  25
TORSDOF 5
ENDMDL
MODEL 2
REMARK VINA RESULT:      -6.8      1.579      2.058
REMARK  5 active torsions:
REMARK  status: ('A' for Active; 'I' for Inactive)
REMARK    1  A    between atoms: C_3  and  C_24 
REMARK    2  A    between atoms: C_7  and  C_8 
REMARK    3  A    between atoms: C_8  and  O_10 
REMARK    4  A    between atoms: C_11  and  C_12 
REMARK    5  A    between atoms: C_24  and  O_26 
ROOT
HETATM    1  S   UNK N   1      22.450  17.962   5.158  0.00  0.00    -0.147 SA
HETATM    2  C   UNK N   1      21.204  19.200   4.738  0.00  0.00     0.139 C 
HETATM    3  C   UNK N   1      21.259  19.394   3.258  0.00  0.00     0.092 C 
HETATM    4  N   UNK N   1      20.686  18.548   2.468  0.00  0.00    -0.362 N 
ATOM      5  HN  UNK N   1      20.801  18.659   1.461  1.00  0.00     0.165 HD
HETATM    6  C   UNK N   1      19.898  17.466   2.957  0.00  0.00     0.104 C 
HETATM    7  C   UNK N   1      20.251  16.556   3.896  0.00  0.00     0.050 C 
HETATM    8  C   UNK N   1      21.717  16.429   4.414  0.00  0.00     0.140 C 
ENDROOT
BRANCH   8   9
HETATM    9  C   UNK N   1      21.960  15.299   5.409  0.00  0.00     0.046 A 
HETATM   10  C   UNK N   1      21.584  15.270   6.766  0.00  0.00     0.125 A 
HETATM   11  N   UNK N   1      22.075  14.123   7.255  0.00  0.00    -0.303 N 
HETATM   12  C   UNK N   1      22.655  13.479   6.250  0.00  0.00     0.156 A 
HETATM   13  C   UNK N   1      22.194  13.453   8.448  0.00  0.00     0.031 A 
HETATM   14  N   UNK N   1      22.624  14.148   5.092  0.00  0.00    -0.337 N 
HETATM   15  S   UNK N   1      23.313  12.048   6.768  0.00  0.00    -0.056 SA
ATOM     16  HN  UNK N   1      23.004  13.866   4.190  1.00  0.00     0.168 HD
HETATM   17  C   UNK N   1      22.858  12.268   8.366  0.00  0.00     0.009 A 
HETATM   18  C   UNK N   1      23.023  11.581   9.649  0.00  0.00     0.048 A 
HETATM   19  C   UNK N   1      22.345  12.599  10.618  0.00  0.00     0.011 A 
HETATM   20  C   UNK N   1      21.781  13.808   9.809  0.00  0.00     0.059 A 
ENDBRANCH   8   9
BRANCH   7  21
HETATM   21  C   UNK N   1      19.121  15.677   4.341  0.00  0.00     0.174 C 
HETATM   22  O   UNK N   1      18.388  15.988   5.260  0.00  0.00    -0.646 OA
BRANCH  21  23
HETATM   23  O   UNK N   1      18.853  14.543   3.660  0.00  0.00    -0.773 OA
HETATM   24  H   UNK N   1      19.513  14.139   3.132  0.00  0.00     0.167 HD
ENDBRANCH  21  23
ENDBRANCH   7  21
BRANCH   3  25
HETATM   25  C   UNK N   1      21.908  20.601   2.707  0.00  0.00     0.190 C 
HETATM   26  O   UNK N   1      23.094  20.809   2.913  0.00  0.00    -0.645 OA
BRANCH  25  27
HETATM   27  O   UNK N   1      21.185  21.503   2.016  0.00  0.00    -0.772 OA
HETATM   28  H   UNK N   1      20.960  21.610   1.113  0.00  0.00     0.167 HD
ENDBRANCH  25  27
ENDBRANCH   3  25
TORSDOF 5
ENDMDL
MODEL 3
REMARK VINA RESULT:      -6.7      8.147     10.167
REMARK  5 active torsions:
REMARK  status: ('A' for Active; 'I' for Inactive)
REMARK    1  A    between atoms: C_3  and  C_24 
REMARK    2  A    between atoms: C_7  and  C_8 
REMARK    3  A    between atoms: C_8  and  O_10 
REMARK    4  A    between atoms: C_11  and  C_12 
REMARK    5  A    between atoms: C_24  and  O_26 
ROOT
HETATM    1  S   UNK N   1      30.708  16.306   6.209  0.00  0.00    -0.147 SA
HETATM    2  C   UNK N   1      31.651  15.932   7.704  0.00  0.00     0.139 C 
HETATM    3  C   UNK N   1      32.462  17.144   8.026  0.00  0.00     0.092 C 
HETATM    4  N   UNK N   1      31.919  18.153   8.621  0.00  0.00    -0.362 N 
ATOM      5  HN  UNK N   1      32.472  18.998   8.762  1.00  0.00     0.165 HD
HETATM    6  C   UNK N   1      30.572  18.125   9.086  0.00  0.00     0.104 C 
HETATM    7  C   UNK N   1      29.470  17.774   8.381  0.00  0.00     0.050 C 
HETATM    8  C   UNK N   1      29.507  17.575   6.834  0.00  0.00     0.140 C 
ENDROOT
BRANCH   8   9
HETATM    9  C   UNK N   1      28.163  17.263   6.186  0.00  0.00     0.046 A 
HETATM   10  C   UNK N   1      27.249  18.188   5.642  0.00  0.00     0.125 A 
HETATM   11  N   UNK N   1      26.184  17.467   5.263  0.00  0.00    -0.303 N 
HETATM   12  C   UNK N   1      26.461  16.193   5.508  0.00  0.00     0.156 A 
HETATM   13  C   UNK N   1      24.921  17.645   4.757  0.00  0.00     0.031 A 
HETATM   14  N   UNK N   1      27.655  15.999   6.077  0.00  0.00    -0.337 N 
HETATM   15  S   UNK N   1      25.183  15.222   5.087  0.00  0.00    -0.056 SA
ATOM     16  HN  UNK N   1      28.084  15.120   6.362  1.00  0.00     0.168 HD
HETATM   17  C   UNK N   1      24.213  16.494   4.588  0.00  0.00     0.009 A 
HETATM   18  C   UNK N   1      22.850  16.694   4.092  0.00  0.00     0.048 A 
HETATM   19  C   UNK N   1      22.794  18.249   4.000  0.00  0.00     0.011 A 
HETATM   20  C   UNK N   1      24.172  18.856   4.411  0.00  0.00     0.059 A 
ENDBRANCH   8   9
BRANCH   7  21
HETATM   21  C   UNK N   1      28.232  17.645   9.218  0.00  0.00     0.174 C 
HETATM   22  O   UNK N   1      28.066  16.710   9.978  0.00  0.00    -0.646 OA
BRANCH  21  23
HETATM   23  O   UNK N   1      27.306  18.626   9.192  0.00  0.00    -0.773 OA
HETATM   24  H   UNK N   1      26.572  18.602   9.775  0.00  0.00     0.167 HD
ENDBRANCH  21  23
ENDBRANCH   7  21
BRANCH   3  25
HETATM   25  C   UNK N   1      33.908  17.149   7.729  0.00  0.00     0.190 C 
HETATM   26  O   UNK N   1      34.656  16.368   8.297  0.00  0.00    -0.645 OA
BRANCH  25  27
HETATM   27  O   UNK N   1      34.419  18.047   6.864  0.00  0.00    -0.772 OA
HETATM   28  H   UNK N   1      34.284  18.234   5.956  0.00  0.00     0.167 HD
ENDBRANCH  25  27
ENDBRANCH   3  25
TORSDOF 5
ENDMDL
MODEL 4
REMARK VINA RESULT:      -6.3     10.046     12.147
REMARK  5 active torsions:
REMARK  status: ('A' for Active; 'I' for Inactive)
REMARK    1  A    between atoms: C_3  and  C_24 
REMARK    2  A    between atoms: C_7  and  C_8 
REMARK    3  A    between atoms: C_8  and  O_10 
REMARK    4  A    between atoms: C_11  and  C_12 
REMARK    5  A    between atoms: C_24  and  O_26 
ROOT
HETATM    1  S   UNK N   1      31.721  17.597   8.049  0.00  0.00    -0.147 SA
HETATM    2  C   UNK N   1      33.470  18.049   8.038  0.00  0.00     0.139 C 
HETATM    3  C   UNK N   1      34.236  16.850   8.492  0.00  0.00     0.092 C 
HETATM    4  N   UNK N   1      34.480  15.883   7.672  0.00  0.00    -0.362 N 
ATOM      5  HN  UNK N   1      34.938  15.043   8.024  1.00  0.00     0.165 HD
HETATM    6  C   UNK N   1      34.131  15.952   6.292  0.00  0.00     0.104 C 
HETATM    7  C   UNK N   1      32.923  16.272   5.769  0.00  0.00     0.050 C 
HETATM    8  C   UNK N   1      31.642  16.380   6.651  0.00  0.00     0.140 C 
ENDROOT
BRANCH   8   9
HETATM    9  C   UNK N   1      30.351  16.666   5.892  0.00  0.00     0.046 A 
HETATM   10  C   UNK N   1      29.905  17.918   5.421  0.00  0.00     0.125 A 
HETATM   11  N   UNK N   1      28.693  17.696   4.893  0.00  0.00    -0.303 N 
HETATM   12  C   UNK N   1      28.451  16.395   4.988  0.00  0.00     0.156 A 
HETATM   13  C   UNK N   1      27.644  18.389   4.343  0.00  0.00     0.031 A 
HETATM   14  N   UNK N   1      29.425  15.708   5.594  0.00  0.00    -0.337 N 
HETATM   15  S   UNK N   1      26.955  16.028   4.373  0.00  0.00    -0.056 SA
ATOM     16  HN  UNK N   1      29.466  14.708   5.787  1.00  0.00     0.168 HD
HETATM   17  C   UNK N   1      26.581  17.616   3.988  0.00  0.00     0.009 A 
HETATM   18  C   UNK N   1      25.447  18.365   3.445  0.00  0.00     0.048 A 
HETATM   19  C   UNK N   1      25.980  19.827   3.550  0.00  0.00     0.011 A 
HETATM   20  C   UNK N   1      27.435  19.821   4.114  0.00  0.00     0.059 A 
ENDBRANCH   8   9
BRANCH   7  21
HETATM   21  C   UNK N   1      32.941  16.462   4.281  0.00  0.00     0.174 C 
HETATM   22  O   UNK N   1      33.063  17.562   3.776  0.00  0.00    -0.646 OA
BRANCH  21  23
HETATM   23  O   UNK N   1      32.898  15.383   3.472  0.00  0.00    -0.773 OA
HETATM   24  H   UNK N   1      33.457  15.330   2.722  0.00  0.00     0.167 HD
ENDBRANCH  21  23
ENDBRANCH   7  21
BRANCH   3  25
HETATM   25  C   UNK N   1      34.778  16.813   9.865  0.00  0.00     0.190 C 
HETATM   26  O   UNK N   1      35.687  17.562  10.188  0.00  0.00    -0.645 OA
BRANCH  25  27
HETATM   27  O   UNK N   1      34.307  15.919  10.756  0.00  0.00    -0.772 OA
HETATM   28  H   UNK N   1      33.650  15.251  10.730  0.00  0.00     0.167 HD
ENDBRANCH  25  27
ENDBRANCH   3  25
TORSDOF 5
ENDMDL
MODEL 5
REMARK VINA RESULT:      -6.3     12.952     15.680
REMARK  5 active torsions:
REMARK  status: ('A' for Active; 'I' for Inactive)
REMARK    1  A    between atoms: C_3  and  C_24 
REMARK    2  A    between atoms: C_7  and  C_8 
REMARK    3  A    between atoms: C_8  and  O_10 
REMARK    4  A    between atoms: C_11  and  C_12 
REMARK    5  A    between atoms: C_24  and  O_26 
ROOT
HETATM    1  S   UNK N   1      34.756  12.826   9.592  0.00  0.00    -0.147 SA
HETATM    2  C   UNK N   1      35.034  13.190  11.340  0.00  0.00     0.139 C 
HETATM    3  C   UNK N   1      36.509  13.323  11.531  0.00  0.00     0.092 C 
HETATM    4  N   UNK N   1      37.111  14.418  11.208  0.00  0.00    -0.362 N 
ATOM      5  HN  UNK N   1      38.127  14.460  11.277  1.00  0.00     0.165 HD
HETATM    6  C   UNK N   1      36.403  15.570  10.758  0.00  0.00     0.104 C 
HETATM    7  C   UNK N   1      35.477  15.628   9.771  0.00  0.00     0.050 C 
HETATM    8  C   UNK N   1      35.232  14.435   8.798  0.00  0.00     0.140 C 
ENDROOT
BRANCH   8   9
HETATM    9  C   UNK N   1      34.214  14.695   7.692  0.00  0.00     0.046 A 
HETATM   10  C   UNK N   1      34.458  15.297   6.441  0.00  0.00     0.125 A 
HETATM   11  N   UNK N   1      33.262  15.388   5.842  0.00  0.00    -0.303 N 
HETATM   12  C   UNK N   1      32.371  14.827   6.650  0.00  0.00     0.156 A 
HETATM   13  C   UNK N   1      32.692  15.905   4.707  0.00  0.00     0.031 A 
HETATM   14  N   UNK N   1      32.888  14.387   7.802  0.00  0.00    -0.337 N 
HETATM   15  S   UNK N   1      30.849  14.912   5.996  0.00  0.00    -0.056 SA
ATOM     16  HN  UNK N   1      32.408  13.931   8.576  1.00  0.00     0.168 HD
HETATM   17  C   UNK N   1      31.345  15.728   4.620  0.00  0.00     0.009 A 
HETATM   18  C   UNK N   1      30.736  16.323   3.429  0.00  0.00     0.048 A 
HETATM   19  C   UNK N   1      31.982  16.971   2.751  0.00  0.00     0.011 A 
HETATM   20  C   UNK N   1      33.262  16.662   3.588  0.00  0.00     0.059 A 
ENDBRANCH   8   9
BRANCH   7  21
HETATM   21  C   UNK N   1      34.765  16.946   9.687  0.00  0.00     0.174 C 
HETATM   22  O   UNK N   1      35.370  17.997   9.590  0.00  0.00    -0.646 OA
BRANCH  21  23
HETATM   23  O   UNK N   1      33.417  16.972   9.640  0.00  0.00    -0.773 OA
HETATM   24  H   UNK N   1      32.935  16.203   9.406  0.00  0.00     0.167 HD
ENDBRANCH  21  23
ENDBRANCH   7  21
BRANCH   3  25
HETATM   25  C   UNK N   1      37.261  12.222  12.165  0.00  0.00     0.190 C 
HETATM   26  O   UNK N   1      37.482  11.192  11.546  0.00  0.00    -0.645 OA
BRANCH  25  27
HETATM   27  O   UNK N   1      37.666  12.328  13.445  0.00  0.00    -0.772 OA
HETATM   28  H   UNK N   1      37.237  12.517  14.256  0.00  0.00     0.167 HD
ENDBRANCH  25  27
ENDBRANCH   3  25
TORSDOF 5
ENDMDL
MODEL 6
REMARK VINA RESULT:      -6.2     10.803     13.353
REMARK  5 active torsions:
REMARK  status: ('A' for Active; 'I' for Inactive)
REMARK    1  A    between atoms: C_3  and  C_24 
REMARK    2  A    between atoms: C_7  and  C_8 
REMARK    3  A    between atoms: C_8  and  O_10 
REMARK    4  A    between atoms: C_11  and  C_12 
REMARK    5  A    between atoms: C_24  and  O_26 
ROOT
HETATM    1  S   UNK N   1      32.394  14.855   9.537  0.00  0.00    -0.147 SA
HETATM    2  C   UNK N   1      34.086  15.011  10.150  0.00  0.00     0.139 C 
HETATM    3  C   UNK N   1      34.914  14.010   9.413  0.00  0.00     0.092 C 
HETATM    4  N   UNK N   1      35.324  14.259   8.215  0.00  0.00    -0.362 N 
ATOM      5  HN  UNK N   1      35.823  13.531   7.704  1.00  0.00     0.165 HD
HETATM    6  C   UNK N   1      35.104  15.517   7.583  0.00  0.00     0.104 C 
HETATM    7  C   UNK N   1      33.927  16.177   7.463  0.00  0.00     0.050 C 
HETATM    8  C   UNK N   1      32.563  15.505   7.808  0.00  0.00     0.140 C 
ENDROOT
BRANCH   8   9
HETATM    9  C   UNK N   1      31.329  16.359   7.538  0.00  0.00     0.046 A 
HETATM   10  C   UNK N   1      30.694  16.562   6.295  0.00  0.00     0.125 A 
HETATM   11  N   UNK N   1      29.712  17.443   6.529  0.00  0.00    -0.303 N 
HETATM   12  C   UNK N   1      29.717  17.707   7.830  0.00  0.00     0.156 A 
HETATM   13  C   UNK N   1      28.762  18.164   5.850  0.00  0.00     0.031 A 
HETATM   14  N   UNK N   1      30.686  17.079   8.504  0.00  0.00    -0.337 N 
HETATM   15  S   UNK N   1      28.540  18.811   8.211  0.00  0.00    -0.056 SA
ATOM     16  HN  UNK N   1      30.895  17.126   9.500  1.00  0.00     0.168 HD
HETATM   17  C   UNK N   1      28.007  18.983   6.632  0.00  0.00     0.009 A 
HETATM   18  C   UNK N   1      27.028  19.784   5.895  0.00  0.00     0.048 A 
HETATM   19  C   UNK N   1      27.323  19.337   4.430  0.00  0.00     0.011 A 
HETATM   20  C   UNK N   1      28.444  18.251   4.421  0.00  0.00     0.059 A 
ENDBRANCH   8   9
BRANCH   7  21
HETATM   21  C   UNK N   1      34.070  17.574   6.934  0.00  0.00     0.174 C 
HETATM   22  O   UNK N   1      33.990  17.820   5.745  0.00  0.00    -0.646 OA
BRANCH  21  23
HETATM   23  O   UNK N   1      34.214  18.601   7.796  0.00  0.00    -0.773 OA
HETATM   24  H   UNK N   1      33.656  19.352   7.738  0.00  0.00     0.167 HD
ENDBRANCH  21  23
ENDBRANCH   7  21
BRANCH   3  25
HETATM   25  C   UNK N   1      35.323  12.765  10.094  0.00  0.00     0.190 C 
HETATM   26  O   UNK N   1      34.841  12.469  11.177  0.00  0.00    -0.645 OA
BRANCH  25  27
HETATM   27  O   UNK N   1      36.266  11.973   9.549  0.00  0.00    -0.772 OA
HETATM   28  H   UNK N   1      37.144  12.108   9.251  0.00  0.00     0.167 HD
ENDBRANCH  25  27
ENDBRANCH   3  25
TORSDOF 5
ENDMDL
MODEL 7
REMARK VINA RESULT:      -6.1     13.612     15.425
REMARK  5 active torsions:
REMARK  status: ('A' for Active; 'I' for Inactive)
REMARK    1  A    between atoms: C_3  and  C_24 
REMARK    2  A    between atoms: C_7  and  C_8 
REMARK    3  A    between atoms: C_8  and  O_10 
REMARK    4  A    between atoms: C_11  and  C_12 
REMARK    5  A    between atoms: C_24  and  O_26 
ROOT
HETATM    1  S   UNK N   1      34.701  15.883  10.443  0.00  0.00    -0.147 SA
HETATM    2  C   UNK N   1      33.468  16.162   9.152  0.00  0.00     0.139 C 
HETATM    3  C   UNK N   1      34.209  16.321   7.865  0.00  0.00     0.092 C 
HETATM    4  N   UNK N   1      34.640  15.283   7.229  0.00  0.00    -0.362 N 
ATOM      5  HN  UNK N   1      35.207  15.418   6.393  1.00  0.00     0.165 HD
HETATM    6  C   UNK N   1      34.348  13.955   7.657  0.00  0.00     0.104 C 
HETATM    7  C   UNK N   1      34.524  13.438   8.896  0.00  0.00     0.050 C 
HETATM    8  C   UNK N   1      35.325  14.193  10.001  0.00  0.00     0.140 C 
ENDROOT
BRANCH   8   9
HETATM    9  C   UNK N   1      35.501  13.433  11.312  0.00  0.00     0.046 A 
HETATM   10  C   UNK N   1      36.636  12.708  11.726  0.00  0.00     0.125 A 
HETATM   11  N   UNK N   1      36.303  12.149  12.898  0.00  0.00    -0.303 N 
HETATM   12  C   UNK N   1      35.076  12.557  13.197  0.00  0.00     0.156 A 
HETATM   13  C   UNK N   1      36.811  11.279  13.830  0.00  0.00     0.031 A 
HETATM   14  N   UNK N   1      34.526  13.342  12.265  0.00  0.00    -0.337 N 
HETATM   15  S   UNK N   1      34.569  11.896  14.631  0.00  0.00    -0.056 SA
ATOM     16  HN  UNK N   1      33.601  13.770  12.264  1.00  0.00     0.168 HD
HETATM   17  C   UNK N   1      35.978  11.022  14.875  0.00  0.00     0.009 A 
HETATM   18  C   UNK N   1      36.506  10.057  15.842  0.00  0.00     0.048 A 
HETATM   19  C   UNK N   1      37.874   9.700  15.185  0.00  0.00     0.011 A 
HETATM   20  C   UNK N   1      38.071  10.533  13.880  0.00  0.00     0.059 A 
ENDBRANCH   8   9
BRANCH   7  21
HETATM   21  C   UNK N   1      33.921  12.076   9.074  0.00  0.00     0.174 C 
HETATM   22  O   UNK N   1      34.586  11.062   8.977  0.00  0.00    -0.646 OA
BRANCH  21  23
HETATM   23  O   UNK N   1      32.622  11.964   9.425  0.00  0.00    -0.773 OA
HETATM   24  H   UNK N   1      32.368  11.393  10.123  0.00  0.00     0.167 HD
ENDBRANCH  21  23
ENDBRANCH   7  21
BRANCH   3  25
HETATM   25  C   UNK N   1      34.378  17.668   7.286  0.00  0.00     0.190 C 
HETATM   26  O   UNK N   1      34.713  18.605   7.994  0.00  0.00    -0.645 OA
BRANCH  25  27
HETATM   27  O   UNK N   1      34.117  17.882   5.982  0.00  0.00    -0.772 OA
HETATM   28  H   UNK N   1      34.513  17.604   5.179  0.00  0.00     0.167 HD
ENDBRANCH  25  27
ENDBRANCH   3  25
TORSDOF 5
ENDMDL
MODEL 8
REMARK VINA RESULT:      -6.0     10.712     12.111
REMARK  5 active torsions:
REMARK  status: ('A' for Active; 'I' for Inactive)
REMARK    1  A    between atoms: C_3  and  C_24 
REMARK    2  A    between atoms: C_7  and  C_8 
REMARK    3  A    between atoms: C_8  and  O_10 
REMARK    4  A    between atoms: C_11  and  C_12 
REMARK    5  A    between atoms: C_24  and  O_26 
ROOT
HETATM    1  S   UNK N   1      30.719  14.464   5.584  0.00  0.00    -0.147 SA
HETATM    2  C   UNK N   1      30.951  15.043   3.888  0.00  0.00     0.139 C 
HETATM    3  C   UNK N   1      30.138  16.286   3.734  0.00  0.00     0.092 C 
HETATM    4  N   UNK N   1      30.582  17.414   4.180  0.00  0.00    -0.362 N 
ATOM      5  HN  UNK N   1      29.978  18.234   4.131  1.00  0.00     0.165 HD
HETATM    6  C   UNK N   1      31.887  17.550   4.737  0.00  0.00     0.104 C 
HETATM    7  C   UNK N   1      32.444  16.791   5.710  0.00  0.00     0.050 C 
HETATM    8  C   UNK N   1      31.606  15.778   6.549  0.00  0.00     0.140 C 
ENDROOT
BRANCH   8   9
HETATM    9  C   UNK N   1      32.370  15.065   7.660  0.00  0.00     0.046 A 
HETATM   10  C   UNK N   1      32.934  15.651   8.811  0.00  0.00     0.125 A 
HETATM   11  N   UNK N   1      33.569  14.658   9.450  0.00  0.00    -0.303 N 
HETATM   12  C   UNK N   1      33.353  13.543   8.764  0.00  0.00     0.156 A 
HETATM   13  C   UNK N   1      34.383  14.459  10.537  0.00  0.00     0.031 A 
HETATM   14  N   UNK N   1      32.630  13.724   7.654  0.00  0.00    -0.337 N 
HETATM   15  S   UNK N   1      34.122  12.256   9.474  0.00  0.00    -0.056 SA
ATOM     16  HN  UNK N   1      32.341  13.028   6.968  1.00  0.00     0.168 HD
HETATM   17  C   UNK N   1      34.789  13.171  10.710  0.00  0.00     0.009 A 
HETATM   18  C   UNK N   1      35.694  12.973  11.844  0.00  0.00     0.048 A 
HETATM   19  C   UNK N   1      35.830  14.434  12.373  0.00  0.00     0.011 A 
HETATM   20  C   UNK N   1      34.939  15.392  11.521  0.00  0.00     0.059 A 
ENDBRANCH   8   9
BRANCH   7  21
HETATM   21  C   UNK N   1      33.905  17.056   5.920  0.00  0.00     0.174 C 
HETATM   22  O   UNK N   1      34.301  18.064   6.474  0.00  0.00    -0.646 OA
BRANCH  21  23
HETATM   23  O   UNK N   1      34.810  16.122   5.558  0.00  0.00    -0.773 OA
HETATM   24  H   UNK N   1      35.614  16.375   5.149  0.00  0.00     0.167 HD
ENDBRANCH  21  23
ENDBRANCH   7  21
BRANCH   3  25
HETATM   25  C   UNK N   1      28.858  16.231   3.000  0.00  0.00     0.190 C 
HETATM   26  O   UNK N   1      27.971  17.033   3.248  0.00  0.00    -0.645 OA
BRANCH  25  27
HETATM   27  O   UNK N   1      28.643  15.265   2.087  0.00  0.00    -0.772 OA
HETATM   28  H   UNK N   1      27.899  14.985   1.591  0.00  0.00     0.167 HD
ENDBRANCH  25  27
ENDBRANCH   3  25
TORSDOF 5
ENDMDL
MODEL 9
REMARK VINA RESULT:      -5.9     14.701     16.575
REMARK  5 active torsions:
REMARK  status: ('A' for Active; 'I' for Inactive)
REMARK    1  A    between atoms: C_3  and  C_24 
REMARK    2  A    between atoms: C_7  and  C_8 
REMARK    3  A    between atoms: C_8  and  O_10 
REMARK    4  A    between atoms: C_11  and  C_12 
REMARK    5  A    between atoms: C_24  and  O_26 
ROOT
HETATM    1  S   UNK N   1      31.129  24.204  -3.489  0.00  0.00    -0.147 SA
HETATM    2  C   UNK N   1      32.090  23.103  -4.552  0.00  0.00     0.139 C 
HETATM    3  C   UNK N   1      31.837  21.708  -4.083  0.00  0.00     0.092 C 
HETATM    4  N   UNK N   1      30.755  21.093  -4.424  0.00  0.00    -0.362 N 
ATOM      5  HN  UNK N   1      30.568  20.171  -4.031  1.00  0.00     0.165 HD
HETATM    6  C   UNK N   1      29.813  21.660  -5.332  0.00  0.00     0.104 C 
HETATM    7  C   UNK N   1      29.254  22.891  -5.267  0.00  0.00     0.050 C 
HETATM    8  C   UNK N   1      29.394  23.798  -4.006  0.00  0.00     0.140 C 
ENDROOT
BRANCH   8   9
HETATM    9  C   UNK N   1      28.634  25.119  -4.066  0.00  0.00     0.046 A 
HETATM   10  C   UNK N   1      29.128  26.361  -4.511  0.00  0.00     0.125 A 
HETATM   11  N   UNK N   1      28.138  27.241  -4.306  0.00  0.00    -0.303 N 
HETATM   12  C   UNK N   1      27.101  26.565  -3.826  0.00  0.00     0.156 A 
HETATM   13  C   UNK N   1      27.892  28.588  -4.397  0.00  0.00     0.031 A 
HETATM   14  N   UNK N   1      27.341  25.262  -3.651  0.00  0.00    -0.337 N 
HETATM   15  S   UNK N   1      25.826  27.582  -3.521  0.00  0.00    -0.056 SA
ATOM     16  HN  UNK N   1      26.709  24.546  -3.293  1.00  0.00     0.168 HD
HETATM   17  C   UNK N   1      26.644  28.963  -4.002  0.00  0.00     0.009 A 
HETATM   18  C   UNK N   1      26.404  30.406  -4.057  0.00  0.00     0.048 A 
HETATM   19  C   UNK N   1      27.793  30.918  -4.549  0.00  0.00     0.011 A 
HETATM   20  C   UNK N   1      28.748  29.709  -4.795  0.00  0.00     0.059 A 
ENDBRANCH   8   9
BRANCH   7  21
HETATM   21  C   UNK N   1      28.466  23.262  -6.489  0.00  0.00     0.174 C 
HETATM   22  O   UNK N   1      27.292  22.969  -6.609  0.00  0.00    -0.646 OA
BRANCH  21  23
HETATM   23  O   UNK N   1      29.047  24.006  -7.454  0.00  0.00    -0.773 OA
HETATM   24  H   UNK N   1      28.541  24.624  -7.945  0.00  0.00     0.167 HD
ENDBRANCH  21  23
ENDBRANCH   7  21
BRANCH   3  25
HETATM   25  C   UNK N   1      32.868  21.010  -3.289  0.00  0.00     0.190 C 
HETATM   26  O   UNK N   1      33.698  20.305  -3.843  0.00  0.00    -0.645 OA
BRANCH  25  27
HETATM   27  O   UNK N   1      32.872  21.110  -1.946  0.00  0.00    -0.772 OA
HETATM   28  H   UNK N   1      32.219  21.020  -1.280  0.00  0.00     0.167 HD
ENDBRANCH  25  27
ENDBRANCH   3  25
TORSDOF 5
ENDMDL
