REMARK  10 active torsions:
REMARK  status: ('A' for Active; 'I' for Inactive)
REMARK    1  A    between atoms: N_9  and  C_14 
REMARK    2  A    between atoms: C_14  and  C_15 
REMARK    3  A    between atoms: C_15  and  O_16 
REMARK    4  A    between atoms: O_16  and  C_17 
REMARK    5  A    between atoms: C_20  and  C_23 
REMARK    6  A    between atoms: C_23  and  C_24 
REMARK    7  A    between atoms: C_24  and  C_25 
REMARK    8  A    between atoms: C_24  and  O_28 
REMARK    9  A    between atoms: C_25  and  O_26 
REMARK   10  A    between atoms: O_28  and  C_29 
ROOT
HETATM    1  O   UNK N   1       2.979  -1.949   0.164  0.00  0.00    -0.350 OA
ENDROOT
BRANCH   1   2
HETATM    2  C   UNK N   1       3.437  -0.640   0.169  0.00  0.00     0.196 C 
BRANCH   2   3
HETATM    3  C   UNK N   1       2.977   0.139  -1.068  0.00  0.00     0.156 C 
BRANCH   3   4
HETATM    4  N   UNK N   1       2.676   1.517  -0.688  0.00  0.00    -0.343 N 
HETATM    5  C   UNK N   1       3.576   2.466  -0.346  0.00  0.00     0.046 A 
HETATM    6  C   UNK N   1       2.935   3.643  -0.020  0.00  0.00     0.003 A 
HETATM    7  C   UNK N   1       4.962   2.350  -0.303  0.00  0.00     0.030 A 
HETATM    8  C   UNK N   1       3.639   4.777   0.371  0.00  0.00     0.014 A 
HETATM    9  C   UNK N   1       1.587   3.412  -0.166  0.00  0.00     0.003 A 
HETATM   10  C   UNK N   1       5.043   4.688   0.421  0.00  0.00     0.001 A 
HETATM   11  C   UNK N   1       5.700   3.482   0.086  0.00  0.00     0.002 A 
HETATM   12  C   UNK N   1       1.459   2.103  -0.584  0.00  0.00     0.046 A 
HETATM   13  C   UNK N   1       0.482   4.234   0.038  0.00  0.00     0.014 A 
HETATM   14  C   UNK N   1       0.205   1.543  -0.829  0.00  0.00     0.030 A 
HETATM   15  C   UNK N   1      -0.931   2.349  -0.628  0.00  0.00     0.002 A 
HETATM   16  C   UNK N   1      -0.793   3.687  -0.195  0.00  0.00     0.001 A 
ENDBRANCH   3   4
ENDBRANCH   2   3
ENDBRANCH   1   2
BRANCH   1  17
HETATM   17  C   UNK N   1       1.666  -2.291   0.085  0.00  0.00     0.068 A 
HETATM   18  C   UNK N   1       1.282  -3.634   0.182  0.00  0.00     0.037 A 
HETATM   19  C   UNK N   1      -0.071  -3.988   0.058  0.00  0.00     0.010 A 
HETATM   20  C   UNK N   1      -1.037  -2.999  -0.179  0.00  0.00    -0.055 A 
HETATM   21  C   UNK N   1      -0.648  -1.666  -0.273  0.00  0.00     0.010 A 
HETATM   22  C   UNK N   1       0.683  -1.318  -0.125  0.00  0.00     0.037 A 
BRANCH  20  23
HETATM   23  C   UNK N   1      -2.476  -3.370  -0.356  0.00  0.00     0.081 C 
BRANCH  23  24
HETATM   24  C   UNK N   1      -3.436  -2.587   0.569  0.00  0.00     0.223 C 
BRANCH  24  25
HETATM   25  C   UNK N   1      -3.541  -1.117   0.201  0.00  0.00     0.170 C 
HETATM   26  O   UNK N   1      -3.182  -0.261   0.994  0.00  0.00    -0.648 OA
BRANCH  25  27
HETATM   27  O   UNK N   1      -4.005  -0.746  -1.009  0.00  0.00    -0.774 OA
HETATM   28  H   UNK N   1      -3.943  -0.337  -1.850  0.00  0.00     0.167 HD
ENDBRANCH  25  27
ENDBRANCH  24  25
BRANCH  24  29
HETATM   29  O   UNK N   1      -4.711  -3.200   0.643  0.00  0.00    -0.375 OA
BRANCH  29  30
HETATM   30  C   UNK N   1      -5.280  -3.315  -0.638  0.00  0.00     0.164 C 
HETATM   31  C   UNK N   1      -6.787  -3.374  -0.513  0.00  0.00     0.033 C 
ENDBRANCH  29  30
ENDBRANCH  24  29
ENDBRANCH  23  24
ENDBRANCH  20  23
ENDBRANCH   1  17
TORSDOF 10
