MODEL 1
REMARK VINA RESULT:      -7.9      0.000      0.000
REMARK  10 active torsions:
REMARK  status: ('A' for Active; 'I' for Inactive)
REMARK    1  A    between atoms: N_9  and  C_14 
REMARK    2  A    between atoms: C_14  and  C_15 
REMARK    3  A    between atoms: C_15  and  O_16 
REMARK    4  A    between atoms: O_16  and  C_17 
REMARK    5  A    between atoms: C_20  and  C_23 
REMARK    6  A    between atoms: C_23  and  C_24 
REMARK    7  A    between atoms: C_24  and  C_25 
REMARK    8  A    between atoms: C_24  and  O_28 
REMARK    9  A    between atoms: C_25  and  O_26 
REMARK   10  A    between atoms: O_28  and  C_29 
ROOT
HETATM    1  O   UNK N   1      36.789  13.410  12.736  0.00  0.00    -0.350 OA
ENDROOT
BRANCH   1   2
HETATM    2  C   UNK N   1      36.482  13.579  14.078  0.00  0.00     0.196 C 
BRANCH   2   3
HETATM    3  C   UNK N   1      35.118  12.982  14.440  0.00  0.00     0.156 C 
BRANCH   3   4
HETATM    4  N   UNK N   1      35.285  12.013  15.520  0.00  0.00    -0.343 N 
HETATM    5  C   UNK N   1      35.452  10.679  15.378  0.00  0.00     0.046 A 
HETATM    6  C   UNK N   1      35.550  10.071  16.612  0.00  0.00     0.003 A 
HETATM    7  C   UNK N   1      35.525   9.951  14.195  0.00  0.00     0.030 A 
HETATM    8  C   UNK N   1      35.724   8.697  16.741  0.00  0.00     0.014 A 
HETATM    9  C   UNK N   1      35.438  11.068  17.553  0.00  0.00     0.003 A 
HETATM   10  C   UNK N   1      35.803   7.937  15.559  0.00  0.00     0.001 A 
HETATM   11  C   UNK N   1      35.704   8.560  14.294  0.00  0.00     0.002 A 
HETATM   12  C   UNK N   1      35.284  12.248  16.854  0.00  0.00     0.046 A 
HETATM   13  C   UNK N   1      35.452  11.030  18.945  0.00  0.00     0.014 A 
HETATM   14  C   UNK N   1      35.142  13.467  17.518  0.00  0.00     0.030 A 
HETATM   15  C   UNK N   1      35.150  13.459  18.926  0.00  0.00     0.002 A 
HETATM   16  C   UNK N   1      35.302  12.247  19.635  0.00  0.00     0.001 A 
ENDBRANCH   3   4
ENDBRANCH   2   3
ENDBRANCH   1   2
BRANCH   1  17
HETATM   17  C   UNK N   1      36.115  14.016  11.724  0.00  0.00     0.068 A 
HETATM   18  C   UNK N   1      35.878  15.395  11.764  0.00  0.00     0.037 A 
HETATM   19  C   UNK N   1      35.145  16.011  10.737  0.00  0.00     0.010 A 
HETATM   20  C   UNK N   1      34.636  15.243   9.678  0.00  0.00    -0.055 A 
HETATM   21  C   UNK N   1      34.878  13.873   9.645  0.00  0.00     0.010 A 
HETATM   22  C   UNK N   1      35.622  13.273  10.646  0.00  0.00     0.037 A 
BRANCH  20  23
HETATM   23  C   UNK N   1      33.817  15.883   8.602  0.00  0.00     0.081 C 
BRANCH  23  24
HETATM   24  C   UNK N   1      33.580  17.395   8.819  0.00  0.00     0.223 C 
BRANCH  24  25
HETATM   25  C   UNK N   1      34.475  18.263   7.951  0.00  0.00     0.170 C 
HETATM   26  O   UNK N   1      34.473  18.122   6.738  0.00  0.00    -0.648 OA
BRANCH  25  27
HETATM   27  O   UNK N   1      35.257  19.210   8.506  0.00  0.00    -0.774 OA
HETATM   28  H   UNK N   1      35.425  20.041   8.904  0.00  0.00     0.167 HD
ENDBRANCH  25  27
ENDBRANCH  24  25
BRANCH  24  29
HETATM   29  O   UNK N   1      32.214  17.739   8.670  0.00  0.00    -0.375 OA
BRANCH  29  30
HETATM   30  C   UNK N   1      31.492  16.670   8.110  0.00  0.00     0.164 C 
HETATM   31  C   UNK N   1      30.750  17.156   6.883  0.00  0.00     0.033 C 
ENDBRANCH  29  30
ENDBRANCH  24  29
ENDBRANCH  23  24
ENDBRANCH  20  23
ENDBRANCH   1  17
TORSDOF 10
ENDMDL
MODEL 2
REMARK VINA RESULT:      -7.7      0.283      2.862
REMARK  10 active torsions:
REMARK  status: ('A' for Active; 'I' for Inactive)
REMARK    1  A    between atoms: N_9  and  C_14 
REMARK    2  A    between atoms: C_14  and  C_15 
REMARK    3  A    between atoms: C_15  and  O_16 
REMARK    4  A    between atoms: O_16  and  C_17 
REMARK    5  A    between atoms: C_20  and  C_23 
REMARK    6  A    between atoms: C_23  and  C_24 
REMARK    7  A    between atoms: C_24  and  C_25 
REMARK    8  A    between atoms: C_24  and  O_28 
REMARK    9  A    between atoms: C_25  and  O_26 
REMARK   10  A    between atoms: O_28  and  C_29 
ROOT
HETATM    1  O   UNK N   1      36.563  13.103  12.486  0.00  0.00    -0.350 OA
ENDROOT
BRANCH   1   2
HETATM    2  C   UNK N   1      36.426  13.394  13.835  0.00  0.00     0.196 C 
BRANCH   2   3
HETATM    3  C   UNK N   1      35.045  13.006  14.374  0.00  0.00     0.156 C 
BRANCH   3   4
HETATM    4  N   UNK N   1      35.201  12.023  15.444  0.00  0.00    -0.343 N 
HETATM    5  C   UNK N   1      35.230  12.284  16.770  0.00  0.00     0.046 A 
HETATM    6  C   UNK N   1      35.419  11.120  17.486  0.00  0.00     0.003 A 
HETATM    7  C   UNK N   1      35.096  13.518  17.399  0.00  0.00     0.030 A 
HETATM    8  C   UNK N   1      35.488  11.117  18.875  0.00  0.00     0.014 A 
HETATM    9  C   UNK N   1      35.512  10.101  16.566  0.00  0.00     0.003 A 
HETATM   10  C   UNK N   1      35.354  12.352  19.537  0.00  0.00     0.001 A 
HETATM   11  C   UNK N   1      35.159  13.545  18.804  0.00  0.00     0.002 A 
HETATM   12  C   UNK N   1      35.367  10.684  15.324  0.00  0.00     0.046 A 
HETATM   13  C   UNK N   1      35.714   8.733  16.722  0.00  0.00     0.014 A 
HETATM   14  C   UNK N   1      35.411   9.918  14.158  0.00  0.00     0.030 A 
HETATM   15  C   UNK N   1      35.618   8.532  14.284  0.00  0.00     0.002 A 
HETATM   16  C   UNK N   1      35.770   7.943  15.559  0.00  0.00     0.001 A 
ENDBRANCH   3   4
ENDBRANCH   2   3
ENDBRANCH   1   2
BRANCH   1  17
HETATM   17  C   UNK N   1      35.911  13.772  11.499  0.00  0.00     0.068 A 
HETATM   18  C   UNK N   1      36.060  15.158  11.371  0.00  0.00     0.037 A 
HETATM   19  C   UNK N   1      35.352  15.852  10.376  0.00  0.00     0.010 A 
HETATM   20  C   UNK N   1      34.483  15.159   9.520  0.00  0.00    -0.055 A 
HETATM   21  C   UNK N   1      34.341  13.781   9.652  0.00  0.00     0.010 A 
HETATM   22  C   UNK N   1      35.059  13.097  10.617  0.00  0.00     0.037 A 
BRANCH  20  23
HETATM   23  C   UNK N   1      33.691  15.895   8.485  0.00  0.00     0.081 C 
BRANCH  23  24
HETATM   24  C   UNK N   1      33.532  17.403   8.783  0.00  0.00     0.223 C 
BRANCH  24  25
HETATM   25  C   UNK N   1      34.443  18.271   7.932  0.00  0.00     0.170 C 
HETATM   26  O   UNK N   1      34.463  18.133   6.719  0.00  0.00    -0.648 OA
BRANCH  25  27
HETATM   27  O   UNK N   1      35.217  19.216   8.503  0.00  0.00    -0.774 OA
HETATM   28  H   UNK N   1      36.002  19.718   8.608  0.00  0.00     0.167 HD
ENDBRANCH  25  27
ENDBRANCH  24  25
BRANCH  24  29
HETATM   29  O   UNK N   1      32.180  17.817   8.691  0.00  0.00    -0.375 OA
BRANCH  29  30
HETATM   30  C   UNK N   1      31.354  16.736   8.334  0.00  0.00     0.164 C 
HETATM   31  C   UNK N   1      30.257  17.226   7.414  0.00  0.00     0.033 C 
ENDBRANCH  29  30
ENDBRANCH  24  29
ENDBRANCH  23  24
ENDBRANCH  20  23
ENDBRANCH   1  17
TORSDOF 10
ENDMDL
MODEL 3
REMARK VINA RESULT:      -7.5      9.477     13.372
REMARK  10 active torsions:
REMARK  status: ('A' for Active; 'I' for Inactive)
REMARK    1  A    between atoms: N_9  and  C_14 
REMARK    2  A    between atoms: C_14  and  C_15 
REMARK    3  A    between atoms: C_15  and  O_16 
REMARK    4  A    between atoms: O_16  and  C_17 
REMARK    5  A    between atoms: C_20  and  C_23 
REMARK    6  A    between atoms: C_23  and  C_24 
REMARK    7  A    between atoms: C_24  and  C_25 
REMARK    8  A    between atoms: C_24  and  O_28 
REMARK    9  A    between atoms: C_25  and  O_26 
REMARK   10  A    between atoms: O_28  and  C_29 
ROOT
HETATM    1  O   UNK N   1      26.803  17.220   3.356  0.00  0.00    -0.350 OA
ENDROOT
BRANCH   1   2
HETATM    2  C   UNK N   1      27.898  17.575   4.129  0.00  0.00     0.196 C 
BRANCH   2   3
HETATM    3  C   UNK N   1      28.446  16.393   4.935  0.00  0.00     0.156 C 
BRANCH   3   4
HETATM    4  N   UNK N   1      29.475  16.869   5.856  0.00  0.00    -0.343 N 
HETATM    5  C   UNK N   1      30.803  16.927   5.609  0.00  0.00     0.046 A 
HETATM    6  C   UNK N   1      31.478  17.404   6.713  0.00  0.00     0.003 A 
HETATM    7  C   UNK N   1      31.468  16.573   4.439  0.00  0.00     0.030 A 
HETATM    8  C   UNK N   1      32.861  17.555   6.717  0.00  0.00     0.014 A 
HETATM    9  C   UNK N   1      30.531  17.650   7.679  0.00  0.00     0.003 A 
HETATM   10  C   UNK N   1      33.559  17.207   5.546  0.00  0.00     0.001 A 
HETATM   11  C   UNK N   1      32.867  16.719   4.414  0.00  0.00     0.002 A 
HETATM   12  C   UNK N   1      29.312  17.321   7.122  0.00  0.00     0.046 A 
HETATM   13  C   UNK N   1      30.644  18.125   8.983  0.00  0.00     0.014 A 
HETATM   14  C   UNK N   1      28.128  17.457   7.847  0.00  0.00     0.030 A 
HETATM   15  C   UNK N   1      28.211  17.931   9.169  0.00  0.00     0.002 A 
HETATM   16  C   UNK N   1      29.463  18.261   9.735  0.00  0.00     0.001 A 
ENDBRANCH   3   4
ENDBRANCH   2   3
ENDBRANCH   1   2
BRANCH   1  17
HETATM   17  C   UNK N   1      25.544  17.687   3.567  0.00  0.00     0.068 A 
HETATM   18  C   UNK N   1      24.500  16.795   3.841  0.00  0.00     0.037 A 
HETATM   19  C   UNK N   1      23.193  17.277   4.017  0.00  0.00     0.010 A 
HETATM   20  C   UNK N   1      22.930  18.650   3.902  0.00  0.00    -0.055 A 
HETATM   21  C   UNK N   1      23.973  19.530   3.631  0.00  0.00     0.010 A 
HETATM   22  C   UNK N   1      25.264  19.055   3.484  0.00  0.00     0.037 A 
BRANCH  20  23
HETATM   23  C   UNK N   1      21.533  19.169   4.045  0.00  0.00     0.081 C 
BRANCH  23  24
HETATM   24  C   UNK N   1      20.802  19.360   2.696  0.00  0.00     0.223 C 
BRANCH  24  25
HETATM   25  C   UNK N   1      21.249  20.609   1.955  0.00  0.00     0.170 C 
HETATM   26  O   UNK N   1      21.373  20.588   0.741  0.00  0.00    -0.648 OA
BRANCH  25  27
HETATM   27  O   UNK N   1      21.485  21.754   2.626  0.00  0.00    -0.774 OA
HETATM   28  H   UNK N   1      21.479  22.684   2.739  0.00  0.00     0.167 HD
ENDBRANCH  25  27
ENDBRANCH  24  25
BRANCH  24  29
HETATM   29  O   UNK N   1      20.896  18.206   1.880  0.00  0.00    -0.375 OA
BRANCH  29  30
HETATM   30  C   UNK N   1      19.920  17.262   2.243  0.00  0.00     0.164 C 
HETATM   31  C   UNK N   1      20.399  15.876   1.868  0.00  0.00     0.033 C 
ENDBRANCH  29  30
ENDBRANCH  24  29
ENDBRANCH  23  24
ENDBRANCH  20  23
ENDBRANCH   1  17
TORSDOF 10
ENDMDL
MODEL 4
REMARK VINA RESULT:      -7.4     19.784     22.826
REMARK  10 active torsions:
REMARK  status: ('A' for Active; 'I' for Inactive)
REMARK    1  A    between atoms: N_9  and  C_14 
REMARK    2  A    between atoms: C_14  and  C_15 
REMARK    3  A    between atoms: C_15  and  O_16 
REMARK    4  A    between atoms: O_16  and  C_17 
REMARK    5  A    between atoms: C_20  and  C_23 
REMARK    6  A    between atoms: C_23  and  C_24 
REMARK    7  A    between atoms: C_24  and  C_25 
REMARK    8  A    between atoms: C_24  and  O_28 
REMARK    9  A    between atoms: C_25  and  O_26 
REMARK   10  A    between atoms: O_28  and  C_29 
ROOT
HETATM    1  O   UNK N   1      25.211  24.147  -5.849  0.00  0.00    -0.350 OA
ENDROOT
BRANCH   1   2
HETATM    2  C   UNK N   1      26.132  23.128  -6.038  0.00  0.00     0.196 C 
BRANCH   2   3
HETATM    3  C   UNK N   1      27.470  23.648  -6.577  0.00  0.00     0.156 C 
BRANCH   3   4
HETATM    4  N   UNK N   1      28.545  22.762  -6.140  0.00  0.00    -0.343 N 
HETATM    5  C   UNK N   1      28.970  21.647  -6.776  0.00  0.00     0.046 A 
HETATM    6  C   UNK N   1      29.985  21.043  -6.063  0.00  0.00     0.003 A 
HETATM    7  C   UNK N   1      28.502  21.120  -7.975  0.00  0.00     0.030 A 
HETATM    8  C   UNK N   1      30.595  19.874  -6.505  0.00  0.00     0.014 A 
HETATM    9  C   UNK N   1      30.195  21.815  -4.944  0.00  0.00     0.003 A 
HETATM   10  C   UNK N   1      30.142  19.320  -7.717  0.00  0.00     0.001 A 
HETATM   11  C   UNK N   1      29.102  19.939  -8.447  0.00  0.00     0.002 A 
HETATM   12  C   UNK N   1      29.304  22.865  -5.022  0.00  0.00     0.046 A 
HETATM   13  C   UNK N   1      31.081  21.674  -3.879  0.00  0.00     0.014 A 
HETATM   14  C   UNK N   1      29.256  23.846  -4.030  0.00  0.00     0.030 A 
HETATM   15  C   UNK N   1      30.137  23.728  -2.939  0.00  0.00     0.002 A 
HETATM   16  C   UNK N   1      31.043  22.647  -2.863  0.00  0.00     0.001 A 
ENDBRANCH   3   4
ENDBRANCH   2   3
ENDBRANCH   1   2
BRANCH   1  17
HETATM   17  C   UNK N   1      25.517  25.350  -5.295  0.00  0.00     0.068 A 
HETATM   18  C   UNK N   1      26.124  25.411  -4.035  0.00  0.00     0.037 A 
HETATM   19  C   UNK N   1      26.400  26.656  -3.448  0.00  0.00     0.010 A 
HETATM   20  C   UNK N   1      26.055  27.840  -4.116  0.00  0.00    -0.055 A 
HETATM   21  C   UNK N   1      25.453  27.772  -5.369  0.00  0.00     0.010 A 
HETATM   22  C   UNK N   1      25.205  26.544  -5.956  0.00  0.00     0.037 A 
BRANCH  20  23
HETATM   23  C   UNK N   1      26.305  29.171  -3.480  0.00  0.00     0.081 C 
BRANCH  23  24
HETATM   24  C   UNK N   1      27.786  29.612  -3.527  0.00  0.00     0.223 C 
BRANCH  24  25
HETATM   25  C   UNK N   1      28.494  29.446  -2.193  0.00  0.00     0.170 C 
HETATM   26  O   UNK N   1      29.695  29.232  -2.161  0.00  0.00    -0.648 OA
BRANCH  25  27
HETATM   27  O   UNK N   1      27.809  29.559  -1.037  0.00  0.00    -0.774 OA
HETATM   28  H   UNK N   1      27.064  29.778  -0.513  0.00  0.00     0.167 HD
ENDBRANCH  25  27
ENDBRANCH  24  25
BRANCH  24  29
HETATM   29  O   UNK N   1      28.491  28.972  -4.576  0.00  0.00    -0.375 OA
BRANCH  29  30
HETATM   30  C   UNK N   1      28.747  29.875  -5.624  0.00  0.00     0.164 C 
HETATM   31  C   UNK N   1      28.411  29.217  -6.945  0.00  0.00     0.033 C 
ENDBRANCH  29  30
ENDBRANCH  24  29
ENDBRANCH  23  24
ENDBRANCH  20  23
ENDBRANCH   1  17
TORSDOF 10
ENDMDL
MODEL 5
REMARK VINA RESULT:      -7.4     19.835     23.000
REMARK  10 active torsions:
REMARK  status: ('A' for Active; 'I' for Inactive)
REMARK    1  A    between atoms: N_9  and  C_14 
REMARK    2  A    between atoms: C_14  and  C_15 
REMARK    3  A    between atoms: C_15  and  O_16 
REMARK    4  A    between atoms: O_16  and  C_17 
REMARK    5  A    between atoms: C_20  and  C_23 
REMARK    6  A    between atoms: C_23  and  C_24 
REMARK    7  A    between atoms: C_24  and  C_25 
REMARK    8  A    between atoms: C_24  and  O_28 
REMARK    9  A    between atoms: C_25  and  O_26 
REMARK   10  A    between atoms: O_28  and  C_29 
ROOT
HETATM    1  O   UNK N   1      25.257  24.231  -5.854  0.00  0.00    -0.350 OA
ENDROOT
BRANCH   1   2
HETATM    2  C   UNK N   1      26.163  23.185  -5.951  0.00  0.00     0.196 C 
BRANCH   2   3
HETATM    3  C   UNK N   1      27.494  23.627  -6.567  0.00  0.00     0.156 C 
BRANCH   3   4
HETATM    4  N   UNK N   1      28.550  22.708  -6.149  0.00  0.00    -0.343 N 
HETATM    5  C   UNK N   1      29.325  22.829  -5.048  0.00  0.00     0.046 A 
HETATM    6  C   UNK N   1      30.235  21.795  -4.982  0.00  0.00     0.003 A 
HETATM    7  C   UNK N   1      29.274  23.824  -4.075  0.00  0.00     0.030 A 
HETATM    8  C   UNK N   1      31.152  21.690  -3.942  0.00  0.00     0.014 A 
HETATM    9  C   UNK N   1      30.014  21.004  -6.086  0.00  0.00     0.003 A 
HETATM   10  C   UNK N   1      31.122  22.682  -2.943  0.00  0.00     0.001 A 
HETATM   11  C   UNK N   1      30.188  23.742  -3.010  0.00  0.00     0.002 A 
HETATM   12  C   UNK N   1      28.970  21.584  -6.778  0.00  0.00     0.046 A 
HETATM   13  C   UNK N   1      30.642  19.844  -6.531  0.00  0.00     0.014 A 
HETATM   14  C   UNK N   1      28.490  21.024  -7.962  0.00  0.00     0.030 A 
HETATM   15  C   UNK N   1      29.107  19.853  -8.439  0.00  0.00     0.002 A 
HETATM   16  C   UNK N   1      30.179  19.267  -7.728  0.00  0.00     0.001 A 
ENDBRANCH   3   4
ENDBRANCH   2   3
ENDBRANCH   1   2
BRANCH   1  17
HETATM   17  C   UNK N   1      25.548  25.433  -5.290  0.00  0.00     0.068 A 
HETATM   18  C   UNK N   1      26.183  25.490  -4.043  0.00  0.00     0.037 A 
HETATM   19  C   UNK N   1      26.443  26.732  -3.444  0.00  0.00     0.010 A 
HETATM   20  C   UNK N   1      26.053  27.917  -4.086  0.00  0.00    -0.055 A 
HETATM   21  C   UNK N   1      25.423  27.853  -5.325  0.00  0.00     0.010 A 
HETATM   22  C   UNK N   1      25.191  26.628  -5.924  0.00  0.00     0.037 A 
BRANCH  20  23
HETATM   23  C   UNK N   1      26.287  29.245  -3.436  0.00  0.00     0.081 C 
BRANCH  23  24
HETATM   24  C   UNK N   1      27.768  29.689  -3.450  0.00  0.00     0.223 C 
BRANCH  24  25
HETATM   25  C   UNK N   1      28.449  29.513  -2.104  0.00  0.00     0.170 C 
HETATM   26  O   UNK N   1      27.788  29.530  -1.077  0.00  0.00    -0.648 OA
BRANCH  25  27
HETATM   27  O   UNK N   1      29.780  29.313  -2.032  0.00  0.00    -0.774 OA
HETATM   28  H   UNK N   1      30.563  28.953  -1.662  0.00  0.00     0.167 HD
ENDBRANCH  25  27
ENDBRANCH  24  25
BRANCH  24  29
HETATM   29  O   UNK N   1      28.495  29.061  -4.491  0.00  0.00    -0.375 OA
BRANCH  29  30
HETATM   30  C   UNK N   1      28.749  29.968  -5.535  0.00  0.00     0.164 C 
HETATM   31  C   UNK N   1      28.427  29.309  -6.859  0.00  0.00     0.033 C 
ENDBRANCH  29  30
ENDBRANCH  24  29
ENDBRANCH  23  24
ENDBRANCH  20  23
ENDBRANCH   1  17
TORSDOF 10
ENDMDL
MODEL 6
REMARK VINA RESULT:      -7.3      5.748     11.117
REMARK  10 active torsions:
REMARK  status: ('A' for Active; 'I' for Inactive)
REMARK    1  A    between atoms: N_9  and  C_14 
REMARK    2  A    between atoms: C_14  and  C_15 
REMARK    3  A    between atoms: C_15  and  O_16 
REMARK    4  A    between atoms: O_16  and  C_17 
REMARK    5  A    between atoms: C_20  and  C_23 
REMARK    6  A    between atoms: C_23  and  C_24 
REMARK    7  A    between atoms: C_24  and  C_25 
REMARK    8  A    between atoms: C_24  and  O_28 
REMARK    9  A    between atoms: C_25  and  O_26 
REMARK   10  A    between atoms: O_28  and  C_29 
ROOT
HETATM    1  O   UNK N   1      32.218  16.536   4.156  0.00  0.00    -0.350 OA
ENDROOT
BRANCH   1   2
HETATM    2  C   UNK N   1      31.291  17.556   4.306  0.00  0.00     0.196 C 
BRANCH   2   3
HETATM    3  C   UNK N   1      29.878  17.021   4.565  0.00  0.00     0.156 C 
BRANCH   3   4
HETATM    4  N   UNK N   1      29.228  17.842   5.583  0.00  0.00    -0.343 N 
HETATM    5  C   UNK N   1      29.412  17.753   6.919  0.00  0.00     0.046 A 
HETATM    6  C   UNK N   1      28.615  18.666   7.577  0.00  0.00     0.003 A 
HETATM    7  C   UNK N   1      30.261  16.891   7.607  0.00  0.00     0.030 A 
HETATM    8  C   UNK N   1      28.615  18.774   8.964  0.00  0.00     0.014 A 
HETATM    9  C   UNK N   1      27.912  19.346   6.610  0.00  0.00     0.003 A 
HETATM   10  C   UNK N   1      29.467  17.915   9.684  0.00  0.00     0.001 A 
HETATM   11  C   UNK N   1      30.284  16.980   9.010  0.00  0.00     0.002 A 
HETATM   12  C   UNK N   1      28.314  18.825   5.397  0.00  0.00     0.046 A 
HETATM   13  C   UNK N   1      26.962  20.360   6.701  0.00  0.00     0.014 A 
HETATM   14  C   UNK N   1      27.786  19.301   4.197  0.00  0.00     0.030 A 
HETATM   15  C   UNK N   1      26.821  20.324   4.257  0.00  0.00     0.002 A 
HETATM   16  C   UNK N   1      26.410  20.849   5.502  0.00  0.00     0.001 A 
ENDBRANCH   3   4
ENDBRANCH   2   3
ENDBRANCH   1   2
BRANCH   1  17
HETATM   17  C   UNK N   1      32.860  15.938   5.194  0.00  0.00     0.068 A 
HETATM   18  C   UNK N   1      32.535  14.625   5.559  0.00  0.00     0.037 A 
HETATM   19  C   UNK N   1      33.170  14.025   6.658  0.00  0.00     0.010 A 
HETATM   20  C   UNK N   1      34.118  14.744   7.401  0.00  0.00    -0.055 A 
HETATM   21  C   UNK N   1      34.436  16.048   7.031  0.00  0.00     0.010 A 
HETATM   22  C   UNK N   1      33.827  16.627   5.932  0.00  0.00     0.037 A 
BRANCH  20  23
HETATM   23  C   UNK N   1      34.769  14.129   8.600  0.00  0.00     0.081 C 
BRANCH  23  24
HETATM   24  C   UNK N   1      35.047  15.137   9.739  0.00  0.00     0.223 C 
BRANCH  24  25
HETATM   25  C   UNK N   1      34.169  14.908  10.957  0.00  0.00     0.170 C 
HETATM   26  O   UNK N   1      34.675  14.621  12.030  0.00  0.00    -0.648 OA
BRANCH  25  27
HETATM   27  O   UNK N   1      32.831  15.044  10.871  0.00  0.00    -0.774 OA
HETATM   28  H   UNK N   1      31.947  14.911  11.153  0.00  0.00     0.167 HD
ENDBRANCH  25  27
ENDBRANCH  24  25
BRANCH  24  29
HETATM   29  O   UNK N   1      36.421  15.174  10.084  0.00  0.00    -0.375 OA
BRANCH  29  30
HETATM   30  C   UNK N   1      37.001  13.900   9.942  0.00  0.00     0.164 C 
HETATM   31  C   UNK N   1      38.448  14.052   9.527  0.00  0.00     0.033 C 
ENDBRANCH  29  30
ENDBRANCH  24  29
ENDBRANCH  23  24
ENDBRANCH  20  23
ENDBRANCH   1  17
TORSDOF 10
ENDMDL
MODEL 7
REMARK VINA RESULT:      -7.2      8.953     12.190
REMARK  10 active torsions:
REMARK  status: ('A' for Active; 'I' for Inactive)
REMARK    1  A    between atoms: N_9  and  C_14 
REMARK    2  A    between atoms: C_14  and  C_15 
REMARK    3  A    between atoms: C_15  and  O_16 
REMARK    4  A    between atoms: O_16  and  C_17 
REMARK    5  A    between atoms: C_20  and  C_23 
REMARK    6  A    between atoms: C_23  and  C_24 
REMARK    7  A    between atoms: C_24  and  C_25 
REMARK    8  A    between atoms: C_24  and  O_28 
REMARK    9  A    between atoms: C_25  and  O_26 
REMARK   10  A    between atoms: O_28  and  C_29 
ROOT
HETATM    1  O   UNK N   1      28.635  16.390   3.265  0.00  0.00    -0.350 OA
ENDROOT
BRANCH   1   2
HETATM    2  C   UNK N   1      29.849  16.726   3.845  0.00  0.00     0.196 C 
BRANCH   2   3
HETATM    3  C   UNK N   1      30.234  15.770   4.979  0.00  0.00     0.156 C 
BRANCH   3   4
HETATM    4  N   UNK N   1      30.621  16.545   6.155  0.00  0.00    -0.343 N 
HETATM    5  C   UNK N   1      31.880  16.888   6.506  0.00  0.00     0.046 A 
HETATM    6  C   UNK N   1      31.874  17.596   7.690  0.00  0.00     0.003 A 
HETATM    7  C   UNK N   1      33.061  16.606   5.827  0.00  0.00     0.030 A 
HETATM    8  C   UNK N   1      33.049  18.064   8.270  0.00  0.00     0.014 A 
HETATM    9  C   UNK N   1      30.561  17.693   8.086  0.00  0.00     0.003 A 
HETATM   10  C   UNK N   1      34.258  17.794   7.603  0.00  0.00     0.001 A 
HETATM   11  C   UNK N   1      34.264  17.070   6.389  0.00  0.00     0.002 A 
HETATM   12  C   UNK N   1      29.815  17.046   7.122  0.00  0.00     0.046 A 
HETATM   13  C   UNK N   1      29.974  18.283   9.202  0.00  0.00     0.014 A 
HETATM   14  C   UNK N   1      28.426  16.961   7.220  0.00  0.00     0.030 A 
HETATM   15  C   UNK N   1      27.804  17.546   8.340  0.00  0.00     0.002 A 
HETATM   16  C   UNK N   1      28.575  18.202   9.326  0.00  0.00     0.001 A 
ENDBRANCH   3   4
ENDBRANCH   2   3
ENDBRANCH   1   2
BRANCH   1  17
HETATM   17  C   UNK N   1      27.450  16.963   3.605  0.00  0.00     0.068 A 
HETATM   18  C   UNK N   1      27.395  18.322   3.935  0.00  0.00     0.037 A 
HETATM   19  C   UNK N   1      26.177  18.901   4.326  0.00  0.00     0.010 A 
HETATM   20  C   UNK N   1      25.018  18.115   4.400  0.00  0.00    -0.055 A 
HETATM   21  C   UNK N   1      25.079  16.765   4.069  0.00  0.00     0.010 A 
HETATM   22  C   UNK N   1      26.276  16.203   3.660  0.00  0.00     0.037 A 
BRANCH  20  23
HETATM   23  C   UNK N   1      23.723  18.712   4.857  0.00  0.00     0.081 C 
BRANCH  23  24
HETATM   24  C   UNK N   1      22.537  17.722   4.820  0.00  0.00     0.223 C 
BRANCH  24  25
HETATM   25  C   UNK N   1      21.863  17.558   6.171  0.00  0.00     0.170 C 
HETATM   26  O   UNK N   1      21.853  16.468   6.721  0.00  0.00    -0.648 OA
BRANCH  25  27
HETATM   27  O   UNK N   1      21.294  18.615   6.784  0.00  0.00    -0.774 OA
HETATM   28  H   UNK N   1      21.031  19.512   6.855  0.00  0.00     0.167 HD
ENDBRANCH  25  27
ENDBRANCH  24  25
BRANCH  24  29
HETATM   29  O   UNK N   1      21.604  18.057   3.807  0.00  0.00    -0.375 OA
BRANCH  29  30
HETATM   30  C   UNK N   1      21.833  19.362   3.337  0.00  0.00     0.164 C 
HETATM   31  C   UNK N   1      20.531  20.135   3.353  0.00  0.00     0.033 C 
ENDBRANCH  29  30
ENDBRANCH  24  29
ENDBRANCH  23  24
ENDBRANCH  20  23
ENDBRANCH   1  17
TORSDOF 10
ENDMDL
MODEL 8
REMARK VINA RESULT:      -7.2      2.234      3.485
REMARK  10 active torsions:
REMARK  status: ('A' for Active; 'I' for Inactive)
REMARK    1  A    between atoms: N_9  and  C_14 
REMARK    2  A    between atoms: C_14  and  C_15 
REMARK    3  A    between atoms: C_15  and  O_16 
REMARK    4  A    between atoms: O_16  and  C_17 
REMARK    5  A    between atoms: C_20  and  C_23 
REMARK    6  A    between atoms: C_23  and  C_24 
REMARK    7  A    between atoms: C_24  and  C_25 
REMARK    8  A    between atoms: C_24  and  O_28 
REMARK    9  A    between atoms: C_25  and  O_26 
REMARK   10  A    between atoms: O_28  and  C_29 
ROOT
HETATM    1  O   UNK N   1      34.705  14.763  11.240  0.00  0.00    -0.350 OA
ENDROOT
BRANCH   1   2
HETATM    2  C   UNK N   1      35.872  15.185  11.859  0.00  0.00     0.196 C 
BRANCH   2   3
HETATM    3  C   UNK N   1      36.703  14.011  12.389  0.00  0.00     0.156 C 
BRANCH   3   4
HETATM    4  N   UNK N   1      36.155  13.570  13.670  0.00  0.00    -0.343 N 
HETATM    5  C   UNK N   1      35.312  12.531  13.863  0.00  0.00     0.046 A 
HETATM    6  C   UNK N   1      34.980  12.421  15.197  0.00  0.00     0.003 A 
HETATM    7  C   UNK N   1      34.807  11.655  12.907  0.00  0.00     0.030 A 
HETATM    8  C   UNK N   1      34.120  11.430  15.659  0.00  0.00     0.014 A 
HETATM    9  C   UNK N   1      35.643  13.432  15.853  0.00  0.00     0.003 A 
HETATM   10  C   UNK N   1      33.597  10.528  14.713  0.00  0.00     0.001 A 
HETATM   11  C   UNK N   1      33.938  10.640  13.346  0.00  0.00     0.002 A 
HETATM   12  C   UNK N   1      36.361  14.115  14.893  0.00  0.00     0.046 A 
HETATM   13  C   UNK N   1      35.665  13.802  17.195  0.00  0.00     0.014 A 
HETATM   14  C   UNK N   1      37.154  15.212  15.229  0.00  0.00     0.030 A 
HETATM   15  C   UNK N   1      37.194  15.611  16.578  0.00  0.00     0.002 A 
HETATM   16  C   UNK N   1      36.452  14.911  17.556  0.00  0.00     0.001 A 
ENDBRANCH   3   4
ENDBRANCH   2   3
ENDBRANCH   1   2
BRANCH   1  17
HETATM   17  C   UNK N   1      34.138  15.398  10.181  0.00  0.00     0.068 A 
HETATM   18  C   UNK N   1      34.643  16.630   9.746  0.00  0.00     0.037 A 
HETATM   19  C   UNK N   1      34.029  17.304   8.678  0.00  0.00     0.010 A 
HETATM   20  C   UNK N   1      32.900  16.751   8.056  0.00  0.00    -0.055 A 
HETATM   21  C   UNK N   1      32.404  15.526   8.492  0.00  0.00     0.010 A 
HETATM   22  C   UNK N   1      33.027  14.853   9.528  0.00  0.00     0.037 A 
BRANCH  20  23
HETATM   23  C   UNK N   1      32.212  17.482   6.945  0.00  0.00     0.081 C 
BRANCH  23  24
HETATM   24  C   UNK N   1      32.360  16.796   5.568  0.00  0.00     0.223 C 
BRANCH  24  25
HETATM   25  C   UNK N   1      31.454  17.399   4.508  0.00  0.00     0.170 C 
HETATM   26  O   UNK N   1      30.300  17.687   4.782  0.00  0.00    -0.648 OA
BRANCH  25  27
HETATM   27  O   UNK N   1      31.922  17.646   3.268  0.00  0.00    -0.774 OA
HETATM   28  H   UNK N   1      32.115  17.428   2.378  0.00  0.00     0.167 HD
ENDBRANCH  25  27
ENDBRANCH  24  25
BRANCH  24  29
HETATM   29  O   UNK N   1      33.711  16.758   5.142  0.00  0.00    -0.375 OA
BRANCH  29  30
HETATM   30  C   UNK N   1      34.119  15.433   4.909  0.00  0.00     0.164 C 
HETATM   31  C   UNK N   1      35.298  15.109   5.801  0.00  0.00     0.033 C 
ENDBRANCH  29  30
ENDBRANCH  24  29
ENDBRANCH  23  24
ENDBRANCH  20  23
ENDBRANCH   1  17
TORSDOF 10
ENDMDL
MODEL 9
REMARK VINA RESULT:      -7.2     19.167     23.988
REMARK  10 active torsions:
REMARK  status: ('A' for Active; 'I' for Inactive)
REMARK    1  A    between atoms: N_9  and  C_14 
REMARK    2  A    between atoms: C_14  and  C_15 
REMARK    3  A    between atoms: C_15  and  O_16 
REMARK    4  A    between atoms: O_16  and  C_17 
REMARK    5  A    between atoms: C_20  and  C_23 
REMARK    6  A    between atoms: C_23  and  C_24 
REMARK    7  A    between atoms: C_24  and  C_25 
REMARK    8  A    between atoms: C_24  and  O_28 
REMARK    9  A    between atoms: C_25  and  O_26 
REMARK   10  A    between atoms: O_28  and  C_29 
ROOT
HETATM    1  O   UNK N   1      26.403  25.107  -4.060  0.00  0.00    -0.350 OA
ENDROOT
BRANCH   1   2
HETATM    2  C   UNK N   1      25.741  24.987  -5.273  0.00  0.00     0.196 C 
BRANCH   2   3
HETATM    3  C   UNK N   1      25.116  26.312  -5.724  0.00  0.00     0.156 C 
BRANCH   3   4
HETATM    4  N   UNK N   1      26.177  27.271  -6.023  0.00  0.00    -0.343 N 
HETATM    5  C   UNK N   1      26.529  28.334  -5.266  0.00  0.00     0.046 A 
HETATM    6  C   UNK N   1      27.553  29.036  -5.868  0.00  0.00     0.003 A 
HETATM    7  C   UNK N   1      25.986  28.730  -4.048  0.00  0.00     0.030 A 
HETATM    8  C   UNK N   1      28.096  30.178  -5.290  0.00  0.00     0.014 A 
HETATM    9  C   UNK N   1      27.844  28.381  -7.042  0.00  0.00     0.003 A 
HETATM   10  C   UNK N   1      27.567  30.600  -4.056  0.00  0.00     0.001 A 
HETATM   11  C   UNK N   1      26.518  29.881  -3.439  0.00  0.00     0.002 A 
HETATM   12  C   UNK N   1      26.990  27.299  -7.106  0.00  0.00     0.046 A 
HETATM   13  C   UNK N   1      28.772  28.651  -8.043  0.00  0.00     0.014 A 
HETATM   14  C   UNK N   1      27.025  26.415  -8.185  0.00  0.00     0.030 A 
HETATM   15  C   UNK N   1      27.951  26.664  -9.215  0.00  0.00     0.002 A 
HETATM   16  C   UNK N   1      28.819  27.777  -9.145  0.00  0.00     0.001 A 
ENDBRANCH   3   4
ENDBRANCH   2   3
ENDBRANCH   1   2
BRANCH   1  17
HETATM   17  C   UNK N   1      27.537  24.427  -3.747  0.00  0.00     0.068 A 
HETATM   18  C   UNK N   1      28.566  24.302  -4.689  0.00  0.00     0.037 A 
HETATM   19  C   UNK N   1      29.718  23.563  -4.377  0.00  0.00     0.010 A 
HETATM   20  C   UNK N   1      29.833  22.936  -3.127  0.00  0.00    -0.055 A 
HETATM   21  C   UNK N   1      28.807  23.065  -2.196  0.00  0.00     0.010 A 
HETATM   22  C   UNK N   1      27.684  23.815  -2.497  0.00  0.00     0.037 A 
BRANCH  20  23
HETATM   23  C   UNK N   1      31.038  22.110  -2.801  0.00  0.00     0.081 C 
BRANCH  23  24
HETATM   24  C   UNK N   1      31.749  21.531  -4.046  0.00  0.00     0.223 C 
BRANCH  24  25
HETATM   25  C   UNK N   1      33.235  21.307  -3.825  0.00  0.00     0.170 C 
HETATM   26  O   UNK N   1      34.050  21.851  -4.553  0.00  0.00    -0.648 OA
BRANCH  25  27
HETATM   27  O   UNK N   1      33.666  20.530  -2.812  0.00  0.00    -0.774 OA
HETATM   28  H   UNK N   1      33.962  20.367  -1.937  0.00  0.00     0.167 HD
ENDBRANCH  25  27
ENDBRANCH  24  25
BRANCH  24  29
HETATM   29  O   UNK N   1      31.108  20.361  -4.520  0.00  0.00    -0.375 OA
BRANCH  29  30
HETATM   30  C   UNK N   1      31.235  20.258  -5.917  0.00  0.00     0.164 C 
HETATM   31  C   UNK N   1      29.905  20.578  -6.566  0.00  0.00     0.033 C 
ENDBRANCH  29  30
ENDBRANCH  24  29
ENDBRANCH  23  24
ENDBRANCH  20  23
ENDBRANCH   1  17
TORSDOF 10
ENDMDL
