MODEL 1
REMARK VINA RESULT:      -6.8      0.000      0.000
REMARK  6 active torsions:
REMARK  status: ('A' for Active; 'I' for Inactive)
REMARK    1  A    between atoms: N_2  and  C_7 
REMARK    2  A    between atoms: C_6  and  C_21 
REMARK    3  A    between atoms: C_10  and  O_15 
REMARK    4  A    between atoms: O_15  and  C_16 
REMARK    5  A    between atoms: C_16  and  C_17 
REMARK    6  A    between atoms: C_21  and  O_22 
ROOT
HETATM    1  C   UNK N   1      31.329  16.553   5.874  0.00  0.00     0.057 C 
HETATM    2  C   UNK N   1      30.541  16.811   7.009  0.00  0.00     0.057 C 
HETATM    3  C   UNK N   1      29.438  17.542   6.881  0.00  0.00     0.080 C 
HETATM    4  C   UNK N   1      29.076  17.920   5.617  0.00  0.00     0.089 C 
HETATM    5  C   UNK N   1      29.728  17.471   4.458  0.00  0.00     0.040 C 
HETATM    6  C   UNK N   1      30.895  16.776   4.591  0.00  0.00     0.034 C 
HETATM    7  C   UNK N   1      28.737  18.027   8.045  0.00  0.00     0.102 C 
HETATM    8  N   UNK N   1      28.145  18.438   8.950  0.00  0.00    -0.191 NA
ENDROOT
BRANCH   4   9
HETATM    9  O   UNK N   1      28.065  18.700   5.514  0.00  0.00    -0.349 OA
BRANCH   9  10
HETATM   10  C   UNK N   1      27.711  19.061   4.275  0.00  0.00     0.184 C 
BRANCH  10  11
HETATM   11  C   UNK N   1      26.528  19.898   4.441  0.00  0.00    -0.029 C 
HETATM   12  C   UNK N   1      26.881  20.903   5.493  0.00  0.00     0.016 C 
HETATM   13  C   UNK N   1      26.230  20.583   3.113  0.00  0.00     0.016 C 
HETATM   14  C   UNK N   1      25.381  19.004   4.888  0.00  0.00     0.016 C 
ENDBRANCH  10  11
ENDBRANCH   9  10
ENDBRANCH   4   9
BRANCH   1  15
HETATM   15  N   UNK N   1      32.687  16.543   6.113  0.00  0.00    -0.267 N 
HETATM   16  C   UNK N   1      33.234  17.619   6.636  0.00  0.00     0.136 A 
HETATM   17  C   UNK N   1      34.344  17.254   7.215  0.00  0.00     0.072 A 
HETATM   18  C   UNK N   1      34.537  15.905   6.925  0.00  0.00     0.127 A 
HETATM   19  N   UNK N   1      33.481  15.501   6.198  0.00  0.00    -0.304 N 
ATOM     20  HN  UNK N   1      33.328  14.576   5.795  1.00  0.00     0.186 HD
BRANCH  17  21
HETATM   21  C   UNK N   1      34.638  17.960   8.440  0.00  0.00     0.179 C 
HETATM   22  O   UNK N   1      35.029  19.123   8.388  0.00  0.00    -0.646 OA
BRANCH  21  23
HETATM   23  O   UNK N   1      34.151  17.479   9.589  0.00  0.00    -0.773 OA
HETATM   24  H   UNK N   1      34.563  17.340  10.419  0.00  0.00     0.167 HD
ENDBRANCH  21  23
ENDBRANCH  17  21
ENDBRANCH   1  15
TORSDOF 6
ENDMDL
MODEL 2
REMARK VINA RESULT:      -6.7      6.121     10.187
REMARK  6 active torsions:
REMARK  status: ('A' for Active; 'I' for Inactive)
REMARK    1  A    between atoms: N_2  and  C_7 
REMARK    2  A    between atoms: C_6  and  C_21 
REMARK    3  A    between atoms: C_10  and  O_15 
REMARK    4  A    between atoms: O_15  and  C_16 
REMARK    5  A    between atoms: C_16  and  C_17 
REMARK    6  A    between atoms: C_21  and  O_22 
ROOT
HETATM    1  C   UNK N   1      35.382  14.723  10.573  0.00  0.00     0.057 C 
HETATM    2  C   UNK N   1      35.914  15.098  11.819  0.00  0.00     0.057 C 
HETATM    3  C   UNK N   1      36.216  14.156  12.706  0.00  0.00     0.080 C 
HETATM    4  C   UNK N   1      36.083  12.852  12.310  0.00  0.00     0.089 C 
HETATM    5  C   UNK N   1      35.776  12.470  10.995  0.00  0.00     0.040 C 
HETATM    6  C   UNK N   1      35.404  13.433  10.103  0.00  0.00     0.034 C 
HETATM    7  C   UNK N   1      36.536  14.503  14.069  0.00  0.00     0.102 C 
HETATM    8  N   UNK N   1      36.795  14.735  15.172  0.00  0.00    -0.191 NA
ENDROOT
BRANCH   4   9
HETATM    9  O   UNK N   1      36.289  11.954  13.201  0.00  0.00    -0.349 OA
BRANCH   9  10
HETATM   10  C   UNK N   1      35.754  10.749  12.971  0.00  0.00     0.184 C 
BRANCH  10  11
HETATM   11  C   UNK N   1      35.243  10.302  14.261  0.00  0.00    -0.029 C 
HETATM   12  C   UNK N   1      35.434   8.817  14.285  0.00  0.00     0.016 C 
HETATM   13  C   UNK N   1      36.054  10.974  15.363  0.00  0.00     0.016 C 
HETATM   14  C   UNK N   1      33.769  10.675  14.336  0.00  0.00     0.016 C 
ENDBRANCH  10  11
ENDBRANCH   9  10
ENDBRANCH   4   9
BRANCH   1  15
HETATM   15  N   UNK N   1      34.421  15.582  10.081  0.00  0.00    -0.267 N 
HETATM   16  C   UNK N   1      34.757  16.837   9.875  0.00  0.00     0.136 A 
HETATM   17  C   UNK N   1      33.926  17.326   8.997  0.00  0.00     0.072 A 
HETATM   18  C   UNK N   1      32.965  16.349   8.748  0.00  0.00     0.127 A 
HETATM   19  N   UNK N   1      33.297  15.271   9.479  0.00  0.00    -0.304 N 
ATOM     20  HN  UNK N   1      32.783  14.393   9.551  1.00  0.00     0.186 HD
BRANCH  17  21
HETATM   21  C   UNK N   1      34.521  18.258   8.068  0.00  0.00     0.179 C 
HETATM   22  O   UNK N   1      35.259  19.144   8.490  0.00  0.00    -0.646 OA
BRANCH  21  23
HETATM   23  O   UNK N   1      34.553  17.936   6.770  0.00  0.00    -0.773 OA
HETATM   24  H   UNK N   1      35.162  18.166   6.097  0.00  0.00     0.167 HD
ENDBRANCH  21  23
ENDBRANCH  17  21
ENDBRANCH   1  15
TORSDOF 6
ENDMDL
MODEL 3
REMARK VINA RESULT:      -6.6      2.640      7.435
REMARK  6 active torsions:
REMARK  status: ('A' for Active; 'I' for Inactive)
REMARK    1  A    between atoms: N_2  and  C_7 
REMARK    2  A    between atoms: C_6  and  C_21 
REMARK    3  A    between atoms: C_10  and  O_15 
REMARK    4  A    between atoms: O_15  and  C_16 
REMARK    5  A    between atoms: C_16  and  C_17 
REMARK    6  A    between atoms: C_21  and  O_22 
ROOT
HETATM    1  C   UNK N   1      31.706  16.474   6.453  0.00  0.00     0.057 C 
HETATM    2  C   UNK N   1      32.627  17.494   6.751  0.00  0.00     0.057 C 
HETATM    3  C   UNK N   1      33.657  17.226   7.546  0.00  0.00     0.080 C 
HETATM    4  C   UNK N   1      33.820  15.929   7.952  0.00  0.00     0.089 C 
HETATM    5  C   UNK N   1      33.042  14.864   7.471  0.00  0.00     0.040 C 
HETATM    6  C   UNK N   1      31.946  15.147   6.708  0.00  0.00     0.034 C 
HETATM    7  C   UNK N   1      34.483  18.289   8.064  0.00  0.00     0.102 C 
HETATM    8  N   UNK N   1      35.169  19.110   8.505  0.00  0.00    -0.191 NA
ENDROOT
BRANCH   4   9
HETATM    9  O   UNK N   1      34.762  15.699   8.790  0.00  0.00    -0.349 OA
BRANCH   9  10
HETATM   10  C   UNK N   1      34.486  14.843   9.780  0.00  0.00     0.184 C 
BRANCH  10  11
HETATM   11  C   UNK N   1      35.526  15.060  10.778  0.00  0.00    -0.029 C 
HETATM   12  C   UNK N   1      35.442  16.508  11.150  0.00  0.00     0.016 C 
HETATM   13  C   UNK N   1      35.236  14.171  11.982  0.00  0.00     0.016 C 
HETATM   14  C   UNK N   1      36.867  14.727  10.137  0.00  0.00     0.016 C 
ENDBRANCH  10  11
ENDBRANCH   9  10
ENDBRANCH   4   9
BRANCH   1  15
HETATM   15  N   UNK N   1      30.397  16.897   6.362  0.00  0.00    -0.267 N 
HETATM   16  C   UNK N   1      29.679  16.938   7.463  0.00  0.00     0.136 A 
HETATM   17  C   UNK N   1      28.706  17.784   7.267  0.00  0.00     0.072 A 
HETATM   18  C   UNK N   1      28.771  18.186   5.935  0.00  0.00     0.127 A 
HETATM   19  N   UNK N   1      29.837  17.576   5.388  0.00  0.00    -0.304 N 
ATOM     20  HN  UNK N   1      30.147  17.630   4.417  1.00  0.00     0.186 HD
BRANCH  17  21
HETATM   21  C   UNK N   1      28.356  18.571   8.426  0.00  0.00     0.179 C 
HETATM   22  O   UNK N   1      29.170  18.699   9.337  0.00  0.00    -0.646 OA
BRANCH  21  23
HETATM   23  O   UNK N   1      27.328  19.421   8.337  0.00  0.00    -0.773 OA
HETATM   24  H   UNK N   1      27.277  20.342   8.502  0.00  0.00     0.167 HD
ENDBRANCH  21  23
ENDBRANCH  17  21
ENDBRANCH   1  15
TORSDOF 6
ENDMDL
MODEL 4
REMARK VINA RESULT:      -6.6     10.832     13.221
REMARK  6 active torsions:
REMARK  status: ('A' for Active; 'I' for Inactive)
REMARK    1  A    between atoms: N_2  and  C_7 
REMARK    2  A    between atoms: C_6  and  C_21 
REMARK    3  A    between atoms: C_10  and  O_15 
REMARK    4  A    between atoms: O_15  and  C_16 
REMARK    5  A    between atoms: C_16  and  C_17 
REMARK    6  A    between atoms: C_21  and  O_22 
ROOT
HETATM    1  C   UNK N   1      29.789  23.041  -6.291  0.00  0.00     0.057 C 
HETATM    2  C   UNK N   1      28.488  22.595  -6.585  0.00  0.00     0.057 C 
HETATM    3  C   UNK N   1      27.465  23.428  -6.427  0.00  0.00     0.080 C 
HETATM    4  C   UNK N   1      27.752  24.720  -6.078  0.00  0.00     0.089 C 
HETATM    5  C   UNK N   1      29.058  25.232  -6.010  0.00  0.00     0.040 C 
HETATM    6  C   UNK N   1      30.106  24.364  -6.108  0.00  0.00     0.034 C 
HETATM    7  C   UNK N   1      26.107  22.946  -6.487  0.00  0.00     0.102 C 
HETATM    8  N   UNK N   1      25.003  22.602  -6.525  0.00  0.00    -0.191 NA
ENDROOT
BRANCH   4   9
HETATM    9  O   UNK N   1      26.756  25.490  -5.839  0.00  0.00    -0.349 OA
BRANCH   9  10
HETATM   10  C   UNK N   1      26.830  26.238  -4.733  0.00  0.00     0.184 C 
BRANCH  10  11
HETATM   11  C   UNK N   1      26.050  27.435  -5.025  0.00  0.00    -0.029 C 
HETATM   12  C   UNK N   1      26.934  28.307  -5.861  0.00  0.00     0.016 C 
HETATM   13  C   UNK N   1      24.803  27.023  -5.800  0.00  0.00     0.016 C 
HETATM   14  C   UNK N   1      25.700  28.101  -3.702  0.00  0.00     0.016 C 
ENDBRANCH  10  11
ENDBRANCH   9  10
ENDBRANCH   4   9
BRANCH   1  15
HETATM   15  N   UNK N   1      30.601  22.087  -5.715  0.00  0.00    -0.267 N 
HETATM   16  C   UNK N   1      31.497  22.481  -4.836  0.00  0.00     0.136 A 
HETATM   17  C   UNK N   1      31.792  21.455  -4.088  0.00  0.00     0.072 A 
HETATM   18  C   UNK N   1      31.126  20.352  -4.620  0.00  0.00     0.127 A 
HETATM   19  N   UNK N   1      30.409  20.789  -5.669  0.00  0.00    -0.304 N 
ATOM     20  HN  UNK N   1      29.834  20.229  -6.299  1.00  0.00     0.186 HD
BRANCH  17  21
HETATM   21  C   UNK N   1      32.031  21.777  -2.701  0.00  0.00     0.179 C 
HETATM   22  O   UNK N   1      31.213  22.460  -2.090  0.00  0.00    -0.646 OA
BRANCH  21  23
HETATM   23  O   UNK N   1      32.922  21.050  -2.019  0.00  0.00    -0.773 OA
HETATM   24  H   UNK N   1      32.834  20.557  -1.227  0.00  0.00     0.167 HD
ENDBRANCH  21  23
ENDBRANCH  17  21
ENDBRANCH   1  15
TORSDOF 6
ENDMDL
MODEL 5
REMARK VINA RESULT:      -6.5      2.654      7.511
REMARK  6 active torsions:
REMARK  status: ('A' for Active; 'I' for Inactive)
REMARK    1  A    between atoms: N_2  and  C_7 
REMARK    2  A    between atoms: C_6  and  C_21 
REMARK    3  A    between atoms: C_10  and  O_15 
REMARK    4  A    between atoms: O_15  and  C_16 
REMARK    5  A    between atoms: C_16  and  C_17 
REMARK    6  A    between atoms: C_21  and  O_22 
ROOT
HETATM    1  C   UNK N   1      27.613  18.937   5.583  0.00  0.00     0.057 C 
HETATM    2  C   UNK N   1      27.965  19.167   6.925  0.00  0.00     0.057 C 
HETATM    3  C   UNK N   1      28.946  18.455   7.469  0.00  0.00     0.080 C 
HETATM    4  C   UNK N   1      29.633  17.599   6.651  0.00  0.00     0.089 C 
HETATM    5  C   UNK N   1      29.442  17.536   5.262  0.00  0.00     0.040 C 
HETATM    6  C   UNK N   1      28.394  18.216   4.714  0.00  0.00     0.034 C 
HETATM    7  C   UNK N   1      29.178  18.488   8.893  0.00  0.00     0.102 C 
HETATM    8  N   UNK N   1      29.398  18.483  10.029  0.00  0.00    -0.191 NA
ENDROOT
BRANCH   4   9
HETATM    9  O   UNK N   1      30.515  16.852   7.205  0.00  0.00    -0.349 OA
BRANCH   9  10
HETATM   10  C   UNK N   1      31.724  16.829   6.634  0.00  0.00     0.184 C 
BRANCH  10  11
HETATM   11  C   UNK N   1      32.669  16.698   7.737  0.00  0.00    -0.029 C 
HETATM   12  C   UNK N   1      32.927  18.091   8.223  0.00  0.00     0.016 C 
HETATM   13  C   UNK N   1      32.024  15.852   8.829  0.00  0.00     0.016 C 
HETATM   14  C   UNK N   1      33.936  16.053   7.195  0.00  0.00     0.016 C 
ENDBRANCH  10  11
ENDBRANCH   9  10
ENDBRANCH   4   9
BRANCH   1  15
HETATM   15  N   UNK N   1      26.262  19.033   5.324  0.00  0.00    -0.267 N 
HETATM   16  C   UNK N   1      25.802  20.162   4.830  0.00  0.00     0.136 A 
HETATM   17  C   UNK N   1      24.679  19.897   4.224  0.00  0.00     0.072 A 
HETATM   18  C   UNK N   1      24.385  18.557   4.465  0.00  0.00     0.127 A 
HETATM   19  N   UNK N   1      25.397  18.054   5.194  0.00  0.00    -0.304 N 
ATOM     20  HN  UNK N   1      25.477  17.108   5.567  1.00  0.00     0.186 HD
BRANCH  17  21
HETATM   21  C   UNK N   1      24.457  20.661   3.019  0.00  0.00     0.179 C 
HETATM   22  O   UNK N   1      25.246  20.558   2.084  0.00  0.00    -0.646 OA
BRANCH  21  23
HETATM   23  O   UNK N   1      23.242  21.176   2.801  0.00  0.00    -0.773 OA
HETATM   24  H   UNK N   1      22.494  21.240   3.362  0.00  0.00     0.167 HD
ENDBRANCH  21  23
ENDBRANCH  17  21
ENDBRANCH   1  15
TORSDOF 6
ENDMDL
MODEL 6
REMARK VINA RESULT:      -6.5      9.309     12.817
REMARK  6 active torsions:
REMARK  status: ('A' for Active; 'I' for Inactive)
REMARK    1  A    between atoms: N_2  and  C_7 
REMARK    2  A    between atoms: C_6  and  C_21 
REMARK    3  A    between atoms: C_10  and  O_15 
REMARK    4  A    between atoms: O_15  and  C_16 
REMARK    5  A    between atoms: C_16  and  C_17 
REMARK    6  A    between atoms: C_21  and  O_22 
ROOT
HETATM    1  C   UNK N   1      35.972  13.022  13.948  0.00  0.00     0.057 C 
HETATM    2  C   UNK N   1      35.925  13.781  15.132  0.00  0.00     0.057 C 
HETATM    3  C   UNK N   1      35.843  13.155  16.301  0.00  0.00     0.080 C 
HETATM    4  C   UNK N   1      35.911  11.788  16.291  0.00  0.00     0.089 C 
HETATM    5  C   UNK N   1      36.191  11.035  15.139  0.00  0.00     0.040 C 
HETATM    6  C   UNK N   1      36.211  11.670  13.931  0.00  0.00     0.034 C 
HETATM    7  C   UNK N   1      35.555  13.888  17.509  0.00  0.00     0.102 C 
HETATM    8  N   UNK N   1      35.324  14.435  18.502  0.00  0.00    -0.191 NA
ENDROOT
BRANCH   4   9
HETATM    9  O   UNK N   1      35.739  11.192  17.412  0.00  0.00    -0.349 OA
BRANCH   9  10
HETATM   10  C   UNK N   1      34.959  10.105  17.398  0.00  0.00     0.184 C 
BRANCH  10  11
HETATM   11  C   UNK N   1      35.025   9.567  18.752  0.00  0.00    -0.029 C 
HETATM   12  C   UNK N   1      36.184   8.619  18.759  0.00  0.00     0.016 C 
HETATM   13  C   UNK N   1      35.259  10.720  19.721  0.00  0.00     0.016 C 
HETATM   14  C   UNK N   1      33.715   8.846  19.034  0.00  0.00     0.016 C 
ENDBRANCH  10  11
ENDBRANCH   9  10
ENDBRANCH   4   9
BRANCH   1  15
HETATM   15  N   UNK N   1      35.292  13.580  12.886  0.00  0.00    -0.267 N 
HETATM   16  C   UNK N   1      35.476  14.857  12.633  0.00  0.00     0.136 A 
HETATM   17  C   UNK N   1      35.169  15.058  11.382  0.00  0.00     0.072 A 
HETATM   18  C   UNK N   1      34.660  13.860  10.884  0.00  0.00     0.127 A 
HETATM   19  N   UNK N   1      34.725  12.958  11.879  0.00  0.00    -0.304 N 
ATOM     20  HN  UNK N   1      34.401  11.991  11.856  1.00  0.00     0.186 HD
BRANCH  17  21
HETATM   21  C   UNK N   1      36.004  16.026  10.710  0.00  0.00     0.179 C 
HETATM   22  O   UNK N   1      35.573  17.157  10.505  0.00  0.00    -0.646 OA
BRANCH  21  23
HETATM   23  O   UNK N   1      37.321  15.801  10.646  0.00  0.00    -0.773 OA
HETATM   24  H   UNK N   1      38.040  16.394  10.552  0.00  0.00     0.167 HD
ENDBRANCH  21  23
ENDBRANCH  17  21
ENDBRANCH   1  15
TORSDOF 6
ENDMDL
MODEL 7
REMARK VINA RESULT:      -6.4      9.030     11.125
REMARK  6 active torsions:
REMARK  status: ('A' for Active; 'I' for Inactive)
REMARK    1  A    between atoms: N_2  and  C_7 
REMARK    2  A    between atoms: C_6  and  C_21 
REMARK    3  A    between atoms: C_10  and  O_15 
REMARK    4  A    between atoms: O_15  and  C_16 
REMARK    5  A    between atoms: C_16  and  C_17 
REMARK    6  A    between atoms: C_21  and  O_22 
ROOT
HETATM    1  C   UNK N   1      21.466  17.538   5.230  0.00  0.00     0.057 C 
HETATM    2  C   UNK N   1      20.704  17.353   6.397  0.00  0.00     0.057 C 
HETATM    3  C   UNK N   1      20.924  16.282   7.152  0.00  0.00     0.080 C 
HETATM    4  C   UNK N   1      21.961  15.462   6.798  0.00  0.00     0.089 C 
HETATM    5  C   UNK N   1      22.871  15.765   5.772  0.00  0.00     0.040 C 
HETATM    6  C   UNK N   1      22.608  16.827   4.957  0.00  0.00     0.034 C 
HETATM    7  C   UNK N   1      20.015  15.932   8.216  0.00  0.00     0.102 C 
HETATM    8  N   UNK N   1      19.311  15.613   9.078  0.00  0.00    -0.191 NA
ENDROOT
BRANCH   4   9
HETATM    9  O   UNK N   1      22.106  14.386   7.477  0.00  0.00    -0.349 OA
BRANCH   9  10
HETATM   10  C   UNK N   1      23.337  14.127   7.933  0.00  0.00     0.184 C 
BRANCH  10  11
HETATM   11  C   UNK N   1      23.181  13.000   8.845  0.00  0.00    -0.029 C 
HETATM   12  C   UNK N   1      22.637  11.876   8.019  0.00  0.00     0.016 C 
HETATM   13  C   UNK N   1      24.549  12.644   9.415  0.00  0.00     0.016 C 
HETATM   14  C   UNK N   1      22.203  13.413   9.937  0.00  0.00     0.016 C 
ENDBRANCH  10  11
ENDBRANCH   9  10
ENDBRANCH   4   9
BRANCH   1  15
HETATM   15  N   UNK N   1      20.766  18.083   4.174  0.00  0.00    -0.267 N 
HETATM   16  C   UNK N   1      20.911  19.367   3.929  0.00  0.00     0.136 A 
HETATM   17  C   UNK N   1      20.595  19.568   2.681  0.00  0.00     0.072 A 
HETATM   18  C   UNK N   1      20.121  18.359   2.176  0.00  0.00     0.127 A 
HETATM   19  N   UNK N   1      20.216  17.453   3.163  0.00  0.00    -0.304 N 
ATOM     20  HN  UNK N   1      19.921  16.476   3.134  1.00  0.00     0.186 HD
BRANCH  17  21
HETATM   21  C   UNK N   1      21.399  20.566   2.014  0.00  0.00     0.179 C 
HETATM   22  O   UNK N   1      21.433  20.592   0.787  0.00  0.00    -0.646 OA
BRANCH  21  23
HETATM   23  O   UNK N   1      21.793  21.639   2.708  0.00  0.00    -0.773 OA
HETATM   24  H   UNK N   1      21.534  21.953   3.551  0.00  0.00     0.167 HD
ENDBRANCH  21  23
ENDBRANCH  17  21
ENDBRANCH   1  15
TORSDOF 6
ENDMDL
MODEL 8
REMARK VINA RESULT:      -6.4     10.769     14.193
REMARK  6 active torsions:
REMARK  status: ('A' for Active; 'I' for Inactive)
REMARK    1  A    between atoms: N_2  and  C_7 
REMARK    2  A    between atoms: C_6  and  C_21 
REMARK    3  A    between atoms: C_10  and  O_15 
REMARK    4  A    between atoms: O_15  and  C_16 
REMARK    5  A    between atoms: C_16  and  C_17 
REMARK    6  A    between atoms: C_21  and  O_22 
ROOT
HETATM    1  C   UNK N   1      28.845  23.006  -5.991  0.00  0.00     0.057 C 
HETATM    2  C   UNK N   1      29.274  23.411  -4.714  0.00  0.00     0.057 C 
HETATM    3  C   UNK N   1      30.067  22.610  -4.011  0.00  0.00     0.080 C 
HETATM    4  C   UNK N   1      30.507  21.466  -4.620  0.00  0.00     0.089 C 
HETATM    5  C   UNK N   1      30.273  21.170  -5.972  0.00  0.00     0.040 C 
HETATM    6  C   UNK N   1      29.408  21.957  -6.674  0.00  0.00     0.034 C 
HETATM    7  C   UNK N   1      30.333  22.875  -2.618  0.00  0.00     0.102 C 
HETATM    8  N   UNK N   1      30.572  23.048  -1.500  0.00  0.00    -0.191 NA
ENDROOT
BRANCH   4   9
HETATM    9  O   UNK N   1      31.195  20.657  -3.903  0.00  0.00    -0.349 OA
BRANCH   9  10
HETATM   10  C   UNK N   1      32.047  19.857  -4.553  0.00  0.00     0.184 C 
BRANCH  10  11
HETATM   11  C   UNK N   1      33.375  20.269  -4.113  0.00  0.00    -0.029 C 
HETATM   12  C   UNK N   1      34.216  19.031  -4.131  0.00  0.00     0.016 C 
HETATM   13  C   UNK N   1      33.911  21.305  -5.095  0.00  0.00     0.016 C 
HETATM   14  C   UNK N   1      33.247  20.835  -2.706  0.00  0.00     0.016 C 
ENDBRANCH  10  11
ENDBRANCH   9  10
ENDBRANCH   4   9
BRANCH   1  15
HETATM   15  N   UNK N   1      27.551  23.370  -6.300  0.00  0.00    -0.267 N 
HETATM   16  C   UNK N   1      26.954  22.756  -7.297  0.00  0.00     0.136 A 
HETATM   17  C   UNK N   1      25.668  22.870  -7.116  0.00  0.00     0.072 A 
HETATM   18  C   UNK N   1      25.479  23.699  -6.012  0.00  0.00     0.127 A 
HETATM   19  N   UNK N   1      26.697  24.020  -5.544  0.00  0.00    -0.304 N 
ATOM     20  HN  UNK N   1      26.913  24.640  -4.763  1.00  0.00     0.186 HD
BRANCH  17  21
HETATM   21  C   UNK N   1      24.905  21.708  -7.508  0.00  0.00     0.179 C 
HETATM   22  O   UNK N   1      24.088  21.231  -6.725  0.00  0.00    -0.646 OA
BRANCH  21  23
HETATM   23  O   UNK N   1      24.834  21.396  -8.806  0.00  0.00    -0.773 OA
HETATM   24  H   UNK N   1      24.094  21.256  -9.364  0.00  0.00     0.167 HD
ENDBRANCH  21  23
ENDBRANCH  17  21
ENDBRANCH   1  15
TORSDOF 6
ENDMDL
MODEL 9
REMARK VINA RESULT:      -6.4      9.168     10.310
REMARK  6 active torsions:
REMARK  status: ('A' for Active; 'I' for Inactive)
REMARK    1  A    between atoms: N_2  and  C_7 
REMARK    2  A    between atoms: C_6  and  C_21 
REMARK    3  A    between atoms: C_10  and  O_15 
REMARK    4  A    between atoms: O_15  and  C_16 
REMARK    5  A    between atoms: C_16  and  C_17 
REMARK    6  A    between atoms: C_21  and  O_22 
ROOT
HETATM    1  C   UNK N   1      21.135  13.165   8.926  0.00  0.00     0.057 C 
HETATM    2  C   UNK N   1      20.428  14.367   9.107  0.00  0.00     0.057 C 
HETATM    3  C   UNK N   1      20.778  15.439   8.403  0.00  0.00     0.080 C 
HETATM    4  C   UNK N   1      21.755  15.280   7.457  0.00  0.00     0.089 C 
HETATM    5  C   UNK N   1      22.301  14.035   7.110  0.00  0.00     0.040 C 
HETATM    6  C   UNK N   1      21.991  12.948   7.874  0.00  0.00     0.034 C 
HETATM    7  C   UNK N   1      20.243  16.738   8.726  0.00  0.00     0.102 C 
HETATM    8  N   UNK N   1      19.841  17.800   8.952  0.00  0.00    -0.191 NA
ENDROOT
BRANCH   4   9
HETATM    9  O   UNK N   1      22.148  16.337   6.850  0.00  0.00    -0.349 OA
BRANCH   9  10
HETATM   10  C   UNK N   1      22.426  16.211   5.547  0.00  0.00     0.184 C 
BRANCH  10  11
HETATM   11  C   UNK N   1      21.640  17.244   4.884  0.00  0.00    -0.029 C 
HETATM   12  C   UNK N   1      20.299  16.632   4.621  0.00  0.00     0.016 C 
HETATM   13  C   UNK N   1      21.519  18.439   5.822  0.00  0.00     0.016 C 
HETATM   14  C   UNK N   1      22.348  17.611   3.587  0.00  0.00     0.016 C 
ENDBRANCH  10  11
ENDBRANCH   9  10
ENDBRANCH   4   9
BRANCH   1  15
HETATM   15  N   UNK N   1      21.316  12.431  10.079  0.00  0.00    -0.267 N 
HETATM   16  C   UNK N   1      22.535  12.045  10.386  0.00  0.00     0.136 A 
HETATM   17  C   UNK N   1      22.566  11.824  11.670  0.00  0.00     0.072 A 
HETATM   18  C   UNK N   1      21.264  11.971  12.146  0.00  0.00     0.127 A 
HETATM   19  N   UNK N   1      20.497  12.324  11.100  0.00  0.00    -0.304 N 
ATOM     20  HN  UNK N   1      19.489  12.477  11.099  1.00  0.00     0.186 HD
BRANCH  17  21
HETATM   21  C   UNK N   1      23.803  12.201  12.311  0.00  0.00     0.179 C 
HETATM   22  O   UNK N   1      23.890  12.147  13.535  0.00  0.00    -0.646 OA
BRANCH  21  23
HETATM   23  O   UNK N   1      24.917  12.253  11.574  0.00  0.00    -0.773 OA
HETATM   24  H   UNK N   1      25.657  11.679  11.539  0.00  0.00     0.167 HD
ENDBRANCH  21  23
ENDBRANCH  17  21
ENDBRANCH   1  15
TORSDOF 6
ENDMDL
