REMARK  6 active torsions:
REMARK  status: ('A' for Active; 'I' for Inactive)
REMARK    1  A    between atoms: N_2  and  C_7 
REMARK    2  A    between atoms: C_6  and  C_21 
REMARK    3  A    between atoms: C_10  and  O_15 
REMARK    4  A    between atoms: O_15  and  C_16 
REMARK    5  A    between atoms: C_16  and  C_17 
REMARK    6  A    between atoms: C_21  and  O_22 
ROOT
HETATM    1  C   UNK N   1      -1.196  -0.880  -0.355  0.00  0.00     0.057 C 
HETATM    2  C   UNK N   1      -1.099   0.520  -0.445  0.00  0.00     0.057 C 
HETATM    3  C   UNK N   1       0.079   1.103  -0.251  0.00  0.00     0.080 C 
HETATM    4  C   UNK N   1       1.164   0.288  -0.072  0.00  0.00     0.089 C 
HETATM    5  C   UNK N   1       1.115  -1.108  -0.213  0.00  0.00     0.040 C 
HETATM    6  C   UNK N   1      -0.102  -1.710  -0.347  0.00  0.00     0.034 C 
HETATM    7  C   UNK N   1       0.176   2.534  -0.099  0.00  0.00     0.102 C 
HETATM    8  N   UNK N   1       0.300   3.677   0.031  0.00  0.00    -0.191 NA
ENDROOT
BRANCH   4   9
HETATM    9  O   UNK N   1       2.277   0.859   0.205  0.00  0.00    -0.349 OA
BRANCH   9  10
HETATM   10  C   UNK N   1       3.253   0.740  -0.702  0.00  0.00     0.184 C 
BRANCH  10  11
HETATM   11  C   UNK N   1       4.493   0.941   0.038  0.00  0.00    -0.029 C 
HETATM   12  C   UNK N   1       5.582   0.978  -0.989  0.00  0.00     0.016 C 
HETATM   13  C   UNK N   1       4.403   2.268   0.783  0.00  0.00     0.016 C 
HETATM   14  C   UNK N   1       4.666  -0.233   0.991  0.00  0.00     0.016 C 
ENDBRANCH  10  11
ENDBRANCH   9  10
ENDBRANCH   4   9
BRANCH   1  15
HETATM   15  N   UNK N   1      -2.367  -1.335   0.213  0.00  0.00    -0.267 N 
HETATM   16  C   UNK N   1      -3.268  -0.448   0.575  0.00  0.00     0.136 A 
HETATM   17  C   UNK N   1      -4.422  -1.053   0.614  0.00  0.00     0.072 A 
HETATM   18  C   UNK N   1      -4.187  -2.406   0.377  0.00  0.00     0.127 A 
HETATM   19  N   UNK N   1      -2.868  -2.547   0.160  0.00  0.00    -0.304 N 
ATOM     20  HN  UNK N   1      -2.361  -3.416  -0.011  1.00  0.00     0.186 HD
BRANCH  17  21
HETATM   21  C   UNK N   1      -5.535  -0.245   0.174  0.00  0.00     0.179 C 
HETATM   22  O   UNK N   1      -5.439   0.979   0.198  0.00  0.00    -0.646 OA
BRANCH  21  23
HETATM   23  O   UNK N   1      -6.487  -0.817  -0.571  0.00  0.00    -0.773 OA
HETATM   24  H   UNK N   1      -7.167  -0.439  -1.093  0.00  0.00     0.167 HD
ENDBRANCH  21  23
ENDBRANCH  17  21
ENDBRANCH   1  15
TORSDOF 6
