MODEL 1
REMARK VINA RESULT:      -7.9      0.000      0.000
REMARK  7 active torsions:
REMARK  status: ('A' for Active; 'I' for Inactive)
REMARK    1  A    between atoms: C_1  and  O_3 
REMARK    2  A    between atoms: C_4  and  C_1 
REMARK       I    between atoms: N_8  and  C_9 
REMARK    3  A    between atoms: C_9  and  C_11 
REMARK    4  A    between atoms: C_11  and  N_13 
REMARK       I    between atoms: N_13  and  C_14 
REMARK    5  A    between atoms: C_14  and  O_16 
REMARK    6  A    between atoms: O_16  and  C_17 
REMARK    7  A    between atoms: C_17  and  C_18 
ROOT
HETATM    1  C   UNK N   1      36.182  14.888  10.561  0.00  0.00     0.175 C 
HETATM    2  C   UNK N   1      36.345  14.064   9.286  0.00  0.00     0.042 C 
ENDROOT
BRANCH   1   3
HETATM    3  C   UNK N   1      35.470  16.171  10.177  0.00  0.00     0.243 C 
HETATM    4  N   UNK N   1      34.361  16.169   9.374  0.00  0.00    -0.336 N 
HETATM    5  C   UNK N   1      33.676  17.381   8.976  0.00  0.00     0.185 C 
HETATM    6  C   UNK N   1      33.710  14.960   8.967  0.00  0.00     0.127 C 
HETATM    7  C   UNK N   1      32.394  16.895   8.305  0.00  0.00     0.038 C 
HETATM    8  C   UNK N   1      32.325  15.389   8.522  0.00  0.00     0.022 C 
HETATM    9  O   UNK N   1      35.895  17.225  10.625  0.00  0.00    -0.271 OA
BRANCH   5  10
HETATM   10  C   UNK N   1      34.507  18.208   8.011  0.00  0.00     0.163 C 
HETATM   11  O   UNK N   1      34.488  17.972   6.812  0.00  0.00    -0.648 OA
BRANCH  10  12
HETATM   12  O   UNK N   1      35.269  19.221   8.465  0.00  0.00    -0.775 OA
HETATM   13  H   UNK N   1      36.051  19.470   8.013  0.00  0.00     0.167 HD
ENDBRANCH  10  12
ENDBRANCH   5  10
ENDBRANCH   1   3
BRANCH   1  14
HETATM   14  N   UNK N   1      35.363  14.249  11.584  0.00  0.00    -0.324 N 
HETATM   15  C   UNK N   1      35.558  14.291  12.929  0.00  0.00     0.361 C 
HETATM   16  O   UNK N   1      36.337  15.084  13.436  0.00  0.00    -0.238 OA
HETATM   17  H   UNK N   1      34.586  13.734  11.268  0.00  0.00     0.165 HD
BRANCH  15  18
HETATM   18  O   UNK N   1      34.998  13.332  13.689  0.00  0.00    -0.299 OA
BRANCH  18  19
HETATM   19  C   UNK N   1      35.828  12.408  14.281  0.00  0.00     0.219 C 
BRANCH  19  20
HETATM   20  C   UNK N   1      35.624  12.333  15.747  0.00  0.00    -0.034 A 
HETATM   21  C   UNK N   1      35.494  11.097  16.388  0.00  0.00     0.009 A 
HETATM   22  C   UNK N   1      35.274  11.050  17.768  0.00  0.00     0.001 A 
HETATM   23  C   UNK N   1      35.179  12.238  18.502  0.00  0.00     0.000 A 
HETATM   24  C   UNK N   1      35.301  13.471  17.856  0.00  0.00     0.001 A 
HETATM   25  C   UNK N   1      35.520  13.518  16.478  0.00  0.00     0.009 A 
ENDBRANCH  19  20
ENDBRANCH  18  19
ENDBRANCH  15  18
ENDBRANCH   1  14
TORSDOF 7
ENDMDL
MODEL 2
REMARK VINA RESULT:      -7.2     17.723     21.974
REMARK  7 active torsions:
REMARK  status: ('A' for Active; 'I' for Inactive)
REMARK    1  A    between atoms: C_1  and  O_3 
REMARK    2  A    between atoms: C_4  and  C_1 
REMARK       I    between atoms: N_8  and  C_9 
REMARK    3  A    between atoms: C_9  and  C_11 
REMARK    4  A    between atoms: C_11  and  N_13 
REMARK       I    between atoms: N_13  and  C_14 
REMARK    5  A    between atoms: C_14  and  O_16 
REMARK    6  A    between atoms: O_16  and  C_17 
REMARK    7  A    between atoms: C_17  and  C_18 
ROOT
HETATM    1  C   UNK N   1      28.711  23.008  -6.664  0.00  0.00     0.175 C 
HETATM    2  C   UNK N   1      29.279  23.242  -8.062  0.00  0.00     0.042 C 
ENDROOT
BRANCH   1   3
HETATM    3  C   UNK N   1      29.795  23.382  -5.672  0.00  0.00     0.243 C 
HETATM    4  N   UNK N   1      30.427  22.441  -4.904  0.00  0.00    -0.336 N 
HETATM    5  C   UNK N   1      31.450  22.774  -3.935  0.00  0.00     0.185 C 
HETATM    6  C   UNK N   1      30.221  21.035  -5.088  0.00  0.00     0.127 C 
HETATM    7  C   UNK N   1      32.024  21.428  -3.503  0.00  0.00     0.038 C 
HETATM    8  C   UNK N   1      31.405  20.373  -4.411  0.00  0.00     0.022 C 
HETATM    9  O   UNK N   1      30.120  24.557  -5.585  0.00  0.00    -0.271 OA
BRANCH   5  10
HETATM   10  C   UNK N   1      30.876  23.520  -2.743  0.00  0.00     0.163 C 
HETATM   11  O   UNK N   1      30.609  22.928  -1.707  0.00  0.00    -0.648 OA
BRANCH  10  12
HETATM   12  O   UNK N   1      30.664  24.848  -2.808  0.00  0.00    -0.775 OA
HETATM   13  H   UNK N   1      31.340  25.425  -3.105  0.00  0.00     0.167 HD
ENDBRANCH  10  12
ENDBRANCH   5  10
ENDBRANCH   1   3
BRANCH   1  14
HETATM   14  N   UNK N   1      27.553  23.835  -6.345  0.00  0.00    -0.324 N 
HETATM   15  C   UNK N   1      26.255  23.580  -6.662  0.00  0.00     0.361 C 
HETATM   16  O   UNK N   1      25.902  22.481  -7.062  0.00  0.00    -0.238 OA
HETATM   17  H   UNK N   1      27.729  24.665  -5.847  0.00  0.00     0.165 HD
BRANCH  15  18
HETATM   18  O   UNK N   1      25.386  24.606  -6.683  0.00  0.00    -0.299 OA
BRANCH  18  19
HETATM   19  C   UNK N   1      25.759  25.758  -7.337  0.00  0.00     0.219 C 
BRANCH  19  20
HETATM   20  C   UNK N   1      26.044  26.866  -6.397  0.00  0.00    -0.034 A 
HETATM   21  C   UNK N   1      25.226  27.087  -5.283  0.00  0.00     0.009 A 
HETATM   22  C   UNK N   1      25.496  28.156  -4.423  0.00  0.00     0.001 A 
HETATM   23  C   UNK N   1      26.578  29.005  -4.682  0.00  0.00     0.000 A 
HETATM   24  C   UNK N   1      27.387  28.787  -5.801  0.00  0.00     0.001 A 
HETATM   25  C   UNK N   1      27.117  27.720  -6.659  0.00  0.00     0.009 A 
ENDBRANCH  19  20
ENDBRANCH  18  19
ENDBRANCH  15  18
ENDBRANCH   1  14
TORSDOF 7
ENDMDL
MODEL 3
REMARK VINA RESULT:      -7.1     13.544     14.997
REMARK  7 active torsions:
REMARK  status: ('A' for Active; 'I' for Inactive)
REMARK    1  A    between atoms: C_1  and  O_3 
REMARK    2  A    between atoms: C_4  and  C_1 
REMARK       I    between atoms: N_8  and  C_9 
REMARK    3  A    between atoms: C_9  and  C_11 
REMARK    4  A    between atoms: C_11  and  N_13 
REMARK       I    between atoms: N_13  and  C_14 
REMARK    5  A    between atoms: C_14  and  O_16 
REMARK    6  A    between atoms: O_16  and  C_17 
REMARK    7  A    between atoms: C_17  and  C_18 
ROOT
HETATM    1  C   UNK N   1      22.639  16.233   4.581  0.00  0.00     0.175 C 
HETATM    2  C   UNK N   1      23.411  15.234   3.721  0.00  0.00     0.042 C 
ENDROOT
BRANCH   1   3
HETATM    3  C   UNK N   1      21.927  17.181   3.636  0.00  0.00     0.243 C 
HETATM    4  N   UNK N   1      22.337  18.477   3.468  0.00  0.00    -0.336 N 
HETATM    5  C   UNK N   1      21.662  19.408   2.588  0.00  0.00     0.185 C 
HETATM    6  C   UNK N   1      23.544  18.982   4.052  0.00  0.00     0.127 C 
HETATM    7  C   UNK N   1      22.582  20.624   2.536  0.00  0.00     0.038 C 
HETATM    8  C   UNK N   1      23.862  20.240   3.268  0.00  0.00     0.022 C 
HETATM    9  O   UNK N   1      20.980  16.755   2.993  0.00  0.00    -0.271 OA
BRANCH   5  10
HETATM   10  C   UNK N   1      20.292  19.794   3.119  0.00  0.00     0.163 C 
HETATM   11  O   UNK N   1      20.180  20.622   4.011  0.00  0.00    -0.648 OA
BRANCH  10  12
HETATM   12  O   UNK N   1      19.180  19.235   2.604  0.00  0.00    -0.775 OA
HETATM   13  H   UNK N   1      18.694  18.601   3.093  0.00  0.00     0.167 HD
ENDBRANCH  10  12
ENDBRANCH   5  10
ENDBRANCH   1   3
BRANCH   1  14
HETATM   14  N   UNK N   1      21.608  15.629   5.417  0.00  0.00    -0.324 N 
HETATM   15  C   UNK N   1      21.217  16.038   6.653  0.00  0.00     0.361 C 
HETATM   16  O   UNK N   1      21.548  17.126   7.099  0.00  0.00    -0.238 OA
HETATM   17  H   UNK N   1      21.147  14.842   5.047  0.00  0.00     0.165 HD
BRANCH  15  18
HETATM   18  O   UNK N   1      20.587  15.157   7.452  0.00  0.00    -0.299 OA
BRANCH  18  19
HETATM   19  C   UNK N   1      20.600  15.388   8.808  0.00  0.00     0.219 C 
BRANCH  19  20
HETATM   20  C   UNK N   1      21.047  14.200   9.572  0.00  0.00    -0.034 A 
HETATM   21  C   UNK N   1      20.148  13.480  10.366  0.00  0.00     0.009 A 
HETATM   22  C   UNK N   1      20.597  12.379  11.101  0.00  0.00     0.001 A 
HETATM   23  C   UNK N   1      21.944  12.004  11.045  0.00  0.00     0.000 A 
HETATM   24  C   UNK N   1      22.842  12.730  10.258  0.00  0.00     0.001 A 
HETATM   25  C   UNK N   1      22.393  13.831   9.525  0.00  0.00     0.009 A 
ENDBRANCH  19  20
ENDBRANCH  18  19
ENDBRANCH  15  18
ENDBRANCH   1  14
TORSDOF 7
ENDMDL
MODEL 4
REMARK VINA RESULT:      -7.0      1.922      2.201
REMARK  7 active torsions:
REMARK  status: ('A' for Active; 'I' for Inactive)
REMARK    1  A    between atoms: C_1  and  O_3 
REMARK    2  A    between atoms: C_4  and  C_1 
REMARK       I    between atoms: N_8  and  C_9 
REMARK    3  A    between atoms: C_9  and  C_11 
REMARK    4  A    between atoms: C_11  and  N_13 
REMARK       I    between atoms: N_13  and  C_14 
REMARK    5  A    between atoms: C_14  and  O_16 
REMARK    6  A    between atoms: O_16  and  C_17 
REMARK    7  A    between atoms: C_17  and  C_18 
ROOT
HETATM    1  C   UNK N   1      34.279  13.665   9.612  0.00  0.00     0.175 C 
HETATM    2  C   UNK N   1      33.795  12.320   9.075  0.00  0.00     0.042 C 
ENDROOT
BRANCH   1   3
HETATM    3  C   UNK N   1      33.373  14.732   9.030  0.00  0.00     0.243 C 
HETATM    4  N   UNK N   1      33.715  15.438   7.907  0.00  0.00    -0.336 N 
HETATM    5  C   UNK N   1      32.876  16.475   7.344  0.00  0.00     0.185 C 
HETATM    6  C   UNK N   1      34.870  15.119   7.123  0.00  0.00     0.127 C 
HETATM    7  C   UNK N   1      33.524  16.807   6.003  0.00  0.00     0.038 C 
HETATM    8  C   UNK N   1      34.629  15.782   5.781  0.00  0.00     0.022 C 
HETATM    9  O   UNK N   1      32.298  14.939   9.574  0.00  0.00    -0.271 OA
BRANCH   5  10
HETATM   10  C   UNK N   1      32.826  17.705   8.234  0.00  0.00     0.163 C 
HETATM   11  O   UNK N   1      33.731  18.526   8.214  0.00  0.00    -0.648 OA
BRANCH  10  12
HETATM   12  O   UNK N   1      31.776  17.911   9.051  0.00  0.00    -0.775 OA
HETATM   13  H   UNK N   1      31.762  18.644   9.634  0.00  0.00     0.167 HD
ENDBRANCH  10  12
ENDBRANCH   5  10
ENDBRANCH   1   3
BRANCH   1  14
HETATM   14  N   UNK N   1      34.195  13.794  11.062  0.00  0.00    -0.324 N 
HETATM   15  C   UNK N   1      35.181  14.205  11.904  0.00  0.00     0.361 C 
HETATM   16  O   UNK N   1      36.196  14.739  11.483  0.00  0.00    -0.238 OA
HETATM   17  H   UNK N   1      33.332  13.560  11.475  0.00  0.00     0.165 HD
BRANCH  15  18
HETATM   18  O   UNK N   1      35.096  13.869  13.204  0.00  0.00    -0.299 OA
BRANCH  18  19
HETATM   19  C   UNK N   1      36.262  13.580  13.875  0.00  0.00     0.219 C 
BRANCH  19  20
HETATM   20  C   UNK N   1      36.010  12.882  15.157  0.00  0.00    -0.034 A 
HETATM   21  C   UNK N   1      36.485  11.584  15.370  0.00  0.00     0.009 A 
HETATM   22  C   UNK N   1      36.212  10.933  16.577  0.00  0.00     0.001 A 
HETATM   23  C   UNK N   1      35.460  11.580  17.565  0.00  0.00     0.000 A 
HETATM   24  C   UNK N   1      34.979  12.873  17.345  0.00  0.00     0.001 A 
HETATM   25  C   UNK N   1      35.252  13.523  16.139  0.00  0.00     0.009 A 
ENDBRANCH  19  20
ENDBRANCH  18  19
ENDBRANCH  15  18
ENDBRANCH   1  14
TORSDOF 7
ENDMDL
MODEL 5
REMARK VINA RESULT:      -6.9      5.666     10.036
REMARK  7 active torsions:
REMARK  status: ('A' for Active; 'I' for Inactive)
REMARK    1  A    between atoms: C_1  and  O_3 
REMARK    2  A    between atoms: C_4  and  C_1 
REMARK       I    between atoms: N_8  and  C_9 
REMARK    3  A    between atoms: C_9  and  C_11 
REMARK    4  A    between atoms: C_11  and  N_13 
REMARK       I    between atoms: N_13  and  C_14 
REMARK    5  A    between atoms: C_14  and  O_16 
REMARK    6  A    between atoms: O_16  and  C_17 
REMARK    7  A    between atoms: C_17  and  C_18 
ROOT
HETATM    1  C   UNK N   1      32.126  16.409   4.788  0.00  0.00     0.175 C 
HETATM    2  C   UNK N   1      32.262  17.037   3.403  0.00  0.00     0.042 C 
ENDROOT
BRANCH   1   3
HETATM    3  C   UNK N   1      33.262  16.946   5.637  0.00  0.00     0.243 C 
HETATM    4  N   UNK N   1      33.594  16.383   6.840  0.00  0.00    -0.336 N 
HETATM    5  C   UNK N   1      34.659  16.891   7.679  0.00  0.00     0.185 C 
HETATM    6  C   UNK N   1      32.998  15.168   7.309  0.00  0.00     0.127 C 
HETATM    7  C   UNK N   1      34.823  15.838   8.771  0.00  0.00     0.038 C 
HETATM    8  C   UNK N   1      33.938  14.659   8.385  0.00  0.00     0.022 C 
HETATM    9  O   UNK N   1      33.906  17.892   5.209  0.00  0.00    -0.271 OA
BRANCH   5  10
HETATM   10  C   UNK N   1      34.309  18.240   8.282  0.00  0.00     0.163 C 
HETATM   11  O   UNK N   1      33.158  18.499   8.603  0.00  0.00    -0.648 OA
BRANCH  10  12
HETATM   12  O   UNK N   1      35.266  19.166   8.481  0.00  0.00    -0.775 OA
HETATM   13  H   UNK N   1      35.256  19.973   8.006  0.00  0.00     0.167 HD
ENDBRANCH  10  12
ENDBRANCH   5  10
ENDBRANCH   1   3
BRANCH   1  14
HETATM   14  N   UNK N   1      30.890  16.754   5.481  0.00  0.00    -0.324 N 
HETATM   15  C   UNK N   1      29.836  15.931   5.728  0.00  0.00     0.361 C 
HETATM   16  O   UNK N   1      29.925  14.721   5.586  0.00  0.00    -0.238 OA
HETATM   17  H   UNK N   1      30.811  17.680   5.804  0.00  0.00     0.165 HD
BRANCH  15  18
HETATM   18  O   UNK N   1      28.635  16.484   5.981  0.00  0.00    -0.299 OA
BRANCH  18  19
HETATM   19  C   UNK N   1      27.950  17.049   4.930  0.00  0.00     0.219 C 
BRANCH  19  20
HETATM   20  C   UNK N   1      27.659  18.483   5.160  0.00  0.00    -0.034 A 
HETATM   21  C   UNK N   1      27.852  19.059   6.421  0.00  0.00     0.009 A 
HETATM   22  C   UNK N   1      27.545  20.408   6.624  0.00  0.00     0.001 A 
HETATM   23  C   UNK N   1      27.040  21.175   5.568  0.00  0.00     0.000 A 
HETATM   24  C   UNK N   1      26.839  20.595   4.313  0.00  0.00     0.001 A 
HETATM   25  C   UNK N   1      27.146  19.248   4.111  0.00  0.00     0.009 A 
ENDBRANCH  19  20
ENDBRANCH  18  19
ENDBRANCH  15  18
ENDBRANCH   1  14
TORSDOF 7
ENDMDL
MODEL 6
REMARK VINA RESULT:      -6.9      1.895      2.717
REMARK  7 active torsions:
REMARK  status: ('A' for Active; 'I' for Inactive)
REMARK    1  A    between atoms: C_1  and  O_3 
REMARK    2  A    between atoms: C_4  and  C_1 
REMARK       I    between atoms: N_8  and  C_9 
REMARK    3  A    between atoms: C_9  and  C_11 
REMARK    4  A    between atoms: C_11  and  N_13 
REMARK       I    between atoms: N_13  and  C_14 
REMARK    5  A    between atoms: C_14  and  O_16 
REMARK    6  A    between atoms: O_16  and  C_17 
REMARK    7  A    between atoms: C_17  and  C_18 
ROOT
HETATM    1  C   UNK N   1      35.894  14.487   9.554  0.00  0.00     0.175 C 
HETATM    2  C   UNK N   1      36.863  13.425   9.041  0.00  0.00     0.042 C 
ENDROOT
BRANCH   1   3
HETATM    3  C   UNK N   1      34.882  14.740   8.453  0.00  0.00     0.243 C 
HETATM    4  N   UNK N   1      34.337  15.978   8.243  0.00  0.00    -0.336 N 
HETATM    5  C   UNK N   1      33.354  16.240   7.212  0.00  0.00     0.185 C 
HETATM    6  C   UNK N   1      34.788  17.144   8.942  0.00  0.00     0.127 C 
HETATM    7  C   UNK N   1      33.217  17.760   7.191  0.00  0.00     0.038 C 
HETATM    8  C   UNK N   1      34.295  18.314   8.113  0.00  0.00     0.022 C 
HETATM    9  O   UNK N   1      34.575  13.808   7.724  0.00  0.00    -0.271 OA
BRANCH   5  10
HETATM   10  C   UNK N   1      32.020  15.585   7.524  0.00  0.00     0.163 C 
HETATM   11  O   UNK N   1      31.200  16.149   8.234  0.00  0.00    -0.648 OA
BRANCH  10  12
HETATM   12  O   UNK N   1      31.720  14.376   7.014  0.00  0.00    -0.775 OA
HETATM   13  H   UNK N   1      31.418  13.684   7.569  0.00  0.00     0.167 HD
ENDBRANCH  10  12
ENDBRANCH   5  10
ENDBRANCH   1   3
BRANCH   1  14
HETATM   14  N   UNK N   1      35.134  14.082  10.731  0.00  0.00    -0.324 N 
HETATM   15  C   UNK N   1      35.282  14.550  11.999  0.00  0.00     0.361 C 
HETATM   16  O   UNK N   1      35.938  15.553  12.235  0.00  0.00    -0.238 OA
HETATM   17  H   UNK N   1      34.439  13.399  10.593  0.00  0.00     0.165 HD
BRANCH  15  18
HETATM   18  O   UNK N   1      34.828  13.798  13.018  0.00  0.00    -0.299 OA
BRANCH  18  19
HETATM   19  C   UNK N   1      35.623  13.672  14.134  0.00  0.00     0.219 C 
BRANCH  19  20
HETATM   20  C   UNK N   1      35.269  12.479  14.939  0.00  0.00    -0.034 A 
HETATM   21  C   UNK N   1      35.844  12.271  16.198  0.00  0.00     0.009 A 
HETATM   22  C   UNK N   1      35.517  11.124  16.929  0.00  0.00     0.001 A 
HETATM   23  C   UNK N   1      34.624  10.188  16.398  0.00  0.00     0.000 A 
HETATM   24  C   UNK N   1      34.060  10.395  15.136  0.00  0.00     0.001 A 
HETATM   25  C   UNK N   1      34.386  11.539  14.406  0.00  0.00     0.009 A 
ENDBRANCH  19  20
ENDBRANCH  18  19
ENDBRANCH  15  18
ENDBRANCH   1  14
TORSDOF 7
ENDMDL
MODEL 7
REMARK VINA RESULT:      -6.8      8.679     12.583
REMARK  7 active torsions:
REMARK  status: ('A' for Active; 'I' for Inactive)
REMARK    1  A    between atoms: C_1  and  O_3 
REMARK    2  A    between atoms: C_4  and  C_1 
REMARK       I    between atoms: N_8  and  C_9 
REMARK    3  A    between atoms: C_9  and  C_11 
REMARK    4  A    between atoms: C_11  and  N_13 
REMARK       I    between atoms: N_13  and  C_14 
REMARK    5  A    between atoms: C_14  and  O_16 
REMARK    6  A    between atoms: O_16  and  C_17 
REMARK    7  A    between atoms: C_17  and  C_18 
ROOT
HETATM    1  C   UNK N   1      25.653  18.178   4.589  0.00  0.00     0.175 C 
HETATM    2  C   UNK N   1      26.135  17.480   3.320  0.00  0.00     0.042 C 
ENDROOT
BRANCH   1   3
HETATM    3  C   UNK N   1      24.290  17.605   4.926  0.00  0.00     0.243 C 
HETATM    4  N   UNK N   1      23.131  18.227   4.548  0.00  0.00    -0.336 N 
HETATM    5  C   UNK N   1      21.818  17.710   4.875  0.00  0.00     0.185 C 
HETATM    6  C   UNK N   1      23.119  19.371   3.687  0.00  0.00     0.127 C 
HETATM    7  C   UNK N   1      20.853  18.573   4.067  0.00  0.00     0.038 C 
HETATM    8  C   UNK N   1      21.703  19.446   3.152  0.00  0.00     0.022 C 
HETATM    9  O   UNK N   1      24.243  16.543   5.530  0.00  0.00    -0.271 OA
BRANCH   5  10
HETATM   10  C   UNK N   1      21.523  17.822   6.361  0.00  0.00     0.163 C 
HETATM   11  O   UNK N   1      21.096  18.865   6.835  0.00  0.00    -0.648 OA
BRANCH  10  12
HETATM   12  O   UNK N   1      21.718  16.767   7.175  0.00  0.00    -0.775 OA
HETATM   13  H   UNK N   1      21.065  16.519   7.800  0.00  0.00     0.167 HD
ENDBRANCH  10  12
ENDBRANCH   5  10
ENDBRANCH   1   3
BRANCH   1  14
HETATM   14  N   UNK N   1      26.500  17.949   5.755  0.00  0.00    -0.324 N 
HETATM   15  C   UNK N   1      27.670  18.576   6.049  0.00  0.00     0.361 C 
HETATM   16  O   UNK N   1      28.017  19.587   5.458  0.00  0.00    -0.238 OA
HETATM   17  H   UNK N   1      26.191  17.269   6.396  0.00  0.00     0.165 HD
BRANCH  15  18
HETATM   18  O   UNK N   1      28.524  17.976   6.898  0.00  0.00    -0.299 OA
BRANCH  18  19
HETATM   19  C   UNK N   1      29.148  16.823   6.479  0.00  0.00     0.219 C 
BRANCH  19  20
HETATM   20  C   UNK N   1      30.546  17.068   6.054  0.00  0.00    -0.034 A 
HETATM   21  C   UNK N   1      31.576  17.150   6.998  0.00  0.00     0.009 A 
HETATM   22  C   UNK N   1      32.884  17.410   6.578  0.00  0.00     0.001 A 
HETATM   23  C   UNK N   1      33.158  17.593   5.218  0.00  0.00     0.000 A 
HETATM   24  C   UNK N   1      32.125  17.519   4.279  0.00  0.00     0.001 A 
HETATM   25  C   UNK N   1      30.819  17.260   4.699  0.00  0.00     0.009 A 
ENDBRANCH  19  20
ENDBRANCH  18  19
ENDBRANCH  15  18
ENDBRANCH   1  14
TORSDOF 7
ENDMDL
MODEL 8
REMARK VINA RESULT:      -6.8      1.889      3.132
REMARK  7 active torsions:
REMARK  status: ('A' for Active; 'I' for Inactive)
REMARK    1  A    between atoms: C_1  and  O_3 
REMARK    2  A    between atoms: C_4  and  C_1 
REMARK       I    between atoms: N_8  and  C_9 
REMARK    3  A    between atoms: C_9  and  C_11 
REMARK    4  A    between atoms: C_11  and  N_13 
REMARK       I    between atoms: N_13  and  C_14 
REMARK    5  A    between atoms: C_14  and  O_16 
REMARK    6  A    between atoms: O_16  and  C_17 
REMARK    7  A    between atoms: C_17  and  C_18 
ROOT
HETATM    1  C   UNK N   1      35.665  12.833  12.595  0.00  0.00     0.175 C 
HETATM    2  C   UNK N   1      34.753  11.609  12.632  0.00  0.00     0.042 C 
ENDROOT
BRANCH   1   3
HETATM    3  C   UNK N   1      35.059  13.814  11.610  0.00  0.00     0.243 C 
HETATM    4  N   UNK N   1      35.592  14.008  10.364  0.00  0.00    -0.336 N 
HETATM    5  C   UNK N   1      35.045  14.953   9.413  0.00  0.00     0.185 C 
HETATM    6  C   UNK N   1      36.658  13.201   9.850  0.00  0.00     0.127 C 
HETATM    7  C   UNK N   1      35.791  14.665   8.113  0.00  0.00     0.038 C 
HETATM    8  C   UNK N   1      36.622  13.411   8.349  0.00  0.00     0.022 C 
HETATM    9  O   UNK N   1      34.051  14.420  11.942  0.00  0.00    -0.271 OA
BRANCH   5  10
HETATM   10  C   UNK N   1      35.268  16.390   9.853  0.00  0.00     0.163 C 
HETATM   11  O   UNK N   1      34.470  17.265   9.548  0.00  0.00    -0.648 OA
BRANCH  10  12
HETATM   12  O   UNK N   1      36.342  16.715  10.595  0.00  0.00    -0.775 OA
HETATM   13  H   UNK N   1      36.527  17.611  10.801  0.00  0.00     0.167 HD
ENDBRANCH  10  12
ENDBRANCH   5  10
ENDBRANCH   1   3
BRANCH   1  14
HETATM   14  N   UNK N   1      35.770  13.536  13.869  0.00  0.00    -0.324 N 
HETATM   15  C   UNK N   1      36.546  13.190  14.931  0.00  0.00     0.361 C 
HETATM   16  O   UNK N   1      37.429  12.353  14.828  0.00  0.00    -0.238 OA
HETATM   17  H   UNK N   1      35.222  14.348  13.970  0.00  0.00     0.165 HD
BRANCH  15  18
HETATM   18  O   UNK N   1      36.221  13.668  16.146  0.00  0.00    -0.299 OA
BRANCH  18  19
HETATM   19  C   UNK N   1      35.017  13.287  16.691  0.00  0.00     0.219 C 
BRANCH  19  20
HETATM   20  C   UNK N   1      35.178  12.234  17.720  0.00  0.00    -0.034 A 
HETATM   21  C   UNK N   1      35.322  12.569  19.070  0.00  0.00     0.009 A 
HETATM   22  C   UNK N   1      35.501  11.561  20.022  0.00  0.00     0.001 A 
HETATM   23  C   UNK N   1      35.543  10.221  19.620  0.00  0.00     0.000 A 
HETATM   24  C   UNK N   1      35.409   9.890  18.269  0.00  0.00     0.001 A 
HETATM   25  C   UNK N   1      35.230  10.897  17.319  0.00  0.00     0.009 A 
ENDBRANCH  19  20
ENDBRANCH  18  19
ENDBRANCH  15  18
ENDBRANCH   1  14
TORSDOF 7
ENDMDL
MODEL 9
REMARK VINA RESULT:      -6.7     17.500     20.129
REMARK  7 active torsions:
REMARK  status: ('A' for Active; 'I' for Inactive)
REMARK    1  A    between atoms: C_1  and  O_3 
REMARK    2  A    between atoms: C_4  and  C_1 
REMARK       I    between atoms: N_8  and  C_9 
REMARK    3  A    between atoms: C_9  and  C_11 
REMARK    4  A    between atoms: C_11  and  N_13 
REMARK       I    between atoms: N_13  and  C_14 
REMARK    5  A    between atoms: C_14  and  O_16 
REMARK    6  A    between atoms: O_16  and  C_17 
REMARK    7  A    between atoms: C_17  and  C_18 
ROOT
HETATM    1  C   UNK N   1      29.413  24.877  -3.630  0.00  0.00     0.175 C 
HETATM    2  C   UNK N   1      30.762  25.585  -3.726  0.00  0.00     0.042 C 
ENDROOT
BRANCH   1   3
HETATM    3  C   UNK N   1      28.629  25.234  -4.878  0.00  0.00     0.243 C 
HETATM    4  N   UNK N   1      27.403  25.841  -4.813  0.00  0.00    -0.336 N 
HETATM    5  C   UNK N   1      26.627  26.173  -5.989  0.00  0.00     0.185 C 
HETATM    6  C   UNK N   1      26.845  26.313  -3.581  0.00  0.00     0.127 C 
HETATM    7  C   UNK N   1      25.477  27.028  -5.461  0.00  0.00     0.038 C 
HETATM    8  C   UNK N   1      25.767  27.298  -3.990  0.00  0.00     0.022 C 
HETATM    9  O   UNK N   1      29.131  24.991  -5.965  0.00  0.00    -0.271 OA
BRANCH   5  10
HETATM   10  C   UNK N   1      26.097  24.931  -6.684  0.00  0.00     0.163 C 
HETATM   11  O   UNK N   1      25.148  24.315  -6.221  0.00  0.00    -0.648 OA
BRANCH  10  12
HETATM   12  O   UNK N   1      26.660  24.500  -7.828  0.00  0.00    -0.775 OA
HETATM   13  H   UNK N   1      27.172  23.715  -7.842  0.00  0.00     0.167 HD
ENDBRANCH  10  12
ENDBRANCH   5  10
ENDBRANCH   1   3
BRANCH   1  14
HETATM   14  N   UNK N   1      29.504  23.422  -3.599  0.00  0.00    -0.324 N 
HETATM   15  C   UNK N   1      30.112  22.661  -2.650  0.00  0.00     0.361 C 
HETATM   16  O   UNK N   1      30.456  23.136  -1.578  0.00  0.00    -0.238 OA
HETATM   17  H   UNK N   1      29.079  22.938  -4.345  0.00  0.00     0.165 HD
BRANCH  15  18
HETATM   18  O   UNK N   1      30.479  21.407  -2.970  0.00  0.00    -0.299 OA
BRANCH  18  19
HETATM   19  C   UNK N   1      30.918  21.168  -4.252  0.00  0.00     0.219 C 
BRANCH  19  20
HETATM   20  C   UNK N   1      32.374  21.406  -4.396  0.00  0.00    -0.034 A 
HETATM   21  C   UNK N   1      33.300  20.604  -3.720  0.00  0.00     0.009 A 
HETATM   22  C   UNK N   1      34.668  20.864  -3.848  0.00  0.00     0.001 A 
HETATM   23  C   UNK N   1      35.105  21.926  -4.647  0.00  0.00     0.000 A 
HETATM   24  C   UNK N   1      34.177  22.731  -5.313  0.00  0.00     0.001 A 
HETATM   25  C   UNK N   1      32.811  22.472  -5.185  0.00  0.00     0.009 A 
ENDBRANCH  19  20
ENDBRANCH  18  19
ENDBRANCH  15  18
ENDBRANCH   1  14
TORSDOF 7
ENDMDL
