MODEL 1
REMARK VINA RESULT:      -7.9      0.000      0.000
REMARK  6 active torsions:
REMARK  status: ('A' for Active; 'I' for Inactive)
REMARK    1  A    between atoms: C_1  and  C_7 
REMARK    2  A    between atoms: C_1  and  N_13 
REMARK       I    between atoms: C_2  and  N_13 
REMARK    3  A    between atoms: C_3  and  C_9 
REMARK       I    between atoms: C_3  and  N_17 
REMARK    4  A    between atoms: C_4  and  N_17 
REMARK    5  A    between atoms: C_4  and  C_19 
REMARK    6  A    between atoms: C_6  and  N_12 
ROOT
HETATM    1  C   UNK N   1      37.156  13.273  11.615  0.00  0.00     0.033 A 
HETATM    2  C   UNK N   1      36.249  13.990  12.440  0.00  0.00    -0.013 A 
HETATM    3  C   UNK N   1      35.632  15.126  11.899  0.00  0.00     0.028 A 
HETATM    4  C   UNK N   1      35.871  15.552  10.580  0.00  0.00     0.032 A 
HETATM    5  C   UNK N   1      36.730  14.800   9.774  0.00  0.00     0.019 A 
HETATM    6  C   UNK N   1      37.376  13.680  10.294  0.00  0.00     0.030 A 
ENDROOT
BRANCH   4   7
HETATM    7  C   UNK N   1      35.166  16.742  10.008  0.00  0.00     0.253 C 
HETATM    8  N   UNK N   1      33.999  16.631   9.295  0.00  0.00    -0.347 N 
HETATM    9  C   UNK N   1      33.224  15.409   9.288  0.00  0.00     0.153 C 
HETATM   10  O   UNK N   1      35.662  17.847  10.181  0.00  0.00    -0.267 OA
BRANCH   8  11
HETATM   11  C   UNK N   1      33.467  17.787   8.597  0.00  0.00     0.182 C 
BRANCH  11  12
HETATM   12  C   UNK N   1      32.932  17.432   7.229  0.00  0.00     0.030 A 
HETATM   13  C   UNK N   1      33.749  17.303   6.106  0.00  0.00     0.040 A 
HETATM   14  C   UNK N   1      32.879  17.049   5.064  0.00  0.00    -0.007 A 
HETATM   15  C   UNK N   1      31.605  17.034   5.565  0.00  0.00     0.044 A 
HETATM   16  C   UNK N   1      33.139  16.846   3.712  0.00  0.00     0.014 A 
HETATM   17  N   UNK N   1      31.625  17.255   6.888  0.00  0.00    -0.352 N 
HETATM   18  C   UNK N   1      30.495  16.826   4.746  0.00  0.00     0.030 A 
HETATM   19  C   UNK N   1      30.453  17.310   7.752  0.00  0.00     0.156 C 
HETATM   20  C   UNK N   1      30.724  16.624   3.372  0.00  0.00     0.002 A 
HETATM   21  C   UNK N   1      32.042  16.630   2.859  0.00  0.00     0.001 A 
ENDBRANCH  11  12
ENDBRANCH   8  11
ENDBRANCH   4   7
BRANCH   2  22
HETATM   22  C   UNK N   1      36.029  13.740  13.934  0.00  0.00     0.166 C 
BRANCH  22  23
HETATM   23  N   UNK N   1      35.107  12.705  14.400  0.00  0.00    -0.352 N 
HETATM   24  C   UNK N   1      34.927  12.465  15.736  0.00  0.00     0.215 C 
HETATM   25  O   UNK N   1      34.301  11.480  16.106  0.00  0.00    -0.274 OA
HETATM   26  C   UNK N   1      35.520  13.359  16.779  0.00  0.00     0.117 C 
HETATM   27  C   UNK N   1      34.590  11.741  13.460  0.00  0.00     0.152 C 
ENDBRANCH  22  23
ENDBRANCH   2  22
BRANCH   1  28
HETATM   28  N   UNK N   1      37.888  12.175  12.096  0.00  0.00    -0.399 N 
HETATM   29  H   UNK N   1      37.477  11.281  12.126  0.00  0.00     0.156 HD
HETATM   30  H   UNK N   1      38.815  12.299  12.404  0.00  0.00     0.156 HD
ENDBRANCH   1  28
TORSDOF 6
ENDMDL
MODEL 2
REMARK VINA RESULT:      -7.7      1.212      2.589
REMARK  6 active torsions:
REMARK  status: ('A' for Active; 'I' for Inactive)
REMARK    1  A    between atoms: C_1  and  C_7 
REMARK    2  A    between atoms: C_1  and  N_13 
REMARK       I    between atoms: C_2  and  N_13 
REMARK    3  A    between atoms: C_3  and  C_9 
REMARK       I    between atoms: C_3  and  N_17 
REMARK    4  A    between atoms: C_4  and  N_17 
REMARK    5  A    between atoms: C_4  and  C_19 
REMARK    6  A    between atoms: C_6  and  N_12 
ROOT
HETATM    1  C   UNK N   1      37.177  13.157  11.792  0.00  0.00     0.033 A 
HETATM    2  C   UNK N   1      35.995  13.753  12.309  0.00  0.00    -0.013 A 
HETATM    3  C   UNK N   1      35.403  14.783  11.567  0.00  0.00     0.028 A 
HETATM    4  C   UNK N   1      35.930  15.219  10.338  0.00  0.00     0.032 A 
HETATM    5  C   UNK N   1      37.066  14.584   9.827  0.00  0.00     0.019 A 
HETATM    6  C   UNK N   1      37.689  13.573  10.556  0.00  0.00     0.030 A 
ENDROOT
BRANCH   4   7
HETATM    7  C   UNK N   1      35.256  16.291   9.539  0.00  0.00     0.253 C 
HETATM    8  N   UNK N   1      34.549  16.018   8.395  0.00  0.00    -0.347 N 
HETATM    9  C   UNK N   1      34.168  14.669   8.040  0.00  0.00     0.153 C 
HETATM   10  O   UNK N   1      35.353  17.448   9.924  0.00  0.00    -0.267 OA
BRANCH   8  11
HETATM   11  C   UNK N   1      34.087  17.108   7.556  0.00  0.00     0.182 C 
BRANCH  11  12
HETATM   12  C   UNK N   1      32.603  17.356   7.708  0.00  0.00     0.030 A 
HETATM   13  C   UNK N   1      32.056  18.033   8.797  0.00  0.00     0.040 A 
HETATM   14  C   UNK N   1      30.690  17.981   8.595  0.00  0.00    -0.007 A 
HETATM   15  C   UNK N   1      30.456  17.296   7.433  0.00  0.00     0.044 A 
HETATM   16  C   UNK N   1      29.652  18.484   9.372  0.00  0.00     0.014 A 
HETATM   17  N   UNK N   1      31.617  16.919   6.876  0.00  0.00    -0.352 N 
HETATM   18  C   UNK N   1      29.163  17.053   6.970  0.00  0.00     0.030 A 
HETATM   19  C   UNK N   1      31.752  16.169   5.633  0.00  0.00     0.156 C 
HETATM   20  C   UNK N   1      28.090  17.543   7.738  0.00  0.00     0.002 A 
HETATM   21  C   UNK N   1      28.335  18.260   8.932  0.00  0.00     0.001 A 
ENDBRANCH  11  12
ENDBRANCH   8  11
ENDBRANCH   4   7
BRANCH   2  22
HETATM   22  C   UNK N   1      35.415  13.496  13.702  0.00  0.00     0.166 C 
BRANCH  22  23
HETATM   23  N   UNK N   1      34.730  12.243  14.017  0.00  0.00    -0.352 N 
HETATM   24  C   UNK N   1      34.575  11.825  15.311  0.00  0.00     0.215 C 
HETATM   25  O   UNK N   1      34.169  10.695  15.550  0.00  0.00    -0.274 OA
HETATM   26  C   UNK N   1      34.936  12.705  16.466  0.00  0.00     0.117 C 
HETATM   27  C   UNK N   1      34.455  11.301  12.961  0.00  0.00     0.152 C 
ENDBRANCH  22  23
ENDBRANCH   2  22
BRANCH   1  28
HETATM   28  N   UNK N   1      37.889  12.180  12.505  0.00  0.00    -0.399 N 
HETATM   29  H   UNK N   1      37.532  11.267  12.584  0.00  0.00     0.156 HD
HETATM   30  H   UNK N   1      38.749  12.409  12.927  0.00  0.00     0.156 HD
ENDBRANCH   1  28
TORSDOF 6
ENDMDL
MODEL 3
REMARK VINA RESULT:      -7.5      2.623      8.893
REMARK  6 active torsions:
REMARK  status: ('A' for Active; 'I' for Inactive)
REMARK    1  A    between atoms: C_1  and  C_7 
REMARK    2  A    between atoms: C_1  and  N_13 
REMARK       I    between atoms: C_2  and  N_13 
REMARK    3  A    between atoms: C_3  and  C_9 
REMARK       I    between atoms: C_3  and  N_17 
REMARK    4  A    between atoms: C_4  and  N_17 
REMARK    5  A    between atoms: C_4  and  C_19 
REMARK    6  A    between atoms: C_6  and  N_12 
ROOT
HETATM    1  C   UNK N   1      31.610  17.292   4.967  0.00  0.00     0.033 A 
HETATM    2  C   UNK N   1      31.088  17.317   6.287  0.00  0.00    -0.013 A 
HETATM    3  C   UNK N   1      31.999  17.328   7.352  0.00  0.00     0.028 A 
HETATM    4  C   UNK N   1      33.390  17.334   7.146  0.00  0.00     0.032 A 
HETATM    5  C   UNK N   1      33.879  17.358   5.836  0.00  0.00     0.019 A 
HETATM    6  C   UNK N   1      32.995  17.323   4.760  0.00  0.00     0.030 A 
ENDROOT
BRANCH   4   7
HETATM    7  C   UNK N   1      34.345  17.392   8.296  0.00  0.00     0.253 C 
HETATM    8  N   UNK N   1      34.725  16.271   8.993  0.00  0.00    -0.347 N 
HETATM    9  C   UNK N   1      34.458  14.940   8.494  0.00  0.00     0.153 C 
HETATM   10  O   UNK N   1      34.792  18.483   8.625  0.00  0.00    -0.267 OA
BRANCH   8  11
HETATM   11  C   UNK N   1      35.493  16.408  10.216  0.00  0.00     0.182 C 
BRANCH  11  12
HETATM   12  C   UNK N   1      35.730  15.077  10.893  0.00  0.00     0.030 A 
HETATM   13  C   UNK N   1      34.873  14.556  11.861  0.00  0.00     0.040 A 
HETATM   14  C   UNK N   1      35.476  13.381  12.270  0.00  0.00    -0.007 A 
HETATM   15  C   UNK N   1      36.640  13.231  11.566  0.00  0.00     0.044 A 
HETATM   16  C   UNK N   1      35.070  12.455  13.226  0.00  0.00     0.014 A 
HETATM   17  N   UNK N   1      36.801  14.254  10.714  0.00  0.00    -0.352 N 
HETATM   18  C   UNK N   1      37.491  12.146  11.776  0.00  0.00     0.030 A 
HETATM   19  C   UNK N   1      37.928  14.425   9.805  0.00  0.00     0.156 C 
HETATM   20  C   UNK N   1      37.112  11.194  12.742  0.00  0.00     0.002 A 
HETATM   21  C   UNK N   1      35.904  11.347  13.460  0.00  0.00     0.001 A 
ENDBRANCH  11  12
ENDBRANCH   8  11
ENDBRANCH   4   7
BRANCH   2  22
HETATM   22  C   UNK N   1      29.612  17.142   6.655  0.00  0.00     0.166 C 
BRANCH  22  23
HETATM   23  N   UNK N   1      28.698  18.284   6.679  0.00  0.00    -0.352 N 
HETATM   24  C   UNK N   1      28.317  18.861   7.861  0.00  0.00     0.215 C 
HETATM   25  O   UNK N   1      27.414  19.688   7.879  0.00  0.00    -0.274 OA
HETATM   26  C   UNK N   1      28.947  18.474   9.161  0.00  0.00     0.117 C 
HETATM   27  C   UNK N   1      27.973  18.637   5.485  0.00  0.00     0.152 C 
ENDBRANCH  22  23
ENDBRANCH   2  22
BRANCH   1  28
HETATM   28  N   UNK N   1      30.778  17.190   3.840  0.00  0.00    -0.399 N 
HETATM   29  H   UNK N   1      30.920  16.471   3.184  0.00  0.00     0.156 HD
HETATM   30  H   UNK N   1      30.051  17.840   3.707  0.00  0.00     0.156 HD
ENDBRANCH   1  28
TORSDOF 6
ENDMDL
MODEL 4
REMARK VINA RESULT:      -7.5     15.553     19.566
REMARK  6 active torsions:
REMARK  status: ('A' for Active; 'I' for Inactive)
REMARK    1  A    between atoms: C_1  and  C_7 
REMARK    2  A    between atoms: C_1  and  N_13 
REMARK       I    between atoms: C_2  and  N_13 
REMARK    3  A    between atoms: C_3  and  C_9 
REMARK       I    between atoms: C_3  and  N_17 
REMARK    4  A    between atoms: C_4  and  N_17 
REMARK    5  A    between atoms: C_4  and  C_19 
REMARK    6  A    between atoms: C_6  and  N_12 
ROOT
HETATM    1  C   UNK N   1      30.069  20.332  -7.097  0.00  0.00     0.033 A 
HETATM    2  C   UNK N   1      30.151  21.552  -6.374  0.00  0.00    -0.013 A 
HETATM    3  C   UNK N   1      29.060  22.428  -6.442  0.00  0.00     0.028 A 
HETATM    4  C   UNK N   1      27.901  22.124  -7.179  0.00  0.00     0.032 A 
HETATM    5  C   UNK N   1      27.826  20.895  -7.842  0.00  0.00     0.019 A 
HETATM    6  C   UNK N   1      28.906  20.016  -7.811  0.00  0.00     0.030 A 
ENDROOT
BRANCH   4   7
HETATM    7  C   UNK N   1      26.728  23.053  -7.201  0.00  0.00     0.253 C 
HETATM    8  N   UNK N   1      26.614  24.070  -8.117  0.00  0.00    -0.347 N 
HETATM    9  C   UNK N   1      27.463  24.139  -9.286  0.00  0.00     0.153 C 
HETATM   10  O   UNK N   1      25.849  22.898  -6.365  0.00  0.00    -0.267 OA
BRANCH   8  11
HETATM   11  C   UNK N   1      25.562  25.058  -7.970  0.00  0.00     0.182 C 
BRANCH  11  12
HETATM   12  C   UNK N   1      25.929  26.139  -6.979  0.00  0.00     0.030 A 
HETATM   13  C   UNK N   1      25.268  26.307  -5.762  0.00  0.00     0.040 A 
HETATM   14  C   UNK N   1      25.847  27.427  -5.198  0.00  0.00    -0.007 A 
HETATM   15  C   UNK N   1      26.806  27.892  -6.058  0.00  0.00     0.044 A 
HETATM   16  C   UNK N   1      25.574  28.063  -3.991  0.00  0.00     0.014 A 
HETATM   17  N   UNK N   1      26.873  27.107  -7.144  0.00  0.00    -0.352 N 
HETATM   18  C   UNK N   1      27.553  29.036  -5.778  0.00  0.00     0.030 A 
HETATM   19  C   UNK N   1      27.779  27.300  -8.269  0.00  0.00     0.156 C 
HETATM   20  C   UNK N   1      27.295  29.706  -4.567  0.00  0.00     0.002 A 
HETATM   21  C   UNK N   1      26.311  29.218  -3.676  0.00  0.00     0.001 A 
ENDBRANCH  11  12
ENDBRANCH   8  11
ENDBRANCH   4   7
BRANCH   2  22
HETATM   22  C   UNK N   1      31.407  22.081  -5.677  0.00  0.00     0.166 C 
BRANCH  22  23
HETATM   23  N   UNK N   1      31.874  21.502  -4.417  0.00  0.00    -0.352 N 
HETATM   24  C   UNK N   1      31.556  22.073  -3.214  0.00  0.00     0.215 C 
HETATM   25  O   UNK N   1      32.103  21.691  -2.187  0.00  0.00    -0.274 OA
HETATM   26  C   UNK N   1      30.577  23.201  -3.117  0.00  0.00     0.117 C 
HETATM   27  C   UNK N   1      32.900  20.490  -4.439  0.00  0.00     0.152 C 
ENDBRANCH  22  23
ENDBRANCH   2  22
BRANCH   1  28
HETATM   28  N   UNK N   1      31.146  19.433  -7.161  0.00  0.00    -0.399 N 
HETATM   29  H   UNK N   1      32.049  19.757  -7.379  0.00  0.00     0.156 HD
HETATM   30  H   UNK N   1      30.997  18.475  -6.986  0.00  0.00     0.156 HD
ENDBRANCH   1  28
TORSDOF 6
ENDMDL
MODEL 5
REMARK VINA RESULT:      -7.3      6.916     11.304
REMARK  6 active torsions:
REMARK  status: ('A' for Active; 'I' for Inactive)
REMARK    1  A    between atoms: C_1  and  C_7 
REMARK    2  A    between atoms: C_1  and  N_13 
REMARK       I    between atoms: C_2  and  N_13 
REMARK    3  A    between atoms: C_3  and  C_9 
REMARK       I    between atoms: C_3  and  N_17 
REMARK    4  A    between atoms: C_4  and  N_17 
REMARK    5  A    between atoms: C_4  and  C_19 
REMARK    6  A    between atoms: C_6  and  N_12 
ROOT
HETATM    1  C   UNK N   1      27.514  18.743   4.683  0.00  0.00     0.033 A 
HETATM    2  C   UNK N   1      27.702  17.934   5.835  0.00  0.00    -0.013 A 
HETATM    3  C   UNK N   1      26.962  16.748   5.931  0.00  0.00     0.028 A 
HETATM    4  C   UNK N   1      26.070  16.340   4.923  0.00  0.00     0.032 A 
HETATM    5  C   UNK N   1      25.939  17.129   3.777  0.00  0.00     0.019 A 
HETATM    6  C   UNK N   1      26.645  18.325   3.667  0.00  0.00     0.030 A 
ENDROOT
BRANCH   4   7
HETATM    7  C   UNK N   1      25.323  15.047   5.024  0.00  0.00     0.253 C 
HETATM    8  N   UNK N   1      24.099  14.952   5.639  0.00  0.00    -0.347 N 
HETATM    9  C   UNK N   1      23.324  16.127   5.975  0.00  0.00     0.153 C 
HETATM   10  O   UNK N   1      25.833  14.043   4.546  0.00  0.00    -0.267 OA
BRANCH   8  11
HETATM   11  C   UNK N   1      23.513  13.647   5.883  0.00  0.00     0.182 C 
BRANCH  11  12
HETATM   12  C   UNK N   1      23.444  13.319   7.357  0.00  0.00     0.030 A 
HETATM   13  C   UNK N   1      24.563  12.950   8.104  0.00  0.00     0.040 A 
HETATM   14  C   UNK N   1      24.068  12.670   9.363  0.00  0.00    -0.007 A 
HETATM   15  C   UNK N   1      22.714  12.866   9.344  0.00  0.00     0.044 A 
HETATM   16  C   UNK N   1      24.732  12.243  10.509  0.00  0.00     0.014 A 
HETATM   17  N   UNK N   1      22.322  13.273   8.128  0.00  0.00    -0.352 N 
HETATM   18  C   UNK N   1      21.922  12.636  10.469  0.00  0.00     0.030 A 
HETATM   19  C   UNK N   1      20.950  13.576   7.741  0.00  0.00     0.156 C 
HETATM   20  C   UNK N   1      22.563  12.197  11.643  0.00  0.00     0.002 A 
HETATM   21  C   UNK N   1      23.964  12.005  11.663  0.00  0.00     0.001 A 
ENDBRANCH  11  12
ENDBRANCH   8  11
ENDBRANCH   4   7
BRANCH   2  22
HETATM   22  C   UNK N   1      28.505  18.338   7.074  0.00  0.00     0.166 C 
BRANCH  22  23
HETATM   23  N   UNK N   1      29.807  17.737   7.362  0.00  0.00    -0.352 N 
HETATM   24  C   UNK N   1      30.441  17.956   8.555  0.00  0.00     0.215 C 
HETATM   25  O   UNK N   1      31.604  17.604   8.709  0.00  0.00    -0.274 OA
HETATM   26  C   UNK N   1      29.762  18.667   9.684  0.00  0.00     0.117 C 
HETATM   27  C   UNK N   1      30.562  17.137   6.291  0.00  0.00     0.152 C 
ENDBRANCH  22  23
ENDBRANCH   2  22
BRANCH   1  28
HETATM   28  N   UNK N   1      28.144  19.990   4.539  0.00  0.00    -0.399 N 
HETATM   29  H   UNK N   1      27.806  20.642   3.885  0.00  0.00     0.156 HD
HETATM   30  H   UNK N   1      28.926  20.212   5.095  0.00  0.00     0.156 HD
ENDBRANCH   1  28
TORSDOF 6
ENDMDL
MODEL 6
REMARK VINA RESULT:      -7.3      2.402      4.483
REMARK  6 active torsions:
REMARK  status: ('A' for Active; 'I' for Inactive)
REMARK    1  A    between atoms: C_1  and  C_7 
REMARK    2  A    between atoms: C_1  and  N_13 
REMARK       I    between atoms: C_2  and  N_13 
REMARK    3  A    between atoms: C_3  and  C_9 
REMARK       I    between atoms: C_3  and  N_17 
REMARK    4  A    between atoms: C_4  and  N_17 
REMARK    5  A    between atoms: C_4  and  C_19 
REMARK    6  A    between atoms: C_6  and  N_12 
ROOT
HETATM    1  C   UNK N   1      36.891  13.408  12.156  0.00  0.00     0.033 A 
HETATM    2  C   UNK N   1      37.523  13.699  10.918  0.00  0.00    -0.013 A 
HETATM    3  C   UNK N   1      36.905  14.626  10.068  0.00  0.00     0.028 A 
HETATM    4  C   UNK N   1      35.707  15.276  10.416  0.00  0.00     0.032 A 
HETATM    5  C   UNK N   1      35.130  15.008  11.661  0.00  0.00     0.019 A 
HETATM    6  C   UNK N   1      35.712  14.073  12.514  0.00  0.00     0.030 A 
ENDROOT
BRANCH   4   7
HETATM    7  C   UNK N   1      35.087  16.296   9.514  0.00  0.00     0.253 C 
HETATM    8  N   UNK N   1      34.344  15.948   8.412  0.00  0.00    -0.347 N 
HETATM    9  C   UNK N   1      33.875  14.595   8.208  0.00  0.00     0.153 C 
HETATM   10  O   UNK N   1      35.261  17.480   9.771  0.00  0.00    -0.267 OA
BRANCH   8  11
HETATM   11  C   UNK N   1      33.936  16.970   7.466  0.00  0.00     0.182 C 
BRANCH  11  12
HETATM   12  C   UNK N   1      32.462  17.291   7.575  0.00  0.00     0.030 A 
HETATM   13  C   UNK N   1      31.911  17.956   8.670  0.00  0.00     0.040 A 
HETATM   14  C   UNK N   1      30.553  17.986   8.417  0.00  0.00    -0.007 A 
HETATM   15  C   UNK N   1      30.327  17.359   7.221  0.00  0.00     0.044 A 
HETATM   16  C   UNK N   1      29.514  18.515   9.176  0.00  0.00     0.014 A 
HETATM   17  N   UNK N   1      31.487  16.940   6.692  0.00  0.00    -0.352 N 
HETATM   18  C   UNK N   1      29.042  17.205   6.703  0.00  0.00     0.030 A 
HETATM   19  C   UNK N   1      31.629  16.232   5.426  0.00  0.00     0.156 C 
HETATM   20  C   UNK N   1      27.968  17.723   7.451  0.00  0.00     0.002 A 
HETATM   21  C   UNK N   1      28.204  18.379   8.681  0.00  0.00     0.001 A 
ENDBRANCH  11  12
ENDBRANCH   8  11
ENDBRANCH   4   7
BRANCH   2  22
HETATM   22  C   UNK N   1      38.727  12.946  10.344  0.00  0.00     0.166 C 
BRANCH  22  23
HETATM   23  N   UNK N   1      38.560  11.943   9.293  0.00  0.00    -0.352 N 
HETATM   24  C   UNK N   1      38.866  12.225   7.989  0.00  0.00     0.215 C 
HETATM   25  O   UNK N   1      38.549  11.446   7.099  0.00  0.00    -0.274 OA
HETATM   26  C   UNK N   1      39.548  13.500   7.602  0.00  0.00     0.117 C 
HETATM   27  C   UNK N   1      37.814  10.741   9.572  0.00  0.00     0.152 C 
ENDBRANCH  22  23
ENDBRANCH   2  22
BRANCH   1  28
HETATM   28  N   UNK N   1      37.388  12.430  13.032  0.00  0.00    -0.399 N 
HETATM   29  H   UNK N   1      37.916  11.676  12.684  0.00  0.00     0.156 HD
HETATM   30  H   UNK N   1      37.209  12.498  13.998  0.00  0.00     0.156 HD
ENDBRANCH   1  28
TORSDOF 6
ENDMDL
MODEL 7
REMARK VINA RESULT:      -7.2      3.377      9.331
REMARK  6 active torsions:
REMARK  status: ('A' for Active; 'I' for Inactive)
REMARK    1  A    between atoms: C_1  and  C_7 
REMARK    2  A    between atoms: C_1  and  N_13 
REMARK       I    between atoms: C_2  and  N_13 
REMARK    3  A    between atoms: C_3  and  C_9 
REMARK       I    between atoms: C_3  and  N_17 
REMARK    4  A    between atoms: C_4  and  N_17 
REMARK    5  A    between atoms: C_4  and  C_19 
REMARK    6  A    between atoms: C_6  and  N_12 
ROOT
HETATM    1  C   UNK N   1      28.692  18.234   8.621  0.00  0.00     0.033 A 
HETATM    2  C   UNK N   1      28.868  17.643   7.341  0.00  0.00    -0.013 A 
HETATM    3  C   UNK N   1      30.171  17.303   6.951  0.00  0.00     0.028 A 
HETATM    4  C   UNK N   1      31.281  17.513   7.788  0.00  0.00     0.032 A 
HETATM    5  C   UNK N   1      31.074  18.052   9.062  0.00  0.00     0.019 A 
HETATM    6  C   UNK N   1      29.793  18.420   9.465  0.00  0.00     0.030 A 
ENDROOT
BRANCH   4   7
HETATM    7  C   UNK N   1      32.658  17.102   7.370  0.00  0.00     0.253 C 
HETATM    8  N   UNK N   1      33.137  15.830   7.570  0.00  0.00    -0.347 N 
HETATM    9  C   UNK N   1      32.262  14.736   7.932  0.00  0.00     0.153 C 
HETATM   10  O   UNK N   1      33.377  17.938   6.841  0.00  0.00    -0.267 OA
BRANCH   8  11
HETATM   11  C   UNK N   1      34.538  15.542   7.328  0.00  0.00     0.182 C 
BRANCH  11  12
HETATM   12  C   UNK N   1      35.196  14.875   8.515  0.00  0.00     0.030 A 
HETATM   13  C   UNK N   1      35.674  13.565   8.479  0.00  0.00     0.040 A 
HETATM   14  C   UNK N   1      36.125  13.320   9.762  0.00  0.00    -0.007 A 
HETATM   15  C   UNK N   1      35.913  14.445  10.512  0.00  0.00     0.044 A 
HETATM   16  C   UNK N   1      36.693  12.171  10.305  0.00  0.00     0.014 A 
HETATM   17  N   UNK N   1      35.357  15.405   9.759  0.00  0.00    -0.352 N 
HETATM   18  C   UNK N   1      36.243  14.498  11.867  0.00  0.00     0.030 A 
HETATM   19  C   UNK N   1      34.991  16.737  10.226  0.00  0.00     0.156 C 
HETATM   20  C   UNK N   1      36.812  13.350  12.448  0.00  0.00     0.002 A 
HETATM   21  C   UNK N   1      37.040  12.192  11.668  0.00  0.00     0.001 A 
ENDBRANCH  11  12
ENDBRANCH   8  11
ENDBRANCH   4   7
BRANCH   2  22
HETATM   22  C   UNK N   1      27.781  17.516   6.271  0.00  0.00     0.166 C 
BRANCH  22  23
HETATM   23  N   UNK N   1      27.912  18.185   4.977  0.00  0.00    -0.352 N 
HETATM   24  C   UNK N   1      27.495  19.478   4.802  0.00  0.00     0.215 C 
HETATM   25  O   UNK N   1      27.437  19.960   3.678  0.00  0.00    -0.274 OA
HETATM   26  C   UNK N   1      27.055  20.322   5.957  0.00  0.00     0.117 C 
HETATM   27  C   UNK N   1      28.223  17.407   3.805  0.00  0.00     0.152 C 
ENDBRANCH  22  23
ENDBRANCH   2  22
BRANCH   1  28
HETATM   28  N   UNK N   1      27.438  18.687   9.063  0.00  0.00    -0.399 N 
HETATM   29  H   UNK N   1      26.733  18.903   8.411  0.00  0.00     0.156 HD
HETATM   30  H   UNK N   1      27.265  18.790  10.026  0.00  0.00     0.156 HD
ENDBRANCH   1  28
TORSDOF 6
ENDMDL
MODEL 8
REMARK VINA RESULT:      -7.1      2.123      3.991
REMARK  6 active torsions:
REMARK  status: ('A' for Active; 'I' for Inactive)
REMARK    1  A    between atoms: C_1  and  C_7 
REMARK    2  A    between atoms: C_1  and  N_13 
REMARK       I    between atoms: C_2  and  N_13 
REMARK    3  A    between atoms: C_3  and  C_9 
REMARK       I    between atoms: C_3  and  N_17 
REMARK    4  A    between atoms: C_4  and  N_17 
REMARK    5  A    between atoms: C_4  and  C_19 
REMARK    6  A    between atoms: C_6  and  N_12 
ROOT
HETATM    1  C   UNK N   1      36.981  13.025  11.761  0.00  0.00     0.033 A 
HETATM    2  C   UNK N   1      37.473  13.543  10.533  0.00  0.00    -0.013 A 
HETATM    3  C   UNK N   1      36.844  14.677  10.002  0.00  0.00     0.028 A 
HETATM    4  C   UNK N   1      35.773  15.313  10.654  0.00  0.00     0.032 A 
HETATM    5  C   UNK N   1      35.339  14.812  11.886  0.00  0.00     0.019 A 
HETATM    6  C   UNK N   1      35.930  13.671  12.424  0.00  0.00     0.030 A 
ENDROOT
BRANCH   4   7
HETATM    7  C   UNK N   1      35.145  16.550  10.093  0.00  0.00     0.253 C 
HETATM    8  N   UNK N   1      34.051  16.507   9.264  0.00  0.00    -0.347 N 
HETATM    9  C   UNK N   1      33.263  15.304   9.107  0.00  0.00     0.153 C 
HETATM   10  O   UNK N   1      35.637  17.632  10.381  0.00  0.00    -0.267 OA
BRANCH   8  11
HETATM   11  C   UNK N   1      33.607  17.714   8.593  0.00  0.00     0.182 C 
BRANCH  11  12
HETATM   12  C   UNK N   1      32.999  17.424   7.239  0.00  0.00     0.030 A 
HETATM   13  C   UNK N   1      33.758  17.326   6.074  0.00  0.00     0.040 A 
HETATM   14  C   UNK N   1      32.833  17.129   5.066  0.00  0.00    -0.007 A 
HETATM   15  C   UNK N   1      31.585  17.117   5.629  0.00  0.00     0.044 A 
HETATM   16  C   UNK N   1      33.023  16.976   3.697  0.00  0.00     0.014 A 
HETATM   17  N   UNK N   1      31.674  17.285   6.957  0.00  0.00    -0.352 N 
HETATM   18  C   UNK N   1      30.433  16.963   4.858  0.00  0.00     0.030 A 
HETATM   19  C   UNK N   1      30.546  17.327   7.879  0.00  0.00     0.156 C 
HETATM   20  C   UNK N   1      30.591  16.812   3.467  0.00  0.00     0.002 A 
HETATM   21  C   UNK N   1      31.882  16.814   2.890  0.00  0.00     0.001 A 
ENDBRANCH  11  12
ENDBRANCH   8  11
ENDBRANCH   4   7
BRANCH   2  22
HETATM   22  C   UNK N   1      38.510  12.857   9.640  0.00  0.00     0.166 C 
BRANCH  22  23
HETATM   23  N   UNK N   1      38.168  12.407   8.291  0.00  0.00    -0.352 N 
HETATM   24  C   UNK N   1      38.707  13.008   7.185  0.00  0.00     0.215 C 
HETATM   25  O   UNK N   1      38.273  12.748   6.070  0.00  0.00    -0.274 OA
HETATM   26  C   UNK N   1      39.798  14.026   7.300  0.00  0.00     0.117 C 
HETATM   27  C   UNK N   1      37.053  11.514   8.104  0.00  0.00     0.152 C 
ENDBRANCH  22  23
ENDBRANCH   2  22
BRANCH   1  28
HETATM   28  N   UNK N   1      37.488  11.843  12.325  0.00  0.00    -0.399 N 
HETATM   29  H   UNK N   1      38.128  11.886  13.071  0.00  0.00     0.156 HD
HETATM   30  H   UNK N   1      37.202  10.969  11.974  0.00  0.00     0.156 HD
ENDBRANCH   1  28
TORSDOF 6
ENDMDL
MODEL 9
REMARK VINA RESULT:      -7.1      3.894      7.260
REMARK  6 active torsions:
REMARK  status: ('A' for Active; 'I' for Inactive)
REMARK    1  A    between atoms: C_1  and  C_7 
REMARK    2  A    between atoms: C_1  and  N_13 
REMARK       I    between atoms: C_2  and  N_13 
REMARK    3  A    between atoms: C_3  and  C_9 
REMARK       I    between atoms: C_3  and  N_17 
REMARK    4  A    between atoms: C_4  and  N_17 
REMARK    5  A    between atoms: C_4  and  C_19 
REMARK    6  A    between atoms: C_6  and  N_12 
ROOT
HETATM    1  C   UNK N   1      35.310  12.597  19.005  0.00  0.00     0.033 A 
HETATM    2  C   UNK N   1      35.440  11.222  18.671  0.00  0.00    -0.013 A 
HETATM    3  C   UNK N   1      35.261  10.854  17.332  0.00  0.00     0.028 A 
HETATM    4  C   UNK N   1      34.979  11.797  16.327  0.00  0.00     0.032 A 
HETATM    5  C   UNK N   1      34.903  13.150  16.674  0.00  0.00     0.019 A 
HETATM    6  C   UNK N   1      35.054  13.541  18.003  0.00  0.00     0.030 A 
ENDROOT
BRANCH   4   7
HETATM    7  C   UNK N   1      34.835  11.388  14.895  0.00  0.00     0.253 C 
HETATM    8  N   UNK N   1      35.899  11.366  14.028  0.00  0.00    -0.347 N 
HETATM    9  C   UNK N   1      37.265  11.458  14.497  0.00  0.00     0.153 C 
HETATM   10  O   UNK N   1      33.724  11.072  14.491  0.00  0.00    -0.267 OA
BRANCH   8  11
HETATM   11  C   UNK N   1      35.670  11.155  12.611  0.00  0.00     0.182 C 
BRANCH  11  12
HETATM   12  C   UNK N   1      35.486  12.456  11.862  0.00  0.00     0.030 A 
HETATM   13  C   UNK N   1      35.952  13.679  12.344  0.00  0.00     0.040 A 
HETATM   14  C   UNK N   1      35.524  14.609  11.415  0.00  0.00    -0.007 A 
HETATM   15  C   UNK N   1      34.835  13.947  10.434  0.00  0.00     0.044 A 
HETATM   16  C   UNK N   1      35.693  15.989  11.391  0.00  0.00     0.014 A 
HETATM   17  N   UNK N   1      34.814  12.631  10.690  0.00  0.00    -0.352 N 
HETATM   18  C   UNK N   1      34.253  14.623   9.362  0.00  0.00     0.030 A 
HETATM   19  C   UNK N   1      34.169  11.621   9.861  0.00  0.00     0.156 C 
HETATM   20  C   UNK N   1      34.400  16.022   9.312  0.00  0.00     0.002 A 
HETATM   21  C   UNK N   1      35.121  16.701  10.321  0.00  0.00     0.001 A 
ENDBRANCH  11  12
ENDBRANCH   8  11
ENDBRANCH   4   7
BRANCH   2  22
HETATM   22  C   UNK N   1      35.574  10.079  19.681  0.00  0.00     0.166 C 
BRANCH  22  23
HETATM   23  N   UNK N   1      34.394   9.415  20.233  0.00  0.00    -0.352 N 
HETATM   24  C   UNK N   1      33.895   8.271  19.669  0.00  0.00     0.215 C 
HETATM   25  O   UNK N   1      32.808   7.833  20.022  0.00  0.00    -0.274 OA
HETATM   26  C   UNK N   1      34.628   7.550  18.581  0.00  0.00     0.117 C 
HETATM   27  C   UNK N   1      33.581  10.105  21.202  0.00  0.00     0.152 C 
ENDBRANCH  22  23
ENDBRANCH   2  22
BRANCH   1  28
HETATM   28  N   UNK N   1      35.385  13.049  20.332  0.00  0.00    -0.399 N 
HETATM   29  H   UNK N   1      34.908  13.866  20.604  0.00  0.00     0.156 HD
HETATM   30  H   UNK N   1      35.916  12.548  20.993  0.00  0.00     0.156 HD
ENDBRANCH   1  28
TORSDOF 6
ENDMDL
