MODEL 1
REMARK VINA RESULT:      -7.1      0.000      0.000
REMARK  5 active torsions:
REMARK  status: ('A' for Active; 'I' for Inactive)
REMARK    1  A    between atoms: C_3  and  C_1 
REMARK       I    between atoms: N_7  and  C_8 
REMARK    2  A    between atoms: C_10  and  C_8 
REMARK       I    between atoms: N_14  and  C_15 
REMARK    3  A    between atoms: C_15  and  O_17 
REMARK    4  A    between atoms: O_17  and  C_18 
REMARK    5  A    between atoms: C_18  and  C_19 
ROOT
HETATM    1  C   UNK N   1      27.161  25.902  -4.450  0.00  0.00     0.181 C 
HETATM    2  C   UNK N   1      26.417  26.826  -3.492  0.00  0.00     0.037 C 
HETATM    3  C   UNK N   1      25.416  27.571  -4.348  0.00  0.00     0.022 C 
HETATM    4  C   UNK N   1      25.052  26.577  -5.427  0.00  0.00     0.129 C 
HETATM    5  N   UNK N   1      26.155  25.648  -5.479  0.00  0.00    -0.315 N 
HETATM    6  C   UNK N   1      26.161  24.684  -6.458  0.00  0.00     0.363 C 
HETATM    7  O   UNK N   1      25.211  24.614  -7.220  0.00  0.00    -0.238 OA
ENDROOT
BRANCH   1   8
HETATM    8  C   UNK N   1      27.746  24.706  -3.686  0.00  0.00     0.243 C 
HETATM    9  N   UNK N   1      29.070  24.351  -3.825  0.00  0.00    -0.339 N 
HETATM   10  C   UNK N   1      29.624  23.115  -3.316  0.00  0.00     0.148 C 
HETATM   11  C   UNK N   1      30.014  25.148  -4.561  0.00  0.00     0.127 C 
HETATM   12  C   UNK N   1      31.121  23.225  -3.559  0.00  0.00     0.034 C 
HETATM   13  C   UNK N   1      31.313  24.363  -4.552  0.00  0.00     0.022 C 
HETATM   14  O   UNK N   1      27.022  24.033  -2.970  0.00  0.00    -0.271 OA
BRANCH  10  15
HETATM   15  C   UNK N   1      29.367  22.890  -1.858  0.00  0.00     0.256 C 
HETATM   16  O   UNK N   1      30.260  23.068  -1.045  0.00  0.00    -0.305 OA
ENDBRANCH  10  15
ENDBRANCH   1   8
BRANCH   6  17
HETATM   17  O   UNK N   1      27.183  23.795  -6.580  0.00  0.00    -0.299 OA
BRANCH  17  18
HETATM   18  C   UNK N   1      27.303  22.853  -7.603  0.00  0.00     0.219 C 
BRANCH  18  19
HETATM   19  C   UNK N   1      28.270  21.695  -7.464  0.00  0.00    -0.034 A 
HETATM   20  C   UNK N   1      28.120  20.472  -8.131  0.00  0.00     0.009 A 
HETATM   21  C   UNK N   1      29.028  19.429  -7.924  0.00  0.00     0.001 A 
HETATM   22  C   UNK N   1      30.111  19.606  -7.058  0.00  0.00     0.000 A 
HETATM   23  C   UNK N   1      30.280  20.825  -6.398  0.00  0.00     0.001 A 
HETATM   24  C   UNK N   1      29.358  21.860  -6.594  0.00  0.00     0.009 A 
ENDBRANCH  18  19
ENDBRANCH  17  18
ENDBRANCH   6  17
TORSDOF 5
ENDMDL
MODEL 2
REMARK VINA RESULT:      -6.3      2.306      6.679
REMARK  5 active torsions:
REMARK  status: ('A' for Active; 'I' for Inactive)
REMARK    1  A    between atoms: C_3  and  C_1 
REMARK       I    between atoms: N_7  and  C_8 
REMARK    2  A    between atoms: C_10  and  C_8 
REMARK       I    between atoms: N_14  and  C_15 
REMARK    3  A    between atoms: C_15  and  O_17 
REMARK    4  A    between atoms: O_17  and  C_18 
REMARK    5  A    between atoms: C_18  and  C_19 
ROOT
HETATM    1  C   UNK N   1      28.215  24.395  -6.179  0.00  0.00     0.181 C 
HETATM    2  C   UNK N   1      29.554  23.681  -6.023  0.00  0.00     0.037 C 
HETATM    3  C   UNK N   1      30.081  24.105  -4.670  0.00  0.00     0.022 C 
HETATM    4  C   UNK N   1      28.833  24.300  -3.841  0.00  0.00     0.129 C 
HETATM    5  N   UNK N   1      27.773  24.526  -4.792  0.00  0.00    -0.315 N 
HETATM    6  C   UNK N   1      26.523  24.852  -4.324  0.00  0.00     0.363 C 
HETATM    7  O   UNK N   1      26.338  24.891  -3.119  0.00  0.00    -0.238 OA
ENDROOT
BRANCH   1   8
HETATM    8  C   UNK N   1      27.320  23.632  -7.166  0.00  0.00     0.243 C 
HETATM    9  N   UNK N   1      26.723  24.275  -8.228  0.00  0.00    -0.339 N 
HETATM   10  C   UNK N   1      25.698  23.673  -9.054  0.00  0.00     0.148 C 
HETATM   11  C   UNK N   1      27.010  25.642  -8.568  0.00  0.00     0.127 C 
HETATM   12  C   UNK N   1      25.456  24.674 -10.172  0.00  0.00     0.034 C 
HETATM   13  C   UNK N   1      26.082  25.986  -9.719  0.00  0.00     0.022 C 
HETATM   14  O   UNK N   1      27.101  22.445  -6.990  0.00  0.00    -0.271 OA
BRANCH  10  15
HETATM   15  C   UNK N   1      26.091  22.351  -9.638  0.00  0.00     0.256 C 
HETATM   16  O   UNK N   1      25.307  21.415  -9.614  0.00  0.00    -0.305 OA
ENDBRANCH  10  15
ENDBRANCH   1   8
BRANCH   6  17
HETATM   17  O   UNK N   1      25.486  25.105  -5.168  0.00  0.00    -0.299 OA
BRANCH  17  18
HETATM   18  C   UNK N   1      25.016  26.377  -5.495  0.00  0.00     0.219 C 
BRANCH  18  19
HETATM   19  C   UNK N   1      25.860  27.601  -5.200  0.00  0.00    -0.034 A 
HETATM   20  C   UNK N   1      26.868  28.074  -6.051  0.00  0.00     0.009 A 
HETATM   21  C   UNK N   1      27.639  29.186  -5.697  0.00  0.00     0.001 A 
HETATM   22  C   UNK N   1      27.396  29.850  -4.491  0.00  0.00     0.000 A 
HETATM   23  C   UNK N   1      26.385  29.397  -3.641  0.00  0.00     0.001 A 
HETATM   24  C   UNK N   1      25.629  28.272  -3.991  0.00  0.00     0.009 A 
ENDBRANCH  18  19
ENDBRANCH  17  18
ENDBRANCH   6  17
TORSDOF 5
ENDMDL
MODEL 3
REMARK VINA RESULT:      -6.2     13.919     17.381
REMARK  5 active torsions:
REMARK  status: ('A' for Active; 'I' for Inactive)
REMARK    1  A    between atoms: C_3  and  C_1 
REMARK       I    between atoms: N_7  and  C_8 
REMARK    2  A    between atoms: C_10  and  C_8 
REMARK       I    between atoms: N_14  and  C_15 
REMARK    3  A    between atoms: C_15  and  O_17 
REMARK    4  A    between atoms: O_17  and  C_18 
REMARK    5  A    between atoms: C_18  and  C_19 
ROOT
HETATM    1  C   UNK N   1      35.157  13.945   9.646  0.00  0.00     0.181 C 
HETATM    2  C   UNK N   1      34.834  12.871  10.680  0.00  0.00     0.037 C 
HETATM    3  C   UNK N   1      35.431  13.369  11.977  0.00  0.00     0.022 C 
HETATM    4  C   UNK N   1      35.314  14.872  11.876  0.00  0.00     0.129 C 
HETATM    5  N   UNK N   1      35.214  15.154  10.465  0.00  0.00    -0.315 N 
HETATM    6  C   UNK N   1      35.211  16.464  10.050  0.00  0.00     0.363 C 
HETATM    7  O   UNK N   1      35.242  17.346  10.892  0.00  0.00    -0.238 OA
ENDROOT
BRANCH   1   8
HETATM    8  C   UNK N   1      34.148  13.889   8.490  0.00  0.00     0.243 C 
HETATM    9  N   UNK N   1      34.561  13.991   7.180  0.00  0.00    -0.339 N 
HETATM   10  C   UNK N   1      33.653  14.172   6.067  0.00  0.00     0.148 C 
HETATM   11  C   UNK N   1      35.948  14.006   6.802  0.00  0.00     0.127 C 
HETATM   12  C   UNK N   1      34.526  14.076   4.827  0.00  0.00     0.034 C 
HETATM   13  C   UNK N   1      35.965  14.230   5.301  0.00  0.00     0.022 C 
HETATM   14  O   UNK N   1      32.956  13.788   8.732  0.00  0.00    -0.271 OA
BRANCH  10  15
HETATM   15  C   UNK N   1      32.567  13.143   5.998  0.00  0.00     0.256 C 
HETATM   16  O   UNK N   1      31.406  13.489   5.842  0.00  0.00    -0.305 OA
ENDBRANCH  10  15
ENDBRANCH   1   8
BRANCH   6  17
HETATM   17  O   UNK N   1      35.146  16.798   8.734  0.00  0.00    -0.299 OA
BRANCH  17  18
HETATM   18  C   UNK N   1      34.402  17.859   8.216  0.00  0.00     0.219 C 
BRANCH  18  19
HETATM   19  C   UNK N   1      33.322  17.600   7.185  0.00  0.00    -0.034 A 
HETATM   20  C   UNK N   1      32.005  17.249   7.510  0.00  0.00     0.009 A 
HETATM   21  C   UNK N   1      31.068  16.983   6.506  0.00  0.00     0.001 A 
HETATM   22  C   UNK N   1      31.436  17.084   5.161  0.00  0.00     0.000 A 
HETATM   23  C   UNK N   1      32.741  17.447   4.824  0.00  0.00     0.001 A 
HETATM   24  C   UNK N   1      33.681  17.694   5.832  0.00  0.00     0.009 A 
ENDBRANCH  18  19
ENDBRANCH  17  18
ENDBRANCH   6  17
TORSDOF 5
ENDMDL
MODEL 4
REMARK VINA RESULT:      -6.2     14.661     16.905
REMARK  5 active torsions:
REMARK  status: ('A' for Active; 'I' for Inactive)
REMARK    1  A    between atoms: C_3  and  C_1 
REMARK       I    between atoms: N_7  and  C_8 
REMARK    2  A    between atoms: C_10  and  C_8 
REMARK       I    between atoms: N_14  and  C_15 
REMARK    3  A    between atoms: C_15  and  O_17 
REMARK    4  A    between atoms: O_17  and  C_18 
REMARK    5  A    between atoms: C_18  and  C_19 
ROOT
HETATM    1  C   UNK N   1      21.301  15.668   4.579  0.00  0.00     0.181 C 
HETATM    2  C   UNK N   1      21.400  16.066   3.110  0.00  0.00     0.037 C 
HETATM    3  C   UNK N   1      20.674  17.389   3.003  0.00  0.00     0.022 C 
HETATM    4  C   UNK N   1      20.919  18.046   4.341  0.00  0.00     0.129 C 
HETATM    5  N   UNK N   1      21.228  16.966   5.247  0.00  0.00    -0.315 N 
HETATM    6  C   UNK N   1      21.389  17.247   6.582  0.00  0.00     0.363 C 
HETATM    7  O   UNK N   1      21.313  18.408   6.951  0.00  0.00    -0.238 OA
ENDROOT
BRANCH   1   8
HETATM    8  C   UNK N   1      22.449  14.717   4.948  0.00  0.00     0.243 C 
HETATM    9  N   UNK N   1      22.203  13.514   5.573  0.00  0.00    -0.339 N 
HETATM   10  C   UNK N   1      23.240  12.684   6.146  0.00  0.00     0.148 C 
HETATM   11  C   UNK N   1      20.874  13.006   5.783  0.00  0.00     0.127 C 
HETATM   12  C   UNK N   1      22.532  11.410   6.577  0.00  0.00     0.034 C 
HETATM   13  C   UNK N   1      21.042  11.726   6.581  0.00  0.00     0.022 C 
HETATM   14  O   UNK N   1      23.602  15.043   4.720  0.00  0.00    -0.271 OA
BRANCH  10  15
HETATM   15  C   UNK N   1      24.344  12.347   5.191  0.00  0.00     0.256 C 
HETATM   16  O   UNK N   1      24.115  11.653   4.213  0.00  0.00    -0.305 OA
ENDBRANCH  10  15
ENDBRANCH   1   8
BRANCH   6  17
HETATM   17  O   UNK N   1      21.654  16.272   7.492  0.00  0.00    -0.299 OA
BRANCH  17  18
HETATM   18  C   UNK N   1      20.710  15.700   8.346  0.00  0.00     0.219 C 
BRANCH  18  19
HETATM   19  C   UNK N   1      21.081  14.506   9.202  0.00  0.00    -0.034 A 
HETATM   20  C   UNK N   1      20.157  13.780   9.966  0.00  0.00     0.009 A 
HETATM   21  C   UNK N   1      20.575  12.714  10.768  0.00  0.00     0.001 A 
HETATM   22  C   UNK N   1      21.924  12.349  10.800  0.00  0.00     0.000 A 
HETATM   23  C   UNK N   1      22.852  13.056  10.033  0.00  0.00     0.001 A 
HETATM   24  C   UNK N   1      22.432  14.135   9.246  0.00  0.00     0.009 A 
ENDBRANCH  18  19
ENDBRANCH  17  18
ENDBRANCH   6  17
TORSDOF 5
ENDMDL
MODEL 5
REMARK VINA RESULT:      -6.2     10.672     12.171
REMARK  5 active torsions:
REMARK  status: ('A' for Active; 'I' for Inactive)
REMARK    1  A    between atoms: C_3  and  C_1 
REMARK       I    between atoms: N_7  and  C_8 
REMARK    2  A    between atoms: C_10  and  C_8 
REMARK       I    between atoms: N_14  and  C_15 
REMARK    3  A    between atoms: C_15  and  O_17 
REMARK    4  A    between atoms: O_17  and  C_18 
REMARK    5  A    between atoms: C_18  and  C_19 
ROOT
HETATM    1  C   UNK N   1      25.500  19.302   4.875  0.00  0.00     0.181 C 
HETATM    2  C   UNK N   1      26.150  20.631   5.243  0.00  0.00     0.037 C 
HETATM    3  C   UNK N   1      27.584  20.294   5.592  0.00  0.00     0.022 C 
HETATM    4  C   UNK N   1      27.906  19.119   4.699  0.00  0.00     0.129 C 
HETATM    5  N   UNK N   1      26.632  18.537   4.355  0.00  0.00    -0.315 N 
HETATM    6  C   UNK N   1      26.610  17.368   3.634  0.00  0.00     0.363 C 
HETATM    7  O   UNK N   1      27.669  16.886   3.265  0.00  0.00    -0.238 OA
ENDROOT
BRANCH   1   8
HETATM    8  C   UNK N   1      24.292  19.540   3.957  0.00  0.00     0.243 C 
HETATM    9  N   UNK N   1      23.093  18.899   4.178  0.00  0.00    -0.339 N 
HETATM   10  C   UNK N   1      21.998  18.903   3.232  0.00  0.00     0.148 C 
HETATM   11  C   UNK N   1      22.846  18.096   5.345  0.00  0.00     0.127 C 
HETATM   12  C   UNK N   1      20.851  18.215   3.955  0.00  0.00     0.034 C 
HETATM   13  C   UNK N   1      21.463  17.500   5.152  0.00  0.00     0.022 C 
HETATM   14  O   UNK N   1      24.402  20.280   2.993  0.00  0.00    -0.271 OA
BRANCH  10  15
HETATM   15  C   UNK N   1      21.572  20.273   2.803  0.00  0.00     0.256 C 
HETATM   16  O   UNK N   1      20.724  20.877   3.441  0.00  0.00    -0.305 OA
ENDBRANCH  10  15
ENDBRANCH   1   8
BRANCH   6  17
HETATM   17  O   UNK N   1      25.444  16.753   3.302  0.00  0.00    -0.299 OA
BRANCH  17  18
HETATM   18  C   UNK N   1      25.268  15.372   3.211  0.00  0.00     0.219 C 
BRANCH  18  19
HETATM   19  C   UNK N   1      24.188  14.798   2.318  0.00  0.00    -0.034 A 
HETATM   20  C   UNK N   1      24.451  14.031   1.174  0.00  0.00     0.009 A 
HETATM   21  C   UNK N   1      23.406  13.567   0.369  0.00  0.00     0.001 A 
HETATM   22  C   UNK N   1      22.081  13.850   0.712  0.00  0.00     0.000 A 
HETATM   23  C   UNK N   1      21.805  14.600   1.856  0.00  0.00     0.001 A 
HETATM   24  C   UNK N   1      22.855  15.079   2.649  0.00  0.00     0.009 A 
ENDBRANCH  18  19
ENDBRANCH  17  18
ENDBRANCH   6  17
TORSDOF 5
ENDMDL
MODEL 6
REMARK VINA RESULT:      -6.0     11.037     13.262
REMARK  5 active torsions:
REMARK  status: ('A' for Active; 'I' for Inactive)
REMARK    1  A    between atoms: C_3  and  C_1 
REMARK       I    between atoms: N_7  and  C_8 
REMARK    2  A    between atoms: C_10  and  C_8 
REMARK       I    between atoms: N_14  and  C_15 
REMARK    3  A    between atoms: C_15  and  O_17 
REMARK    4  A    between atoms: O_17  and  C_18 
REMARK    5  A    between atoms: C_18  and  C_19 
ROOT
HETATM    1  C   UNK N   1      30.367  14.354   3.546  0.00  0.00     0.181 C 
HETATM    2  C   UNK N   1      31.156  13.410   2.645  0.00  0.00     0.037 C 
HETATM    3  C   UNK N   1      30.116  12.626   1.875  0.00  0.00     0.022 C 
HETATM    4  C   UNK N   1      28.972  13.600   1.717  0.00  0.00     0.129 C 
HETATM    5  N   UNK N   1      29.144  14.567   2.774  0.00  0.00    -0.315 N 
HETATM    6  C   UNK N   1      28.177  15.526   2.957  0.00  0.00     0.363 C 
HETATM    7  O   UNK N   1      27.229  15.559   2.189  0.00  0.00    -0.238 OA
ENDROOT
BRANCH   1   8
HETATM    8  C   UNK N   1      31.223  15.574   3.914  0.00  0.00     0.243 C 
HETATM    9  N   UNK N   1      31.273  16.044   5.208  0.00  0.00    -0.339 N 
HETATM   10  C   UNK N   1      31.872  17.309   5.577  0.00  0.00     0.148 C 
HETATM   11  C   UNK N   1      30.661  15.351   6.309  0.00  0.00     0.127 C 
HETATM   12  C   UNK N   1      31.835  17.333   7.096  0.00  0.00     0.034 C 
HETATM   13  C   UNK N   1      30.860  16.244   7.521  0.00  0.00     0.022 C 
HETATM   14  O   UNK N   1      31.843  16.163   3.043  0.00  0.00    -0.271 OA
BRANCH  10  15
HETATM   15  C   UNK N   1      33.285  17.470   5.106  0.00  0.00     0.256 C 
HETATM   16  O   UNK N   1      34.161  17.781   5.897  0.00  0.00    -0.305 OA
ENDBRANCH  10  15
ENDBRANCH   1   8
BRANCH   6  17
HETATM   17  O   UNK N   1      28.264  16.450   3.952  0.00  0.00    -0.299 OA
BRANCH  17  18
HETATM   18  C   UNK N   1      28.467  17.816   3.755  0.00  0.00     0.219 C 
BRANCH  18  19
HETATM   19  C   UNK N   1      28.077  18.808   4.833  0.00  0.00    -0.034 A 
HETATM   20  C   UNK N   1      28.273  18.584   6.202  0.00  0.00     0.009 A 
HETATM   21  C   UNK N   1      27.850  19.525   7.147  0.00  0.00     0.001 A 
HETATM   22  C   UNK N   1      27.242  20.712   6.729  0.00  0.00     0.000 A 
HETATM   23  C   UNK N   1      27.054  20.953   5.366  0.00  0.00     0.001 A 
HETATM   24  C   UNK N   1      27.461  20.000   4.425  0.00  0.00     0.009 A 
ENDBRANCH  18  19
ENDBRANCH  17  18
ENDBRANCH   6  17
TORSDOF 5
ENDMDL
MODEL 7
REMARK VINA RESULT:      -6.0      2.293      4.328
REMARK  5 active torsions:
REMARK  status: ('A' for Active; 'I' for Inactive)
REMARK    1  A    between atoms: C_3  and  C_1 
REMARK       I    between atoms: N_7  and  C_8 
REMARK    2  A    between atoms: C_10  and  C_8 
REMARK       I    between atoms: N_14  and  C_15 
REMARK    3  A    between atoms: C_15  and  O_17 
REMARK    4  A    between atoms: O_17  and  C_18 
REMARK    5  A    between atoms: C_18  and  C_19 
ROOT
HETATM    1  C   UNK N   1      26.526  25.322  -7.926  0.00  0.00     0.181 C 
HETATM    2  C   UNK N   1      25.541  26.038  -8.844  0.00  0.00     0.037 C 
HETATM    3  C   UNK N   1      25.475  25.196 -10.099  0.00  0.00     0.022 C 
HETATM    4  C   UNK N   1      25.691  23.786  -9.600  0.00  0.00     0.129 C 
HETATM    5  N   UNK N   1      26.371  23.927  -8.336  0.00  0.00    -0.315 N 
HETATM    6  C   UNK N   1      26.807  22.796  -7.690  0.00  0.00     0.363 C 
HETATM    7  O   UNK N   1      26.561  21.707  -8.181  0.00  0.00    -0.238 OA
ENDROOT
BRANCH   1   8
HETATM    8  C   UNK N   1      26.250  25.690  -6.461  0.00  0.00     0.243 C 
HETATM    9  N   UNK N   1      27.207  26.316  -5.693  0.00  0.00    -0.339 N 
HETATM   10  C   UNK N   1      27.096  26.485  -4.259  0.00  0.00     0.148 C 
HETATM   11  C   UNK N   1      28.449  26.793  -6.237  0.00  0.00     0.127 C 
HETATM   12  C   UNK N   1      28.285  27.349  -3.873  0.00  0.00     0.034 C 
HETATM   13  C   UNK N   1      29.244  27.317  -5.054  0.00  0.00     0.022 C 
HETATM   14  O   UNK N   1      25.180  25.394  -5.955  0.00  0.00    -0.271 OA
BRANCH  10  15
HETATM   15  C   UNK N   1      25.827  27.151  -3.824  0.00  0.00     0.256 C 
HETATM   16  O   UNK N   1      25.857  28.026  -2.973  0.00  0.00    -0.305 OA
ENDBRANCH  10  15
ENDBRANCH   1   8
BRANCH   6  17
HETATM   17  O   UNK N   1      27.479  22.860  -6.509  0.00  0.00    -0.299 OA
BRANCH  17  18
HETATM   18  C   UNK N   1      28.861  22.730  -6.369  0.00  0.00     0.219 C 
BRANCH  18  19
HETATM   19  C   UNK N   1      29.488  22.692  -4.990  0.00  0.00    -0.034 A 
HETATM   20  C   UNK N   1      29.361  23.724  -4.050  0.00  0.00     0.009 A 
HETATM   21  C   UNK N   1      30.003  23.642  -2.810  0.00  0.00     0.001 A 
HETATM   22  C   UNK N   1      30.765  22.516  -2.489  0.00  0.00     0.000 A 
HETATM   23  C   UNK N   1      30.888  21.475  -3.412  0.00  0.00     0.001 A 
HETATM   24  C   UNK N   1      30.259  21.569  -4.659  0.00  0.00     0.009 A 
ENDBRANCH  18  19
ENDBRANCH  17  18
ENDBRANCH   6  17
TORSDOF 5
ENDMDL
MODEL 8
REMARK VINA RESULT:      -5.9     12.879     15.076
REMARK  5 active torsions:
REMARK  status: ('A' for Active; 'I' for Inactive)
REMARK    1  A    between atoms: C_3  and  C_1 
REMARK       I    between atoms: N_7  and  C_8 
REMARK    2  A    between atoms: C_10  and  C_8 
REMARK       I    between atoms: N_14  and  C_15 
REMARK    3  A    between atoms: C_15  and  O_17 
REMARK    4  A    between atoms: O_17  and  C_18 
REMARK    5  A    between atoms: C_18  and  C_19 
ROOT
HETATM    1  C   UNK N   1      21.349  15.965   3.382  0.00  0.00     0.181 C 
HETATM    2  C   UNK N   1      21.112  15.439   1.970  0.00  0.00     0.037 C 
HETATM    3  C   UNK N   1      20.246  14.210   2.138  0.00  0.00     0.022 C 
HETATM    4  C   UNK N   1      19.404  14.525   3.353  0.00  0.00     0.129 C 
HETATM    5  N   UNK N   1      20.141  15.530   4.080  0.00  0.00    -0.315 N 
HETATM    6  C   UNK N   1      19.672  15.937   5.305  0.00  0.00     0.363 C 
HETATM    7  O   UNK N   1      18.621  15.472   5.716  0.00  0.00    -0.238 OA
ENDROOT
BRANCH   1   8
HETATM    8  C   UNK N   1      21.673  17.465   3.341  0.00  0.00     0.243 C 
HETATM    9  N   UNK N   1      22.908  17.937   3.726  0.00  0.00    -0.339 N 
HETATM   10  C   UNK N   1      23.201  19.341   3.926  0.00  0.00     0.148 C 
HETATM   11  C   UNK N   1      24.008  17.066   4.042  0.00  0.00     0.127 C 
HETATM   12  C   UNK N   1      24.698  19.396   4.187  0.00  0.00     0.034 C 
HETATM   13  C   UNK N   1      25.133  17.973   4.508  0.00  0.00     0.022 C 
HETATM   14  O   UNK N   1      20.813  18.260   2.998  0.00  0.00    -0.271 OA
BRANCH  10  15
HETATM   15  C   UNK N   1      22.863  20.204   2.750  0.00  0.00     0.256 C 
HETATM   16  O   UNK N   1      22.323  21.286   2.921  0.00  0.00    -0.305 OA
ENDBRANCH  10  15
ENDBRANCH   1   8
BRANCH   6  17
HETATM   17  O   UNK N   1      20.333  16.860   6.054  0.00  0.00    -0.299 OA
BRANCH  17  18
HETATM   18  C   UNK N   1      21.390  16.576   6.919  0.00  0.00     0.219 C 
BRANCH  18  19
HETATM   19  C   UNK N   1      21.326  15.367   7.830  0.00  0.00    -0.034 A 
HETATM   20  C   UNK N   1      20.452  15.261   8.920  0.00  0.00     0.009 A 
HETATM   21  C   UNK N   1      20.475  14.133   9.747  0.00  0.00     0.001 A 
HETATM   22  C   UNK N   1      21.364  13.088   9.480  0.00  0.00     0.000 A 
HETATM   23  C   UNK N   1      22.230  13.176   8.389  0.00  0.00     0.001 A 
HETATM   24  C   UNK N   1      22.217  14.314   7.575  0.00  0.00     0.009 A 
ENDBRANCH  18  19
ENDBRANCH  17  18
ENDBRANCH   6  17
TORSDOF 5
ENDMDL
MODEL 9
REMARK VINA RESULT:      -5.9      2.141      4.794
REMARK  5 active torsions:
REMARK  status: ('A' for Active; 'I' for Inactive)
REMARK    1  A    between atoms: C_3  and  C_1 
REMARK       I    between atoms: N_7  and  C_8 
REMARK    2  A    between atoms: C_10  and  C_8 
REMARK       I    between atoms: N_14  and  C_15 
REMARK    3  A    between atoms: C_15  and  O_17 
REMARK    4  A    between atoms: O_17  and  C_18 
REMARK    5  A    between atoms: C_18  and  C_19 
ROOT
HETATM    1  C   UNK N   1      26.119  26.110  -5.391  0.00  0.00     0.181 C 
HETATM    2  C   UNK N   1      25.229  27.348  -5.402  0.00  0.00     0.037 C 
HETATM    3  C   UNK N   1      25.564  28.096  -4.131  0.00  0.00     0.022 C 
HETATM    4  C   UNK N   1      27.028  27.793  -3.908  0.00  0.00     0.129 C 
HETATM    5  N   UNK N   1      27.280  26.571  -4.633  0.00  0.00    -0.315 N 
HETATM    6  C   UNK N   1      28.515  25.979  -4.522  0.00  0.00     0.363 C 
HETATM    7  O   UNK N   1      29.374  26.532  -3.854  0.00  0.00    -0.238 OA
ENDROOT
BRANCH   1   8
HETATM    8  C   UNK N   1      26.334  25.598  -6.822  0.00  0.00     0.243 C 
HETATM    9  N   UNK N   1      26.064  24.290  -7.159  0.00  0.00    -0.339 N 
HETATM   10  C   UNK N   1      26.454  23.691  -8.417  0.00  0.00     0.148 C 
HETATM   11  C   UNK N   1      25.433  23.370  -6.251  0.00  0.00     0.127 C 
HETATM   12  C   UNK N   1      25.821  22.309  -8.408  0.00  0.00     0.034 C 
HETATM   13  C   UNK N   1      25.413  22.031  -6.968  0.00  0.00     0.022 C 
HETATM   14  O   UNK N   1      26.786  26.349  -7.671  0.00  0.00    -0.271 OA
BRANCH  10  15
HETATM   15  C   UNK N   1      25.987  24.450  -9.620  0.00  0.00     0.256 C 
HETATM   16  O   UNK N   1      24.798  24.488  -9.896  0.00  0.00    -0.305 OA
ENDBRANCH  10  15
ENDBRANCH   1   8
BRANCH   6  17
HETATM   17  O   UNK N   1      28.809  24.813  -5.156  0.00  0.00    -0.299 OA
BRANCH  17  18
HETATM   18  C   UNK N   1      28.553  23.540  -4.644  0.00  0.00     0.219 C 
BRANCH  18  19
HETATM   19  C   UNK N   1      29.659  22.506  -4.584  0.00  0.00    -0.034 A 
HETATM   20  C   UNK N   1      29.937  21.604  -5.621  0.00  0.00     0.009 A 
HETATM   21  C   UNK N   1      30.946  20.645  -5.482  0.00  0.00     0.001 A 
HETATM   22  C   UNK N   1      31.702  20.591  -4.308  0.00  0.00     0.000 A 
HETATM   23  C   UNK N   1      31.445  21.493  -3.274  0.00  0.00     0.001 A 
HETATM   24  C   UNK N   1      30.421  22.438  -3.409  0.00  0.00     0.009 A 
ENDBRANCH  18  19
ENDBRANCH  17  18
ENDBRANCH   6  17
TORSDOF 5
ENDMDL
