REMARK  1 active torsions:
REMARK  status: ('A' for Active; 'I' for Inactive)
REMARK    1  A    between atoms: O_2  and  C_6 
ROOT
HETATM    1  O   UNK N   1       3.085   1.765   0.000  0.00  0.00    -0.275 OA
HETATM    2  O   UNK N   1       0.881   1.797  -0.000  0.00  0.00    -0.260 OA
HETATM    3  C   UNK N   1       4.245  -0.312   0.000  0.00  0.00     0.031 A 
HETATM    4  C   UNK N   1       4.237   1.101   0.000  0.00  0.00     0.092 A 
HETATM    5  C   UNK N   1       3.022  -0.989  -0.000  0.00  0.00     0.084 A 
HETATM    6  C   UNK N   1       5.463  -1.002  -0.000  0.00  0.00     0.017 A 
HETATM    7  C   UNK N   1       5.445   1.803   0.000  0.00  0.00     0.038 A 
HETATM    8  C   UNK N   1       1.840  -0.253  -0.000  0.00  0.00     0.120 A 
HETATM    9  C   UNK N   1       6.667  -0.291  -0.000  0.00  0.00     0.001 A 
HETATM   10  C   UNK N   1       6.657   1.108   0.000  0.00  0.00     0.003 A 
HETATM   11  C   UNK N   1       1.907   1.144  -0.000  0.00  0.00     0.290 A 
ENDROOT
BRANCH   5  12
HETATM   12  O   UNK N   1       2.975  -2.333  -0.000  0.00  0.00    -0.360 OA
HETATM   13  H   UNK N   1       2.148  -2.773  -0.000  0.00  0.00     0.217 HD
ENDBRANCH   5  12
TORSDOF 1
