REMARK  9 active torsions:
REMARK  status: ('A' for Active; 'I' for Inactive)
REMARK    1  A    between atoms: C_3  and  O_13 
REMARK    2  A    between atoms: C_5  and  C_10 
REMARK    3  A    between atoms: C_6  and  C_7 
REMARK    4  A    between atoms: C_7  and  O_8 
REMARK    5  A    between atoms: C_10  and  O_11 
REMARK    6  A    between atoms: O_13  and  C_14 
REMARK    7  A    between atoms: C_15  and  N_20 
REMARK       I    between atoms: N_20  and  C_21 
REMARK    8  A    between atoms: C_21  and  C_23 
REMARK    9  A    between atoms: C_25  and  N_29 
ROOT
HETATM    1  C   UNK N   1      -0.203  -2.198   0.394  0.00  0.00     0.102 A 
HETATM    2  C   UNK N   1       1.027  -2.746  -0.049  0.00  0.00     0.069 A 
HETATM    3  C   UNK N   1       1.097  -4.100  -0.394  0.00  0.00     0.032 A 
HETATM    4  C   UNK N   1      -0.049  -4.900  -0.340  0.00  0.00     0.002 A 
HETATM    5  C   UNK N   1      -1.269  -4.355   0.069  0.00  0.00     0.003 A 
HETATM    6  C   UNK N   1      -1.346  -3.011   0.440  0.00  0.00     0.039 A 
ENDROOT
BRANCH   1   7
HETATM    7  O   UNK N   1      -0.232  -0.889   0.765  0.00  0.00    -0.308 OA
BRANCH   7   8
HETATM    8  C   UNK N   1      -1.243   0.004   0.634  0.00  0.00     0.077 A 
HETATM    9  C   UNK N   1      -0.930   1.353   0.701  0.00  0.00     0.038 A 
HETATM   10  C   UNK N   1      -1.897   2.309   0.427  0.00  0.00     0.022 A 
HETATM   11  C   UNK N   1      -3.219   1.962   0.092  0.00  0.00     0.054 A 
HETATM   12  C   UNK N   1      -3.567   0.558   0.074  0.00  0.00     0.057 A 
HETATM   13  C   UNK N   1      -2.548  -0.377   0.334  0.00  0.00     0.056 A 
BRANCH  11  14
HETATM   14  C   UNK N   1      -4.109   3.129  -0.222  0.00  0.00     0.177 C 
HETATM   15  O   UNK N   1      -3.642   4.258  -0.191  0.00  0.00    -0.646 OA
BRANCH  14  16
HETATM   16  O   UNK N   1      -5.394   2.992  -0.572  0.00  0.00    -0.773 OA
HETATM   17  H   UNK N   1      -5.927   3.722  -0.817  0.00  0.00     0.167 HD
ENDBRANCH  14  16
ENDBRANCH  11  14
BRANCH  12  18
HETATM   18  C   UNK N   1      -4.907  -0.052  -0.210  0.00  0.00     0.177 C 
HETATM   19  O   UNK N   1      -5.027  -1.268  -0.167  0.00  0.00    -0.646 OA
BRANCH  18  20
HETATM   20  O   UNK N   1      -5.994   0.676  -0.492  0.00  0.00    -0.773 OA
HETATM   21  H   UNK N   1      -5.934   1.590  -0.690  0.00  0.00     0.167 HD
ENDBRANCH  18  20
ENDBRANCH  12  18
ENDBRANCH   7   8
ENDBRANCH   1   7
BRANCH   2  22
HETATM   22  N   UNK N   1       2.200  -1.934  -0.137  0.00  0.00    -0.320 N 
HETATM   23  C   UNK N   1       2.169  -0.654  -0.610  0.00  0.00     0.256 C 
HETATM   24  O   UNK N   1       1.191  -0.246  -1.224  0.00  0.00    -0.267 OA
HETATM   25  H   UNK N   1       3.061  -2.311   0.155  0.00  0.00     0.169 HD
BRANCH  23  26
HETATM   26  C   UNK N   1       3.266   0.285  -0.325  0.00  0.00     0.034 A 
HETATM   27  C   UNK N   1       3.023   1.656  -0.476  0.00  0.00     0.053 A 
HETATM   28  C   UNK N   1       3.989   2.603  -0.120  0.00  0.00     0.103 A 
HETATM   29  C   UNK N   1       5.228   2.163   0.368  0.00  0.00     0.036 A 
HETATM   30  C   UNK N   1       5.482   0.793   0.513  0.00  0.00     0.003 A 
HETATM   31  C   UNK N   1       4.494  -0.145   0.191  0.00  0.00     0.017 A 
BRANCH  28  32
HETATM   32  N   UNK N   1       3.693   3.992  -0.210  0.00  0.00    -0.116 N 
HETATM   33  O   UNK N   1       4.591   4.885   0.152  0.00  0.00    -0.532 OA
HETATM   34  O   UNK N   1       2.610   4.356  -0.556  0.00  0.00    -0.532 OA
ENDBRANCH  28  32
ENDBRANCH  23  26
ENDBRANCH   2  22
TORSDOF 9
