REMARK  6 active torsions:
REMARK  status: ('A' for Active; 'I' for Inactive)
REMARK    1  A    between atoms: C_5  and  C_7 
REMARK    2  A    between atoms: C_7  and  P_14 
REMARK    3  A    between atoms: C_7  and  N_18 
REMARK    4  A    between atoms: C_8  and  C_19 
REMARK    5  A    between atoms: P_14  and  O_17 
REMARK    6  A    between atoms: N_18  and  C_19 
ROOT
HETATM    1  P   UNK N   1      -0.739   2.500  -0.072  0.00  0.00     0.263 P 
HETATM    2  O   UNK N   1       0.455   3.408  -0.469  0.00  0.00    -0.652 OA
HETATM    3  O   UNK N   1      -0.674   2.438   1.660  0.00  0.00    -0.328 OA
HETATM    4  H   UNK N   1      -0.686   2.390   2.629  0.00  0.00     0.220 HD
ENDROOT
BRANCH   1   5
HETATM    5  C   UNK N   1      -0.624   0.839  -0.942  0.00  0.00     0.223 C 
BRANCH   5   6
HETATM    6  C   UNK N   1      -1.713  -0.102  -0.471  0.00  0.00    -0.025 A 
HETATM    7  C   UNK N   1      -3.061   0.287  -0.582  0.00  0.00     0.010 A 
HETATM    8  C   UNK N   1      -4.080  -0.566  -0.148  0.00  0.00     0.001 A 
HETATM    9  C   UNK N   1      -3.767  -1.815   0.393  0.00  0.00     0.000 A 
HETATM   10  C   UNK N   1      -2.432  -2.215   0.499  0.00  0.00     0.001 A 
HETATM   11  C   UNK N   1      -1.414  -1.362   0.068  0.00  0.00     0.010 A 
ENDBRANCH   5   6
BRANCH   5  12
HETATM   12  N   UNK N   1       0.723   0.254  -0.813  0.00  0.00    -0.400 N 
HETATM   13  H   UNK N   1       1.283  -0.055  -1.607  0.00  0.00     0.154 HD
BRANCH  12  14
HETATM   14  C   UNK N   1       1.170   0.163   0.574  0.00  0.00     0.154 C 
BRANCH  14  15
HETATM   15  C   UNK N   1       2.486  -0.530   0.624  0.00  0.00    -0.041 A 
HETATM   16  C   UNK N   1       3.624   0.169   1.040  0.00  0.00     0.009 A 
HETATM   17  C   UNK N   1       4.865  -0.476   1.078  0.00  0.00     0.001 A 
HETATM   18  C   UNK N   1       4.967  -1.820   0.705  0.00  0.00     0.000 A 
HETATM   19  C   UNK N   1       3.829  -2.520   0.294  0.00  0.00     0.001 A 
HETATM   20  C   UNK N   1       2.589  -1.875   0.252  0.00  0.00     0.009 A 
ENDBRANCH  14  15
ENDBRANCH  12  14
ENDBRANCH   5  12
ENDBRANCH   1   5
BRANCH   1  21
HETATM   21  O   UNK N   1      -2.137   3.440  -0.490  0.00  0.00    -0.328 OA
HETATM   22  H   UNK N   1      -2.073   4.380  -0.723  0.00  0.00     0.220 HD
ENDBRANCH   1  21
TORSDOF 6
