REMARK  10 active torsions:
REMARK  status: ('A' for Active; 'I' for Inactive)
REMARK    1  A    between atoms: C_1  and  C_2 
REMARK    2  A    between atoms: C_1  and  S_7 
REMARK    3  A    between atoms: C_2  and  C_10 
REMARK    4  A    between atoms: N_3  and  C_6 
REMARK    5  A    between atoms: C_6  and  S_7 
REMARK    6  A    between atoms: C_8  and  C_15 
REMARK    7  A    between atoms: C_14  and  C_15 
REMARK    8  A    between atoms: C_14  and  S_20 
REMARK    9  A    between atoms: N_16  and  C_19 
REMARK   10  A    between atoms: C_19  and  S_20 
ROOT
HETATM    1  C   UNK N   1       0.246   2.254  -0.000  0.00  0.00    -0.057 A 
HETATM    2  C   UNK N   1       0.312   0.853   0.001  0.00  0.00     0.014 A 
HETATM    3  C   UNK N   1      -0.841   0.076   0.000  0.00  0.00    -0.057 A 
HETATM    4  C   UNK N   1      -2.095   0.707  -0.001  0.00  0.00     0.007 A 
HETATM    5  C   UNK N   1      -2.175   2.105  -0.003  0.00  0.00     0.001 A 
HETATM    6  C   UNK N   1      -1.007   2.878  -0.003  0.00  0.00     0.007 A 
ENDROOT
BRANCH   1   7
HETATM    7  C   UNK N   1       1.501   3.085   0.000  0.00  0.00     0.049 C 
BRANCH   7   8
HETATM    8  C   UNK N   1       2.740   2.198   0.022  0.00  0.00     0.087 C 
BRANCH   8   9
HETATM    9  S   UNK N   1       4.295   3.130  -0.010  0.00  0.00    -0.095 SA
BRANCH   9  10
HETATM   10  C   UNK N   1       5.364   1.667  -0.002  0.00  0.00     0.131 C 
HETATM   11  N   UNK N   1       4.874   0.481  -0.009  0.00  0.00    -0.380 N 
HETATM   12  H   UNK N   1       3.898   0.352  -0.015  0.00  0.00     0.158 HD
ATOM     13  HN  UNK N   1       5.495  -0.328  -0.009  1.00  0.00     0.158 HD
BRANCH  10  14
HETATM   14  N   UNK N   1       6.764   1.836   0.003  0.00  0.00    -0.380 N 
HETATM   15  H   UNK N   1       7.355   1.048   0.007  0.00  0.00     0.158 HD
HETATM   16  H   UNK N   1       7.151   2.741   0.003  0.00  0.00     0.158 HD
ENDBRANCH  10  14
ENDBRANCH   9  10
ENDBRANCH   8   9
ENDBRANCH   7   8
ENDBRANCH   1   7
BRANCH   3  17
HETATM   17  C   UNK N   1      -0.673  -1.412   0.002  0.00  0.00     0.049 C 
BRANCH  17  18
HETATM   18  C   UNK N   1      -1.968  -2.198   0.000  0.00  0.00     0.087 C 
BRANCH  18  19
HETATM   19  S   UNK N   1      -1.560  -3.971  -0.000  0.00  0.00    -0.095 SA
BRANCH  19  20
HETATM   20  C   UNK N   1      -3.254  -4.589   0.000  0.00  0.00     0.131 C 
HETATM   21  N   UNK N   1      -4.254  -3.787  -0.000  0.00  0.00    -0.380 N 
HETATM   22  H   UNK N   1      -4.106  -2.814  -0.001  0.00  0.00     0.158 HD
ATOM     23  HN  UNK N   1      -5.205  -4.158  -0.000  1.00  0.00     0.158 HD
BRANCH  20  24
HETATM   24  N   UNK N   1      -3.478  -5.982   0.000  0.00  0.00    -0.380 N 
HETATM   25  H   UNK N   1      -4.397  -6.333   0.000  0.00  0.00     0.158 HD
HETATM   26  H   UNK N   1      -2.714  -6.603   0.000  0.00  0.00     0.158 HD
ENDBRANCH  20  24
ENDBRANCH  19  20
ENDBRANCH  18  19
ENDBRANCH  17  18
ENDBRANCH   3  17
TORSDOF 10
