REMARK  8 active torsions:
REMARK  status: ('A' for Active; 'I' for Inactive)
REMARK    1  A    between atoms: C_9  and  O_1 
REMARK    2  A    between atoms: C_10  and  O_2 
REMARK    3  A    between atoms: C_11  and  O_3 
REMARK    4  A    between atoms: O_7  and  N_8 
REMARK       I    between atoms: N_8  and  C_12 
REMARK    5  A    between atoms: C_9  and  C_10 
REMARK    6  A    between atoms: C_9  and  C_11 
REMARK    7  A    between atoms: C_10  and  C_12 
REMARK    8  A    between atoms: C_11  and  C_13 
ROOT
HETATM    1  C   UNK N   1       3.707  -0.408   0.235  0.00  0.00     0.195 C 
ENDROOT
BRANCH   1   2
HETATM    2  O   UNK N   1       3.636  -1.775  -0.048  0.00  0.00    -0.389 OA
HETATM    3  H   UNK N   1       2.790  -2.207  -0.244  0.00  0.00     0.210 HD
ENDBRANCH   1   2
BRANCH   1   4
HETATM    4  C   UNK N   1       5.024   0.171  -0.333  0.00  0.00     0.243 C 
BRANCH   4   5
HETATM    5  O   UNK N   1       5.139   1.518   0.020  0.00  0.00    -0.383 OA
HETATM    6  H   UNK N   1       5.989   1.916   0.264  0.00  0.00     0.210 HD
ENDBRANCH   4   5
BRANCH   4   7
HETATM    7  C   UNK N   1       6.288  -0.610   0.027  0.00  0.00     0.272 C 
HETATM    8  O   UNK N   1       6.237  -1.825   0.105  0.00  0.00    -0.268 OA
HETATM    9  N   UNK N   1       7.496  -0.006   0.178  0.00  0.00    -0.235 N 
HETATM   10  H   UNK N   1       8.276  -0.560   0.411  0.00  0.00     0.197 HD
BRANCH   9  11
HETATM   11  O   UNK N   1       7.669   1.313   0.024  0.00  0.00    -0.287 OA
HETATM   12  H   UNK N   1       8.559   1.682  -0.088  0.00  0.00     0.244 HD
ENDBRANCH   9  11
ENDBRANCH   4   7
ENDBRANCH   1   4
BRANCH   1  13
HETATM   13  C   UNK N   1       2.490   0.290  -0.407  0.00  0.00     0.250 C 
BRANCH  13  14
HETATM   14  O   UNK N   1       2.489   1.655  -0.104  0.00  0.00    -0.382 OA
HETATM   15  H   UNK N   1       3.308   2.129   0.106  0.00  0.00     0.210 HD
ENDBRANCH  13  14
BRANCH  13  16
HETATM   16  C   UNK N   1       1.165  -0.314  -0.008  0.00  0.00     0.205 C 
HETATM   17  O   UNK N   1       0.195   0.460   0.516  0.00  0.00    -0.646 OA
HETATM   18  O   UNK N   1       0.946  -1.498  -0.206  0.00  0.00    -0.646 OA
ENDBRANCH  13  16
ENDBRANCH   1  13
TORSDOF 8
