REMARK  6 active torsions:
REMARK  status: ('A' for Active; 'I' for Inactive)
REMARK    1  A    between atoms: C_1  and  C_7 
REMARK    2  A    between atoms: C_7  and  C_8 
REMARK    3  A    between atoms: C_8  and  C_9 
REMARK    4  A    between atoms: C_9  and  C_10 
REMARK    5  A    between atoms: C_10  and  C_11 
REMARK    6  A    between atoms: C_11  and  O_12 
ROOT
HETATM    1  C   UNK N   1      -0.387  -1.431  -0.061  0.00  0.00     0.038 C 
ENDROOT
BRANCH   1   2
HETATM    2  C   UNK N   1      -1.479  -0.396  -0.034  0.00  0.00    -0.058 A 
HETATM    3  C   UNK N   1      -2.804  -0.821   0.114  0.00  0.00     0.007 A 
HETATM    4  C   UNK N   1      -3.847   0.110   0.124  0.00  0.00     0.001 A 
HETATM    5  C   UNK N   1      -3.570   1.473  -0.008  0.00  0.00     0.000 A 
HETATM    6  C   UNK N   1      -2.250   1.907  -0.149  0.00  0.00     0.001 A 
HETATM    7  C   UNK N   1      -1.207   0.976  -0.167  0.00  0.00     0.007 A 
ENDBRANCH   1   2
BRANCH   1   8
HETATM    8  C   UNK N   1       0.974  -0.912  -0.519  0.00  0.00     0.005 C 
BRANCH   8   9
HETATM    9  C   UNK N   1       1.657  -0.116   0.579  0.00  0.00     0.011 C 
BRANCH   9  10
HETATM   10  C   UNK N   1       2.992   0.437   0.091  0.00  0.00     0.110 C 
BRANCH  10  11
HETATM   11  C   UNK N   1       4.087  -0.591   0.033  0.00  0.00     0.139 C 
HETATM   12  O   UNK N   1       3.863  -1.765   0.294  0.00  0.00    -0.650 OA
BRANCH  11  13
HETATM   13  O   UNK N   1       5.334  -0.211  -0.298  0.00  0.00    -0.776 OA
HETATM   14  H   UNK N   1       5.997  -0.831  -0.528  0.00  0.00     0.167 HD
ENDBRANCH  11  13
ENDBRANCH  10  11
ENDBRANCH   9  10
ENDBRANCH   8   9
ENDBRANCH   1   8
TORSDOF 6
