REMARK  8 active torsions:
REMARK  status: ('A' for Active; 'I' for Inactive)
REMARK    1  A    between atoms: C_2  and  C_3 
REMARK    2  A    between atoms: C_3  and  C_4 
REMARK    3  A    between atoms: C_7  and  C_3 
REMARK    4  A    between atoms: C_8  and  N_9 
REMARK    5  A    between atoms: N_9  and  S_10 
REMARK       I    between atoms: N_16  and  C_17 
REMARK    6  A    between atoms: C_17  and  C_19 
REMARK    7  A    between atoms: C_20  and  C_21 
REMARK    8  A    between atoms: C_21  and  N_22 
ROOT
HETATM    1  C   UNK N   1       1.770   0.499  -0.438  0.00  0.00     0.121 C 
HETATM    2  C   UNK N   1       2.638  -0.620   0.200  0.00  0.00     0.118 C 
HETATM    3  C   UNK N   1       2.081  -1.890  -0.423  0.00  0.00     0.048 C 
HETATM    4  C   UNK N   1       0.599  -1.629  -0.372  0.00  0.00     0.129 C 
HETATM    5  N   UNK N   1       0.466  -0.195  -0.282  0.00  0.00    -0.341 N 
HETATM    6  C   UNK N   1      -0.632   0.330   0.365  0.00  0.00     0.243 C 
HETATM    7  O   UNK N   1      -0.885   1.509   0.342  0.00  0.00    -0.268 OA
ENDROOT
BRANCH   1   8
HETATM    8  C   UNK N   1       1.977   1.907   0.278  0.00  0.00     0.075 C 
BRANCH   8   9
HETATM    9  C   UNK N   1       1.062   2.997  -0.219  0.00  0.00     0.238 C 
HETATM   10  O   UNK N   1       1.047   3.349  -1.386  0.00  0.00    -0.306 OA
ENDBRANCH   8   9
BRANCH   8  11
HETATM   11  C   UNK N   1       3.387   2.544   0.171  0.00  0.00    -0.010 C 
HETATM   12  C   UNK N   1       3.906   2.734  -1.247  0.00  0.00     0.010 C 
HETATM   13  C   UNK N   1       4.461   2.032   1.110  0.00  0.00     0.010 C 
ENDBRANCH   8  11
ENDBRANCH   1   8
BRANCH   6  14
HETATM   14  C   UNK N   1      -1.398  -0.514   1.324  0.00  0.00     0.072 C 
HETATM   15  C   UNK N   1      -2.246  -1.502   1.047  0.00  0.00     0.008 C 
BRANCH  15  16
HETATM   16  C   UNK N   1      -2.712  -1.778  -0.345  0.00  0.00     0.300 C 
BRANCH  16  17
HETATM   17  N   UNK N   1      -3.851  -0.943  -0.767  0.00  0.00     0.091 N 
HETATM   18  C   UNK N   1      -5.029  -1.805  -0.947  0.00  0.00     0.272 C 
HETATM   19  C   UNK N   1      -6.084  -1.603   0.140  0.00  0.00     0.030 C 
HETATM   20  C   UNK N   1      -6.564  -0.150   0.170  0.00  0.00     0.003 C 
HETATM   21  C   UNK N   1      -5.467   0.856  -0.190  0.00  0.00     0.030 C 
HETATM   22  C   UNK N   1      -4.084   0.267   0.055  0.00  0.00     0.272 C 
ENDBRANCH  16  17
ENDBRANCH  15  16
ENDBRANCH   6  14
BRANCH   2  23
HETATM   23  N   UNK N   1       4.106  -0.480   0.137  0.00  0.00    -0.313 N 
HETATM   24  H   UNK N   1       4.583   0.318   0.556  0.00  0.00     0.172 HD
BRANCH  23  25
HETATM   25  S   UNK N   1       5.010  -1.767  -0.705  0.00  0.00     0.223 S 
HETATM   26  O   UNK N   1       6.266  -2.067   0.127  0.00  0.00    -0.206 OA
HETATM   27  O   UNK N   1       5.881  -0.535  -0.992  0.00  0.00    -0.206 OA
HETATM   28  C   UNK N   1       4.807  -2.270   1.039  0.00  0.00     0.185 C 
ENDBRANCH  23  25
ENDBRANCH   2  23
TORSDOF 8
