REMARK  4 active torsions:
REMARK  status: ('A' for Active; 'I' for Inactive)
REMARK    1  A    between atoms: C_2  and  O_3 
REMARK    2  A    between atoms: C_2  and  C_6 
REMARK    3  A    between atoms: O_3  and  C_4 
REMARK    4  A    between atoms: N_13  and  C_14 
ROOT
HETATM    1  C   UNK N   1      -0.554   1.144  -0.006  0.00  0.00     0.087 A 
HETATM    2  C   UNK N   1       0.573   0.355   0.142  0.00  0.00     0.049 A 
HETATM    3  C   UNK N   1       1.878   0.857   0.656  0.00  0.00     0.071 C 
HETATM    4  C   UNK N   1      -1.556   0.267  -0.369  0.00  0.00     0.041 A 
HETATM    5  C   UNK N   1      -2.987   0.593  -0.627  0.00  0.00     0.071 C 
HETATM    6  N   UNK N   1      -1.054  -0.978  -0.437  0.00  0.00    -0.297 N 
ATOM      7  HN  UNK N   1      -1.581  -1.819  -0.670  1.00  0.00     0.187 HD
HETATM    8  N   UNK N   1       0.243  -0.934  -0.149  0.00  0.00    -0.258 N 
ENDROOT
BRANCH   8   9
HETATM    9  C   UNK N   1       1.031  -2.153  -0.114  0.00  0.00     0.078 A 
HETATM   10  C   UNK N   1       2.435  -2.234  -0.378  0.00  0.00     0.062 A 
HETATM   11 Cl   UNK N   1       3.435  -0.907  -0.941  0.00  0.00    -0.082 Cl
HETATM   12  C   UNK N   1       3.080  -3.474  -0.306  0.00  0.00     0.026 A 
HETATM   13  C   UNK N   1       2.377  -4.633   0.014  0.00  0.00     0.002 A 
HETATM   14  C   UNK N   1       1.006  -4.574   0.230  0.00  0.00     0.002 A 
HETATM   15  C   UNK N   1       0.343  -3.349   0.161  0.00  0.00     0.033 A 
ENDBRANCH   8   9
BRANCH   1  16
HETATM   16  C   UNK N   1      -0.675   2.605   0.200  0.00  0.00     0.297 C 
HETATM   17  O   UNK N   1       0.310   3.266   0.496  0.00  0.00    -0.259 OA
BRANCH  16  18
HETATM   18  O   UNK N   1      -1.877   3.205   0.025  0.00  0.00    -0.318 OA
BRANCH  18  19
HETATM   19  C   UNK N   1      -2.051   4.564   0.133  0.00  0.00     0.174 C 
HETATM   20  C   UNK N   1      -3.493   4.904  -0.176  0.00  0.00     0.034 C 
ENDBRANCH  18  19
ENDBRANCH  16  18
ENDBRANCH   1  16
TORSDOF 4
