REMARK  6 active torsions:
REMARK  status: ('A' for Active; 'I' for Inactive)
REMARK    1  A    between atoms: C_3  and  N_7 
REMARK    2  A    between atoms: C_5  and  C_10 
REMARK    3  A    between atoms: N_19  and  C_23 
REMARK    4  A    between atoms: C_23  and  C_24 
REMARK    5  A    between atoms: C_24  and  C_25 
REMARK    6  A    between atoms: C_25  and  N_26 
ROOT
HETATM    1  C   UNK N   1       3.503  -1.400   0.058  0.00  0.00     0.018 A 
HETATM    2  S   UNK N   1       3.254  -2.991   0.582  0.00  0.00    -0.087 SA
HETATM    3  C   UNK N   1       1.622  -3.039   0.372  0.00  0.00     0.035 A 
HETATM    4  C   UNK N   1       1.251  -1.831  -0.133  0.00  0.00     0.060 A 
HETATM    5  C   UNK N   1       2.258  -0.866  -0.323  0.00  0.00     0.051 A 
HETATM    6  N   UNK N   1      -0.059  -1.813  -0.317  0.00  0.00    -0.281 N 
HETATM    7  C   UNK N   1      -0.541  -2.982   0.088  0.00  0.00     0.112 A 
HETATM    8  C   UNK N   1       0.481  -3.835   0.536  0.00  0.00     0.057 A 
HETATM    9  C   UNK N   1      -1.086  -1.065  -0.736  0.00  0.00     0.188 A 
HETATM   10  N   UNK N   1      -2.262  -1.727  -0.566  0.00  0.00    -0.288 N 
HETATM   11  C   UNK N   1      -1.910  -2.952  -0.052  0.00  0.00     0.277 A 
HETATM   12  S   UNK N   1      -0.947   0.264  -1.271  0.00  0.00    -0.040 SA
HETATM   13  O   UNK N   1      -2.693  -3.839   0.243  0.00  0.00    -0.265 OA
ENDROOT
BRANCH   1  14
HETATM   14  C   UNK N   1       4.783  -0.690   0.005  0.00  0.00    -0.017 A 
HETATM   15  C   UNK N   1       5.971  -1.398   0.186  0.00  0.00     0.048 A 
HETATM   16  C   UNK N   1       7.207  -0.752   0.093  0.00  0.00     0.103 A 
HETATM   17  C   UNK N   1       7.245   0.629  -0.158  0.00  0.00     0.036 A 
HETATM   18  C   UNK N   1       6.057   1.348  -0.324  0.00  0.00     0.003 A 
HETATM   19  C   UNK N   1       4.828   0.686  -0.259  0.00  0.00     0.013 A 
BRANCH  16  20
HETATM   20  N   UNK N   1       8.404  -1.507   0.214  0.00  0.00    -0.116 N 
HETATM   21  O   UNK N   1       9.467  -0.977   0.082  0.00  0.00    -0.532 OA
HETATM   22  O   UNK N   1       8.349  -2.807   0.410  0.00  0.00    -0.532 OA
ENDBRANCH  16  20
ENDBRANCH   1  14
BRANCH  10  23
HETATM   23  C   UNK N   1      -3.601  -1.212  -0.821  0.00  0.00     0.136 C 
BRANCH  23  24
HETATM   24  C   UNK N   1      -4.253  -0.768   0.489  0.00  0.00     0.050 C 
BRANCH  24  25
HETATM   25  C   UNK N   1      -3.417   0.261   1.270  0.00  0.00     0.274 C 
BRANCH  25  26
HETATM   26  N   UNK N   1      -3.152   1.481   0.509  0.00  0.00     0.092 N 
HETATM   27  C   UNK N   1      -4.415   2.182   0.252  0.00  0.00     0.298 C 
HETATM   28  C   UNK N   1      -4.162   3.601  -0.292  0.00  0.00     0.198 C 
HETATM   29  O   UNK N   1      -2.787   3.845  -0.464  0.00  0.00    -0.388 OA
HETATM   30  C   UNK N   1      -2.214   3.764   0.816  0.00  0.00     0.198 C 
HETATM   31  C   UNK N   1      -2.257   2.313   1.326  0.00  0.00     0.298 C 
ENDBRANCH  25  26
ENDBRANCH  24  25
ENDBRANCH  23  24
ENDBRANCH  10  23
TORSDOF 6
