REMARK  7 active torsions:
REMARK  status: ('A' for Active; 'I' for Inactive)
REMARK    1  A    between atoms: C_1  and  C_7 
REMARK    2  A    between atoms: C_7  and  N_8 
REMARK    3  A    between atoms: C_7  and  N_9 
REMARK    4  A    between atoms: C_13  and  C_14 
REMARK    5  A    between atoms: C_16  and  O_17 
REMARK    6  A    between atoms: O_17  and  C_18 
REMARK    7  A    between atoms: C_24  and  O_25 
ROOT
HETATM    1  C   UNK N   1       4.525   0.999  -0.010  0.00  0.00     0.009 A 
HETATM    2  C   UNK N   1       4.502  -0.420  -0.006  0.00  0.00     0.017 A 
HETATM    3  C   UNK N   1       3.283  -1.120   0.005  0.00  0.00     0.033 A 
HETATM    4  C   UNK N   1       2.115  -0.367   0.014  0.00  0.00     0.060 A 
HETATM    5  C   UNK N   1       2.125   0.991   0.010  0.00  0.00     0.061 A 
HETATM    6  C   UNK N   1       3.307   1.721  -0.003  0.00  0.00     0.047 A 
HETATM    7  N   UNK N   1       0.856  -0.813   0.030  0.00  0.00    -0.340 N 
HETATM    8  N   UNK N   1       0.862   1.451   0.025  0.00  0.00    -0.340 N 
ATOM      9  HN  UNK N   1       0.546   2.421   0.026  1.00  0.00     0.167 HD
HETATM   10  C   UNK N   1       0.107   0.322   0.038  0.00  0.00     0.119 A 
HETATM   11  H   UNK N   1       0.543  -1.746   0.035  0.00  0.00     0.167 HD
ENDROOT
BRANCH  10  12
HETATM   12  C   UNK N   1      -1.369   0.293   0.058  0.00  0.00     0.044 A 
HETATM   13  C   UNK N   1      -1.992  -0.956   0.039  0.00  0.00     0.055 A 
HETATM   14  C   UNK N   1      -3.386  -1.075   0.035  0.00  0.00     0.079 A 
HETATM   15  C   UNK N   1      -4.169   0.082   0.070  0.00  0.00     0.040 A 
HETATM   16  C   UNK N   1      -3.561   1.342   0.094  0.00  0.00     0.040 A 
HETATM   17  C   UNK N   1      -2.166   1.457   0.078  0.00  0.00     0.079 A 
BRANCH  14  18
HETATM   18  O   UNK N   1      -3.987  -2.290  -0.047  0.00  0.00    -0.255 OA
BRANCH  18  19
HETATM   19  C   UNK N   1      -3.308  -3.496  -0.102  0.00  0.00     0.530 C 
HETATM   20  F   UNK N   1      -2.652  -3.729   1.094  0.00  0.00    -0.144 F 
HETATM   21  F   UNK N   1      -4.212  -4.515  -0.325  0.00  0.00    -0.144 F 
HETATM   22  F   UNK N   1      -2.390  -3.487  -1.140  0.00  0.00    -0.144 F 
ENDBRANCH  18  19
ENDBRANCH  14  18
BRANCH  17  23
HETATM   23  O   UNK N   1      -1.608   2.680   0.081  0.00  0.00    -0.360 OA
ATOM     24  HO  UNK N   1      -2.144   3.464   0.095  1.00  0.00     0.217 HD
ENDBRANCH  17  23
ENDBRANCH  10  12
BRANCH   1  25
HETATM   25  C   UNK N   1       5.819   1.712  -0.015  0.00  0.00     0.102 C 
BRANCH  25  26
HETATM   26  N   UNK N   1       7.031   0.984  -0.008  0.00  0.00    -0.385 N 
HETATM   27  H   UNK N   1       7.014  -0.000  -0.004  0.00  0.00     0.157 HD
HETATM   28  H   UNK N   1       7.892   1.462  -0.008  0.00  0.00     0.157 HD
ENDBRANCH  25  26
BRANCH  25  29
HETATM   29  N   UNK N   1       5.854   2.994  -0.017  0.00  0.00    -0.385 N 
HETATM   30  H   UNK N   1       6.720   3.462  -0.018  0.00  0.00     0.157 HD
HETATM   31  H   UNK N   1       5.016   3.510  -0.017  0.00  0.00     0.157 HD
ENDBRANCH  25  29
ENDBRANCH   1  25
TORSDOF 7
