REMARK  4 active torsions:
REMARK  status: ('A' for Active; 'I' for Inactive)
REMARK    1  A    between atoms: C_10  and  O_11 
REMARK    2  A    between atoms: O_11  and  P_12 
REMARK    3  A    between atoms: P_12  and  O_13 
REMARK    4  A    between atoms: P_12  and  O_15 
ROOT
HETATM    1  C   UNK N   1      -2.045  -1.943   0.608  0.00  0.00     0.024 C 
HETATM    2  C   UNK N   1      -0.840  -2.726   0.083  0.00  0.00     0.042 C 
HETATM    3  C   UNK N   1       0.408  -1.890   0.004  0.00  0.00    -0.029 A 
HETATM    4  C   UNK N   1       0.342  -0.477   0.032  0.00  0.00     0.068 A 
HETATM    5  N   UNK N   1      -0.930   0.149   0.097  0.00  0.00    -0.387 N 
HETATM    6  C   UNK N   1      -2.149  -0.600  -0.096  0.00  0.00     0.120 C 
HETATM    7  C   UNK N   1       1.642  -2.532  -0.100  0.00  0.00     0.009 A 
HETATM    8  C   UNK N   1       2.816  -1.787  -0.175  0.00  0.00     0.003 A 
HETATM    9  C   UNK N   1       2.765  -0.394  -0.141  0.00  0.00     0.040 A 
HETATM   10  C   UNK N   1       1.545   0.283  -0.029  0.00  0.00     0.107 A 
HETATM   11  H   UNK N   1      -0.982   1.115   0.278  0.00  0.00     0.159 HD
ENDROOT
BRANCH  10  12
HETATM   12  O   UNK N   1       1.594   1.649   0.010  0.00  0.00    -0.252 OA
BRANCH  12  13
HETATM   13  P   UNK N   1       0.351   2.725   0.544  0.00  0.00     0.396 P 
HETATM   14  O   UNK N   1       1.557   3.697   0.649  0.00  0.00    -0.631 OA
BRANCH  13  15
HETATM   15  O   UNK N   1      -0.292   4.082  -0.324  0.00  0.00    -0.307 OA
HETATM   16  H   UNK N   1       0.186   4.772  -0.809  0.00  0.00     0.222 HD
ENDBRANCH  13  15
BRANCH  13  17
HETATM   17  O   UNK N   1       0.164   2.454  -1.163  0.00  0.00    -0.307 OA
HETATM   18  H   UNK N   1      -0.019   2.469  -2.115  0.00  0.00     0.222 HD
ENDBRANCH  13  17
ENDBRANCH  12  13
ENDBRANCH  10  12
TORSDOF 4
