REMARK  5 active torsions:
REMARK  status: ('A' for Active; 'I' for Inactive)
REMARK    1  A    between atoms: C_4  and  C_7 
REMARK    2  A    between atoms: C_7  and  C_8 
REMARK    3  A    between atoms: C_7  and  C_9 
REMARK    4  A    between atoms: C_8  and  O_10 
REMARK    5  A    between atoms: C_9  and  O_12 
ROOT
HETATM    1  C   UNK N   1      -1.093  -0.770   0.042  0.00  0.00     0.214 C 
ENDROOT
BRANCH   1   2
HETATM    2  C   UNK N   1       0.266  -0.069   0.036  0.00  0.00    -0.034 A 
HETATM    3  C   UNK N   1       1.460  -0.807   0.075  0.00  0.00     0.008 A 
HETATM    4  C   UNK N   1       2.701  -0.162   0.080  0.00  0.00     0.001 A 
HETATM    5  C   UNK N   1       2.763   1.232   0.046  0.00  0.00     0.000 A 
HETATM    6  C   UNK N   1       1.586   1.980   0.009  0.00  0.00     0.001 A 
HETATM    7  C   UNK N   1       0.349   1.333   0.007  0.00  0.00     0.008 A 
ENDBRANCH   1   2
BRANCH   1   8
HETATM    8  C   UNK N   1      -2.384   0.043   0.050  0.00  0.00     0.159 C 
HETATM    9  O   UNK N   1      -2.355   1.259  -0.054  0.00  0.00    -0.649 OA
BRANCH   8  10
HETATM   10  O   UNK N   1      -3.577  -0.568   0.171  0.00  0.00    -0.775 OA
HETATM   11  H   UNK N   1      -4.360  -0.061   0.255  0.00  0.00     0.167 HD
ENDBRANCH   8  10
ENDBRANCH   1   8
BRANCH   1  12
HETATM   12  C   UNK N   1      -1.189  -2.292   0.031  0.00  0.00     0.159 C 
HETATM   13  O   UNK N   1      -0.181  -2.980  -0.020  0.00  0.00    -0.649 OA
BRANCH  12  14
HETATM   14  O   UNK N   1      -2.388  -2.903   0.052  0.00  0.00    -0.775 OA
HETATM   15  H   UNK N   1      -3.174  -2.392   0.067  0.00  0.00     0.167 HD
ENDBRANCH  12  14
ENDBRANCH   1  12
TORSDOF 5
