REMARK  5 active torsions:
REMARK  status: ('A' for Active; 'I' for Inactive)
REMARK    1  A    between atoms: O_1  and  C_2 
REMARK    2  A    between atoms: C_5  and  C_8 
REMARK       I    between atoms: C_8  and  N_10 
REMARK    3  A    between atoms: N_16  and  C_23 
REMARK    4  A    between atoms: C_23  and  C_24 
REMARK    5  A    between atoms: C_27  and  O_28 
ROOT
HETATM    1  C   UNK N   1       5.061   0.305  -0.234  0.00  0.00     0.254 C 
HETATM    2  O   UNK N   1       5.479   1.415  -0.536  0.00  0.00    -0.267 OA
HETATM    3  N   UNK N   1       3.708   0.131  -0.048  0.00  0.00    -0.342 N 
HETATM    4  C   UNK N   1       3.154  -1.148   0.393  0.00  0.00     0.131 C 
HETATM    5  C   UNK N   1       1.914  -1.526  -0.406  0.00  0.00     0.061 C 
HETATM    6  C   UNK N   1       0.962  -0.404  -0.223  0.00  0.00    -0.020 A 
HETATM    7  C   UNK N   1       1.365   0.909  -0.140  0.00  0.00     0.037 A 
HETATM    8  C   UNK N   1       2.820   1.289  -0.216  0.00  0.00     0.183 C 
HETATM    9  N   UNK N   1       0.284   1.723   0.046  0.00  0.00    -0.343 N 
HETATM   10  C   UNK N   1      -0.787   0.898   0.091  0.00  0.00     0.045 A 
HETATM   11  C   UNK N   1      -0.399  -0.411  -0.068  0.00  0.00    -0.001 A 
HETATM   12  C   UNK N   1      -1.308  -1.463  -0.045  0.00  0.00     0.014 A 
HETATM   13  C   UNK N   1      -2.664  -1.148   0.151  0.00  0.00     0.001 A 
HETATM   14  C   UNK N   1      -3.071   0.196   0.316  0.00  0.00     0.002 A 
HETATM   15  C   UNK N   1      -2.126   1.240   0.286  0.00  0.00     0.030 A 
ENDROOT
BRANCH   1  16
HETATM   16  C   UNK N   1       6.070  -0.801  -0.077  0.00  0.00     0.032 A 
HETATM   17  C   UNK N   1       5.703  -2.133   0.170  0.00  0.00     0.020 A 
HETATM   18  C   UNK N   1       6.665  -3.136   0.296  0.00  0.00     0.037 A 
HETATM   19  C   UNK N   1       8.017  -2.820   0.177  0.00  0.00     0.065 A 
HETATM   20  C   UNK N   1       8.405  -1.501  -0.069  0.00  0.00     0.037 A 
HETATM   21  C   UNK N   1       7.438  -0.498  -0.198  0.00  0.00     0.020 A 
BRANCH  19  22
HETATM   22  O   UNK N   1       8.943  -3.784   0.296  0.00  0.00    -0.361 OA
HETATM   23  H   UNK N   1       8.683  -4.681   0.380  0.00  0.00     0.217 HD
ENDBRANCH  19  22
ENDBRANCH   1  16
BRANCH   9  24
HETATM   24  C   UNK N   1       0.207   3.186   0.191  0.00  0.00     0.167 C 
BRANCH  24  25
HETATM   25  C   UNK N   1       1.539   3.859   0.218  0.00  0.00    -0.040 A 
HETATM   26  C   UNK N   1       2.026   4.479  -0.937  0.00  0.00     0.011 A 
HETATM   27  C   UNK N   1       3.304   5.044  -0.940  0.00  0.00     0.037 A 
HETATM   28  C   UNK N   1       4.096   4.990   0.211  0.00  0.00     0.065 A 
HETATM   29  C   UNK N   1       3.603   4.386   1.372  0.00  0.00     0.037 A 
HETATM   30  C   UNK N   1       2.325   3.821   1.377  0.00  0.00     0.011 A 
BRANCH  28  31
HETATM   31  O   UNK N   1       5.331   5.515   0.201  0.00  0.00    -0.361 OA
HETATM   32  H   UNK N   1       6.080   4.952   0.194  0.00  0.00     0.217 HD
ENDBRANCH  28  31
ENDBRANCH  24  25
ENDBRANCH   9  24
TORSDOF 5
