REMARK  4 active torsions:
REMARK  status: ('A' for Active; 'I' for Inactive)
REMARK    1  A    between atoms: C_1  and  C_7 
REMARK    2  A    between atoms: C_7  and  N_8 
REMARK    3  A    between atoms: C_12  and  C_13 
REMARK    4  A    between atoms: C_19  and  O_20 
ROOT
HETATM    1  C   UNK N   1       3.103   0.815  -0.002  0.00  0.00     0.008 A 
HETATM    2  C   UNK N   1       3.117  -0.603   0.089  0.00  0.00     0.017 A 
HETATM    3  C   UNK N   1       1.910  -1.336   0.109  0.00  0.00     0.031 A 
HETATM    4  C   UNK N   1       0.715  -0.619   0.040  0.00  0.00     0.043 A 
HETATM    5  C   UNK N   1       0.709   0.741  -0.044  0.00  0.00    -0.006 A 
HETATM    6  C   UNK N   1       1.871   1.493  -0.071  0.00  0.00     0.029 A 
HETATM    7  N   UNK N   1      -0.539  -1.106   0.057  0.00  0.00    -0.355 N 
HETATM    8  C   UNK N   1      -0.590   1.159  -0.079  0.00  0.00     0.044 A 
HETATM    9  C   UNK N   1      -1.344  -0.010  -0.013  0.00  0.00     0.046 A 
HETATM   10  H   UNK N   1      -0.814  -2.049   0.108  0.00  0.00     0.166 HD
ENDROOT
BRANCH   9  11
HETATM   11  C   UNK N   1      -2.828  -0.058   0.007  0.00  0.00     0.026 A 
HETATM   12  C   UNK N   1      -3.482  -1.299   0.020  0.00  0.00     0.023 A 
HETATM   13  C   UNK N   1      -4.879  -1.365   0.044  0.00  0.00    -0.060 A 
HETATM   14  C   UNK N   1      -5.564  -2.684   0.052  0.00  0.00     0.048 C 
HETATM   15  C   UNK N   1      -5.636  -0.194   0.064  0.00  0.00     0.028 A 
HETATM   16  C   UNK N   1      -5.004   1.049   0.055  0.00  0.00     0.045 A 
HETATM   17  C   UNK N   1      -3.606   1.128   0.024  0.00  0.00     0.095 A 
HETATM   18 Br   UNK N   1      -6.064   2.641   0.094  0.00  0.00    -0.048 Br
BRANCH  17  19
HETATM   19  O   UNK N   1      -3.021   2.340   0.019  0.00  0.00    -0.358 OA
ATOM     20  HO  UNK N   1      -3.542   3.134   0.031  1.00  0.00     0.217 HD
ENDBRANCH  17  19
ENDBRANCH   9  11
BRANCH   1  21
HETATM   21  C   UNK N   1       4.363   1.587  -0.017  0.00  0.00     0.102 C 
HETATM   22  N   UNK N   1       4.338   2.867  -0.109  0.00  0.00    -0.385 N 
HETATM   23  H   UNK N   1       5.178   3.375  -0.179  0.00  0.00     0.157 HD
HETATM   24  H   UNK N   1       3.475   3.342  -0.109  0.00  0.00     0.157 HD
BRANCH  21  25
HETATM   25  N   UNK N   1       5.608   0.925   0.082  0.00  0.00    -0.385 N 
HETATM   26  H   UNK N   1       5.641  -0.056   0.151  0.00  0.00     0.157 HD
HETATM   27  H   UNK N   1       6.443   1.446   0.082  0.00  0.00     0.157 HD
ENDBRANCH  21  25
ENDBRANCH   1  21
TORSDOF 4
