REMARK  2 active torsions:
REMARK  status: ('A' for Active; 'I' for Inactive)
REMARK       I    between atoms: N_1  and  C_2 
REMARK    1  A    between atoms: C_5  and  C_12 
REMARK    2  A    between atoms: C_8  and  O_9 
ROOT
HETATM    1  N   UNK N   1      -1.039   3.498   0.000  0.00  0.00    -0.234 N 
HETATM    2  C   UNK N   1      -1.033   2.088   0.000  0.00  0.00     0.678 A 
HETATM    3  N   UNK N   1       0.145   1.419   0.000  0.00  0.00    -0.190 N 
ATOM      4  HN  UNK N   1       1.016   1.950   0.000  1.00  0.00     0.184 HD
HETATM    5  C   UNK N   1       0.201   0.056  -0.000  0.00  0.00     0.081 A 
HETATM    6  C   UNK N   1      -1.023  -0.672  -0.000  0.00  0.00     0.090 A 
HETATM    7 Br   UNK N   1      -1.167  -2.599  -0.000  0.00  0.00    -0.044 Br
HETATM    8  C   UNK N   1      -2.221   0.051   0.000  0.00  0.00     0.175 A 
HETATM    9  N   UNK N   1      -2.202   1.408   0.000  0.00  0.00    -0.170 N 
ATOM     10  HN  UNK N   1      -3.083   1.923   0.000  1.00  0.00     0.186 HD
HETATM   11  H   UNK N   1      -0.189   3.994   0.000  0.00  0.00     0.174 HD
HETATM   12  H   UNK N   1      -1.894   3.986   0.000  0.00  0.00     0.174 HD
ENDROOT
BRANCH   5  13
HETATM   13  C   UNK N   1       1.551  -0.573  -0.000  0.00  0.00    -0.007 A 
HETATM   14  C   UNK N   1       2.691   0.249  -0.000  0.00  0.00     0.014 A 
HETATM   15  C   UNK N   1       3.972  -0.310   0.000  0.00  0.00     0.001 A 
HETATM   16  C   UNK N   1       4.129  -1.697   0.000  0.00  0.00     0.000 A 
HETATM   17  C   UNK N   1       3.006  -2.524  -0.000  0.00  0.00     0.001 A 
HETATM   18  C   UNK N   1       1.730  -1.962  -0.000  0.00  0.00     0.014 A 
ENDBRANCH   5  13
BRANCH   8  19
HETATM   19  O   UNK N   1      -3.400  -0.592   0.000  0.00  0.00    -0.345 OA
HETATM   20  H   UNK N   1      -4.200  -0.104   0.000  0.00  0.00     0.219 HD
ENDBRANCH   8  19
TORSDOF 2
