REMARK  2 active torsions:
REMARK  status: ('A' for Active; 'I' for Inactive)
REMARK    1  A    between atoms: C_13  and  C_19 
REMARK    2  A    between atoms: C_22  and  O_23 
ROOT
HETATM    1  C   UNK N   1       2.311  -1.189  -0.165  0.00  0.00     0.002 A 
HETATM    2  C   UNK N   1       3.021  -2.398  -0.303  0.00  0.00    -0.022 A 
HETATM    3  C   UNK N   1       4.413  -2.374  -0.405  0.00  0.00     0.029 A 
HETATM    4  C   UNK N   1       5.082  -1.147  -0.365  0.00  0.00     0.088 A 
HETATM    5  N   UNK N   1       4.384   0.012  -0.227  0.00  0.00    -0.374 N 
ATOM      6  HN  UNK N   1       4.890   0.897  -0.195  1.00  0.00     0.164 HD
HETATM    7  C   UNK N   1       3.028   0.018  -0.129  0.00  0.00     0.100 A 
HETATM    8  C   UNK N   1       0.907  -1.213  -0.086  0.00  0.00     0.004 A 
HETATM    9  C   UNK N   1       0.221  -2.446  -0.134  0.00  0.00     0.043 A 
HETATM   10  C   UNK N   1       0.937  -3.639  -0.256  0.00  0.00     0.031 A 
HETATM   11  C   UNK N   1       2.334  -3.616  -0.345  0.00  0.00     0.014 A 
HETATM   12  C   UNK N   1       0.169  -0.036   0.004  0.00  0.00     0.028 A 
HETATM   13  C   UNK N   1      -1.226  -0.070   0.028  0.00  0.00    -0.010 A 
HETATM   14  C   UNK N   1      -1.869  -1.317  -0.012  0.00  0.00     0.100 A 
HETATM   15  N   UNK N   1      -1.141  -2.467  -0.080  0.00  0.00    -0.364 N 
ATOM     16  HN  UNK N   1      -1.627  -3.364  -0.090  1.00  0.00     0.165 HD
ENDROOT
BRANCH  13  17
HETATM   17  C   UNK N   1      -1.984   1.201  -0.021  0.00  0.00    -0.024 A 
HETATM   18  C   UNK N   1      -1.295   2.426   0.002  0.00  0.00     0.015 A 
HETATM   19  C   UNK N   1      -1.981   3.630  -0.147  0.00  0.00     0.037 A 
HETATM   20  C   UNK N   1      -3.364   3.625  -0.331  0.00  0.00     0.065 A 
HETATM   21  C   UNK N   1      -4.064   2.414  -0.342  0.00  0.00     0.037 A 
HETATM   22  C   UNK N   1      -3.378   1.205  -0.188  0.00  0.00     0.015 A 
BRANCH  20  23
HETATM   23  O   UNK N   1      -4.019   4.783  -0.505  0.00  0.00    -0.361 OA
HETATM   24  H   UNK N   1      -3.548   5.584  -0.626  0.00  0.00     0.217 HD
ENDBRANCH  20  23
ENDBRANCH  13  17
TORSDOF 2
