REMARK  4 active torsions:
REMARK  status: ('A' for Active; 'I' for Inactive)
REMARK    1  A    between atoms: C_10  and  N_13 
REMARK       I    between atoms: N_11  and  C_12 
REMARK    2  A    between atoms: N_11  and  C_15 
REMARK       I    between atoms: C_12  and  N_13 
REMARK    3  A    between atoms: C_15  and  C_17 
REMARK    4  A    between atoms: C_20  and  N_22 
REMARK       I    between atoms: N_22  and  C_25 
REMARK       I    between atoms: C_25  and  N_26 
ROOT
HETATM    1  N   UNK N   1       0.852   1.564   0.942  0.00  0.00    -0.339 N 
HETATM    2  C   UNK N   1      -0.137   0.967   0.246  0.00  0.00     0.317 C 
HETATM    3  N   UNK N   1      -1.113   0.338   0.944  0.00  0.00    -0.334 N 
HETATM    4  O   UNK N   1      -0.210   1.092  -0.966  0.00  0.00    -0.247 OA
HETATM    5  H   UNK N   1       0.883   1.447   1.919  0.00  0.00     0.164 HD
HETATM    6  H   UNK N   1      -0.911   0.035   1.859  0.00  0.00     0.165 HD
ENDROOT
BRANCH   1   7
HETATM    7  C   UNK N   1       1.866   2.367   0.306  0.00  0.00     0.162 C 
BRANCH   7   8
HETATM    8  C   UNK N   1       3.111   1.570   0.175  0.00  0.00    -0.040 A 
HETATM    9  C   UNK N   1       3.084   0.193   0.414  0.00  0.00     0.011 A 
HETATM   10  C   UNK N   1       4.234  -0.560   0.290  0.00  0.00     0.030 A 
HETATM   11  C   UNK N   1       5.439   0.044  -0.074  0.00  0.00     0.049 A 
HETATM   12  C   UNK N   1       5.475   1.426  -0.309  0.00  0.00     0.030 A 
HETATM   13  C   UNK N   1       4.308   2.190  -0.190  0.00  0.00     0.011 A 
BRANCH  11  14
HETATM   14  N   UNK N   1       6.628  -0.719  -0.201  0.00  0.00    -0.193 N 
HETATM   15  C   UNK N   1       6.705  -2.140  -0.105  0.00  0.00     0.669 C 
HETATM   16  N   UNK N   1       7.848  -2.710  -0.167  0.00  0.00    -0.235 N 
HETATM   17  N   UNK N   1       5.540  -2.940  -0.021  0.00  0.00    -0.235 N 
HETATM   18  H   UNK N   1       7.908  -3.691  -0.216  0.00  0.00     0.174 HD
ATOM     19  HN  UNK N   1       8.698  -2.147  -0.167  1.00  0.00     0.174 HD
HETATM   20  H   UNK N   1       4.653  -2.517   0.038  0.00  0.00     0.174 HD
HETATM   21  H   UNK N   1       5.617  -3.922  -0.021  0.00  0.00     0.174 HD
HETATM   22  H   UNK N   1       7.466  -0.229  -0.369  0.00  0.00     0.184 HD
ENDBRANCH  11  14
ENDBRANCH   7   8
ENDBRANCH   1   7
BRANCH   3  23
HETATM   23  C   UNK N   1      -2.430   0.090   0.416  0.00  0.00     0.035 C 
HETATM   24  C   UNK N   1      -3.291  -0.480   1.551  0.00  0.00     0.035 C 
HETATM   25  C   UNK N   1      -4.748  -0.603   1.094  0.00  0.00    -0.012 C 
HETATM   26  C   UNK N   1      -4.815  -1.557  -0.108  0.00  0.00     0.009 C 
HETATM   27  C   UNK N   1      -5.274   0.781   0.675  0.00  0.00     0.009 C 
HETATM   28  C   UNK N   1      -3.947  -1.016  -1.259  0.00  0.00    -0.012 C 
HETATM   29  C   UNK N   1      -2.477  -0.882  -0.784  0.00  0.00     0.035 C 
HETATM   30  C   UNK N   1      -4.479   0.367  -1.675  0.00  0.00     0.009 C 
HETATM   31  C   UNK N   1      -4.428   1.332  -0.481  0.00  0.00    -0.012 C 
HETATM   32  C   UNK N   1      -2.994   1.458  -0.006  0.00  0.00     0.035 C 
ENDBRANCH   3  23
TORSDOF 4
