REMARK  10 active torsions:
REMARK  status: ('A' for Active; 'I' for Inactive)
REMARK    1  A    between atoms: C_1  and  O_2 
REMARK    2  A    between atoms: O_2  and  C_13 
REMARK    3  A    between atoms: C_3  and  O_4 
REMARK    4  A    between atoms: C_5  and  O_6 
REMARK    5  A    between atoms: C_7  and  O_8 
REMARK    6  A    between atoms: C_9  and  C_11 
REMARK    7  A    between atoms: C_11  and  O_12 
REMARK    8  A    between atoms: C_17  and  C_19 
REMARK       I    between atoms: C_19  and  N_21 
REMARK    9  A    between atoms: N_21  and  C_22 
REMARK   10  A    between atoms: C_22  and  C_23 
ROOT
HETATM    1  C   UNK N   1      -1.043   0.107   0.172  0.00  0.00     0.073 A 
HETATM    2  C   UNK N   1      -2.196  -0.689   0.264  0.00  0.00     0.037 A 
HETATM    3  C   UNK N   1      -3.461  -0.126   0.093  0.00  0.00     0.004 A 
HETATM    4  C   UNK N   1      -3.588   1.242  -0.156  0.00  0.00     0.017 A 
HETATM    5  C   UNK N   1      -2.448   2.051  -0.282  0.00  0.00     0.034 A 
HETATM    6  C   UNK N   1      -1.184   1.467  -0.115  0.00  0.00     0.054 A 
ENDROOT
BRANCH   1   7
HETATM    7  O   UNK N   1       0.211  -0.378   0.393  0.00  0.00    -0.318 OA
BRANCH   7   8
HETATM    8  C   UNK N   1       0.622  -1.662   0.740  0.00  0.00     0.298 C 
HETATM    9  C   UNK N   1       1.765  -2.109  -0.215  0.00  0.00     0.205 C 
HETATM   10  C   UNK N   1       2.103  -3.577   0.081  0.00  0.00     0.183 C 
HETATM   11  C   UNK N   1       0.826  -4.458  -0.026  0.00  0.00     0.180 C 
HETATM   12  C   UNK N   1      -0.452  -3.590  -0.143  0.00  0.00     0.179 C 
HETATM   13  O   UNK N   1      -0.467  -2.587   0.856  0.00  0.00    -0.348 OA
BRANCH   9  14
HETATM   14  O   UNK N   1       2.890  -1.297  -0.044  0.00  0.00    -0.388 OA
HETATM   15  H   UNK N   1       3.768  -1.691   0.075  0.00  0.00     0.210 HD
ENDBRANCH   9  14
BRANCH  10  16
HETATM   16  O   UNK N   1       2.626  -3.673   1.376  0.00  0.00    -0.390 OA
HETATM   17  H   UNK N   1       2.749  -4.019   2.274  0.00  0.00     0.210 HD
ENDBRANCH  10  16
BRANCH  11  18
HETATM   18  O   UNK N   1       0.912  -5.298  -1.140  0.00  0.00    -0.390 OA
HETATM   19  H   UNK N   1       0.436  -5.641  -1.912  0.00  0.00     0.210 HD
ENDBRANCH  11  18
BRANCH  12  20
HETATM   20  C   UNK N   1      -1.722  -4.431  -0.050  0.00  0.00     0.198 C 
BRANCH  20  21
HETATM   21  O   UNK N   1      -1.846  -5.011   1.213  0.00  0.00    -0.398 OA
HETATM   22  H   UNK N   1      -2.239  -5.137   2.091  0.00  0.00     0.209 HD
ENDBRANCH  20  21
ENDBRANCH  12  20
ENDBRANCH   7   8
ENDBRANCH   1   7
BRANCH   5  23
HETATM   23  C   UNK N   1      -2.613   3.518  -0.510  0.00  0.00     0.252 C 
HETATM   24  O   UNK N   1      -3.708   4.020  -0.314  0.00  0.00    -0.268 OA
HETATM   25  N   UNK N   1      -1.600   4.325  -0.935  0.00  0.00    -0.353 N 
HETATM   26  H   UNK N   1      -1.748   5.298  -0.912  0.00  0.00     0.163 HD
BRANCH  25  27
HETATM   27  C   UNK N   1      -0.324   3.851  -1.416  0.00  0.00     0.161 C 
BRANCH  27  28
HETATM   28  C   UNK N   1       0.805   4.280  -0.543  0.00  0.00    -0.041 A 
HETATM   29  C   UNK N   1       1.041   5.637  -0.290  0.00  0.00     0.009 A 
HETATM   30  C   UNK N   1       2.134   6.021   0.494  0.00  0.00     0.001 A 
HETATM   31  C   UNK N   1       2.998   5.051   1.014  0.00  0.00     0.000 A 
HETATM   32  C   UNK N   1       2.766   3.697   0.755  0.00  0.00     0.001 A 
HETATM   33  C   UNK N   1       1.672   3.313  -0.024  0.00  0.00     0.009 A 
ENDBRANCH  27  28
ENDBRANCH  25  27
ENDBRANCH   5  23
TORSDOF 10
