REMARK  7 active torsions:
REMARK  status: ('A' for Active; 'I' for Inactive)
REMARK    1  A    between atoms: C_1  and  S_12 
REMARK    2  A    between atoms: C_2  and  C_3 
REMARK    3  A    between atoms: C_2  and  N_20 
REMARK    4  A    between atoms: C_6  and  O_21 
REMARK    5  A    between atoms: N_11  and  S_12 
REMARK    6  A    between atoms: C_15  and  S_17 
REMARK    7  A    between atoms: S_17  and  N_20 
ROOT
HETATM    1  S   UNK N   1      -0.146   1.031  -0.731  0.00  0.00     0.265 S 
HETATM    2  O   UNK N   1      -1.133   1.439  -1.835  0.00  0.00    -0.200 OA
HETATM    3  O   UNK N   1       0.607  -0.133  -1.396  0.00  0.00    -0.200 OA
ENDROOT
BRANCH   1   4
HETATM    4  C   UNK N   1       0.882   2.399  -0.242  0.00  0.00     0.121 A 
HETATM    5  C   UNK N   1       1.997   2.342   0.596  0.00  0.00     0.035 A 
HETATM    6  C   UNK N   1       2.550   3.627   0.881  0.00  0.00     0.035 A 
HETATM    7  C   UNK N   1       1.859   4.683   0.267  0.00  0.00     0.121 A 
HETATM    8  S   UNK N   1       0.589   3.981  -0.597  0.00  0.00    -0.063 SA
BRANCH   7   9
HETATM    9  S   UNK N   1       2.291   6.452   0.525  0.00  0.00     0.263 S 
HETATM   10  O   UNK N   1       1.597   7.541  -0.307  0.00  0.00    -0.200 OA
HETATM   11  O   UNK N   1       0.820   6.256   0.922  0.00  0.00    -0.200 OA
BRANCH   9  12
HETATM   12  N   UNK N   1       2.535   5.969  -1.157  0.00  0.00    -0.324 N 
HETATM   13  H   UNK N   1       2.364   5.708  -2.128  0.00  0.00     0.169 HD
HETATM   14  H   UNK N   1       3.554   5.913  -1.157  0.00  0.00     0.169 HD
ENDBRANCH   9  12
ENDBRANCH   7   9
ENDBRANCH   1   4
BRANCH   1  15
HETATM   15  N   UNK N   1      -1.179   0.348   0.533  0.00  0.00    -0.311 N 
HETATM   16  H   UNK N   1      -2.121   0.664   0.763  0.00  0.00     0.172 HD
BRANCH  15  17
HETATM   17  C   UNK N   1      -0.469  -0.737   1.193  0.00  0.00     0.170 C 
BRANCH  17  18
HETATM   18  C   UNK N   1      -0.921  -2.034   0.620  0.00  0.00    -0.040 A 
HETATM   19  C   UNK N   1      -0.006  -2.869  -0.027  0.00  0.00     0.011 A 
HETATM   20  C   UNK N   1      -0.437  -4.065  -0.606  0.00  0.00     0.037 A 
HETATM   21  C   UNK N   1      -1.786  -4.434  -0.543  0.00  0.00     0.068 A 
HETATM   22  C   UNK N   1      -2.701  -3.595   0.118  0.00  0.00     0.037 A 
HETATM   23  C   UNK N   1      -2.269  -2.402   0.697  0.00  0.00     0.011 A 
BRANCH  21  24
HETATM   24  O   UNK N   1      -2.179  -5.590  -1.127  0.00  0.00    -0.356 OA
HETATM   25  C   UNK N   1      -3.487  -6.020  -1.137  0.00  0.00     0.210 C 
ENDBRANCH  21  24
ENDBRANCH  17  18
ENDBRANCH  15  17
ENDBRANCH   1  15
TORSDOF 7
