REMARK  9 active torsions:
REMARK  status: ('A' for Active; 'I' for Inactive)
REMARK    1  A    between atoms: C_5  and  C_6 
REMARK    2  A    between atoms: C_6  and  N_7 
REMARK    3  A    between atoms: C_6  and  N_9 
REMARK    4  A    between atoms: N_9  and  C_10 
REMARK    5  A    between atoms: C_13  and  C_16 
REMARK    6  A    between atoms: C_16  and  C_17 
REMARK    7  A    between atoms: C_17  and  N_18 
REMARK    8  A    between atoms: N_18  and  C_19 
REMARK    9  A    between atoms: C_19  and  C_20 
ROOT
HETATM    1  C   UNK N   1      -2.457   0.405   0.003  0.00  0.00     0.033 A 
HETATM    2  C   UNK N   1      -1.186   0.965  -0.121  0.00  0.00     0.030 A 
HETATM    3  C   UNK N   1      -0.059   0.151  -0.160  0.00  0.00     0.009 A 
HETATM    4  C   UNK N   1      -0.186  -1.243  -0.063  0.00  0.00    -0.057 A 
HETATM    5  C   UNK N   1      -1.456  -1.809   0.078  0.00  0.00     0.009 A 
HETATM    6  C   UNK N   1      -2.590  -0.990   0.107  0.00  0.00     0.030 A 
ENDROOT
BRANCH   4   7
HETATM    7  C   UNK N   1       1.012  -2.144  -0.135  0.00  0.00     0.057 C 
BRANCH   7   8
HETATM    8  C   UNK N   1       2.286  -1.423  -0.559  0.00  0.00     0.118 C 
BRANCH   8   9
HETATM    9  N   UNK N   1       2.762  -0.565   0.516  0.00  0.00    -0.417 N 
HETATM   10  H   UNK N   1       2.385  -0.527   1.463  0.00  0.00     0.153 HD
BRANCH   9  11
HETATM   11  C   UNK N   1       3.872   0.230   0.004  0.00  0.00     0.152 C 
BRANCH  11  12
HETATM   12  C   UNK N   1       5.169  -0.526   0.032  0.00  0.00    -0.039 A 
HETATM   13  C   UNK N   1       6.371   0.180  -0.061  0.00  0.00     0.032 A 
HETATM   14  C   UNK N   1       7.591  -0.503  -0.027  0.00  0.00     0.034 A 
HETATM   15  C   UNK N   1       7.611  -1.896   0.089  0.00  0.00     0.024 A 
HETATM   16 Cl   UNK N   1       9.095   0.385  -0.117  0.00  0.00    -0.084 Cl
HETATM   17  C   UNK N   1       6.413  -2.608   0.176  0.00  0.00     0.002 A 
HETATM   18  C   UNK N   1       5.197  -1.925   0.152  0.00  0.00     0.009 A 
ENDBRANCH  11  12
ENDBRANCH   9  11
ENDBRANCH   8   9
ENDBRANCH   7   8
ENDBRANCH   4   7
BRANCH   1  19
HETATM   19  N   UNK N   1      -3.575   1.278   0.006  0.00  0.00    -0.342 N 
HETATM   20  H   UNK N   1      -3.378   2.243  -0.008  0.00  0.00     0.167 HD
BRANCH  19  21
HETATM   21  C   UNK N   1      -4.950   0.914   0.027  0.00  0.00     0.116 C 
BRANCH  21  22
HETATM   22  C   UNK N   1      -5.961   1.978   0.017  0.00  0.00     0.048 A 
HETATM   23  S   UNK N   1      -7.603   1.795   0.015  0.00  0.00    -0.098 SA
HETATM   24  C   UNK N   1      -8.068   3.389  -0.001  0.00  0.00     0.050 A 
HETATM   25  C   UNK N   1      -6.881   4.137  -0.005  0.00  0.00     0.009 A 
HETATM   26  C   UNK N   1      -5.698   3.347   0.004  0.00  0.00     0.023 A 
ENDBRANCH  21  22
BRANCH  21  27
HETATM   27  N   UNK N   1      -5.314  -0.319   0.024  0.00  0.00    -0.384 N 
HETATM   28  H   UNK N   1      -6.271  -0.550   0.022  0.00  0.00     0.157 HD
ATOM     29  HN  UNK N   1      -4.612  -1.059   0.024  1.00  0.00     0.157 HD
ENDBRANCH  21  27
ENDBRANCH  19  21
ENDBRANCH   1  19
TORSDOF 9
