REMARK  4 active torsions:
REMARK  status: ('A' for Active; 'I' for Inactive)
REMARK    1  A    between atoms: C_1  and  O_10 
REMARK    2  A    between atoms: C_7  and  C_11 
REMARK    3  A    between atoms: C_11  and  C_12 
REMARK    4  A    between atoms: C_12  and  N_13 
REMARK       I    between atoms: N_13  and  C_14 
ROOT
HETATM    1  C   UNK N   1      -2.876   1.551   0.004  0.00  0.00     0.066 A 
HETATM    2  C   UNK N   1      -1.552   1.065  -0.008  0.00  0.00     0.050 A 
HETATM    3  C   UNK N   1      -1.366  -0.322  -0.008  0.00  0.00     0.001 A 
HETATM    4  C   UNK N   1      -3.968   0.655   0.017  0.00  0.00     0.039 A 
HETATM    5  C   UNK N   1      -3.749  -0.732   0.017  0.00  0.00     0.033 A 
HETATM    6  C   UNK N   1      -2.436  -1.176   0.004  0.00  0.00     0.043 A 
HETATM    7  C   UNK N   1      -0.233  -1.110  -0.020  0.00  0.00    -0.029 A 
HETATM    8  C   UNK N   1      -0.677  -2.428  -0.016  0.00  0.00     0.096 A 
HETATM    9  N   UNK N   1      -2.028  -2.461  -0.001  0.00  0.00    -0.365 N 
HETATM   10  H   UNK N   1      -2.599  -3.262   0.005  0.00  0.00     0.165 HD
ENDROOT
BRANCH   7  11
HETATM   11  C   UNK N   1       1.222  -0.767  -0.034  0.00  0.00     0.060 C 
BRANCH  11  12
HETATM   12  C   UNK N   1       1.610   0.704   0.004  0.00  0.00     0.127 C 
BRANCH  12  13
HETATM   13  N   UNK N   1       3.054   0.934   0.011  0.00  0.00    -0.361 N 
HETATM   14  C   UNK N   1       4.049  -0.003   0.009  0.00  0.00     0.213 C 
HETATM   15  C   UNK N   1       5.470   0.440   0.015  0.00  0.00     0.117 C 
HETATM   16  O   UNK N   1       3.806  -1.199   0.003  0.00  0.00    -0.274 OA
HETATM   17  H   UNK N   1       3.344   1.875   0.018  0.00  0.00     0.162 HD
ENDBRANCH  12  13
ENDBRANCH  11  12
ENDBRANCH   7  11
BRANCH   1  18
HETATM   18  O   UNK N   1      -3.106   2.874   0.003  0.00  0.00    -0.361 OA
HETATM   19  H   UNK N   1      -2.386   3.475   0.002  0.00  0.00     0.217 HD
ENDBRANCH   1  18
TORSDOF 4
