REMARK  1 active torsions:
REMARK  status: ('A' for Active; 'I' for Inactive)
REMARK    1  A    between atoms: C_18  and  N_20 
ROOT
HETATM    1  N   UNK N   1       2.796  -2.136  -0.001  0.00  0.00    -0.326 N 
HETATM    2  C   UNK N   1       1.609  -2.787  -0.000  0.00  0.00     0.226 A 
HETATM    3  C   UNK N   1       0.265  -2.158   0.002  0.00  0.00     0.145 A 
HETATM    4  O   UNK N   1       1.630  -4.006  -0.002  0.00  0.00    -0.273 OA
HETATM    5  C   UNK N   1       2.389   0.379  -0.001  0.00  0.00     0.018 A 
HETATM    6  C   UNK N   1       3.222  -0.779   0.001  0.00  0.00     0.047 A 
HETATM    7  C   UNK N   1       4.613  -0.601   0.004  0.00  0.00     0.030 A 
HETATM    8  C   UNK N   1       5.193   0.664   0.007  0.00  0.00     0.002 A 
HETATM    9  C   UNK N   1       4.385   1.791   0.006  0.00  0.00     0.001 A 
HETATM   10  C   UNK N   1       3.001   1.647   0.002  0.00  0.00     0.016 A 
HETATM   11  N   UNK N   1       0.204   1.547  -0.006  0.00  0.00    -0.354 N 
HETATM   12  C   UNK N   1       0.050  -0.698  -0.001  0.00  0.00    -0.009 A 
HETATM   13  C   UNK N   1       0.917   0.383  -0.003  0.00  0.00     0.053 A 
HETATM   14  C   UNK N   1      -1.207  -0.168  -0.002  0.00  0.00     0.002 A 
HETATM   15  C   UNK N   1      -1.089   1.185  -0.006  0.00  0.00     0.043 A 
HETATM   16  C   UNK N   1      -2.209   2.015  -0.007  0.00  0.00     0.033 A 
HETATM   17  C   UNK N   1      -3.480   1.398  -0.004  0.00  0.00     0.038 A 
HETATM   18  C   UNK N   1      -3.596  -0.018  -0.001  0.00  0.00     0.103 A 
HETATM   19  C   UNK N   1      -2.435  -0.808   0.000  0.00  0.00     0.050 A 
HETATM   20  H   UNK N   1       3.557  -2.760  -0.003  0.00  0.00     0.169 HD
HETATM   21  H   UNK N   1       0.564   2.464  -0.009  0.00  0.00     0.166 HD
ENDROOT
BRANCH  18  22
HETATM   22  N   UNK N   1      -4.869  -0.649   0.003  0.00  0.00    -0.116 N 
HETATM   23  O   UNK N   1      -4.950  -1.840   0.007  0.00  0.00    -0.532 OA
HETATM   24  O   UNK N   1      -5.968   0.074   0.003  0.00  0.00    -0.532 OA
ENDBRANCH  18  22
TORSDOF 1
