REMARK  13 active torsions:
REMARK  status: ('A' for Active; 'I' for Inactive)
REMARK    1  A    between atoms: C_1  and  C_2 
REMARK    2  A    between atoms: C_1  and  C_3 
REMARK    3  A    between atoms: C_1  and  C_8 
REMARK       I    between atoms: C_2  and  N_24 
REMARK    4  A    between atoms: C_3  and  S_31 
REMARK    5  A    between atoms: C_4  and  S_31 
REMARK    6  A    between atoms: C_8  and  C_9 
REMARK    7  A    between atoms: C_8  and  C_13 
REMARK    8  A    between atoms: C_9  and  C_10 
REMARK       I    between atoms: C_13  and  N_25 
REMARK    9  A    between atoms: C_14  and  C_15 
REMARK   10  A    between atoms: C_14  and  C_17 
REMARK   11  A    between atoms: C_14  and  N_25 
REMARK       I    between atoms: C_15  and  N_26 
REMARK   12  A    between atoms: C_17  and  C_18 
REMARK   13  A    between atoms: N_24  and  O_28 
ROOT
HETATM    1  C   UNK N   1      -1.235   0.390  -0.573  0.00  0.00     0.092 C 
ENDROOT
BRANCH   1   2
HETATM    2  C   UNK N   1      -1.860  -0.942  -1.086  0.00  0.00     0.102 C 
BRANCH   2   3
HETATM    3  C   UNK N   1      -1.205  -2.156  -0.442  0.00  0.00     0.246 C 
HETATM    4  N   UNK N   1      -0.547  -3.050  -1.217  0.00  0.00    -0.237 N 
HETATM    5  H   UNK N   1      -0.518  -2.919  -2.192  0.00  0.00     0.197 HD
HETATM    6  O   UNK N   1      -1.240  -2.310   0.770  0.00  0.00    -0.271 OA
BRANCH   4   7
HETATM    7  O   UNK N   1       0.065  -4.111  -0.673  0.00  0.00    -0.287 OA
HETATM    8  H   UNK N   1      -0.379  -4.879  -0.280  0.00  0.00     0.244 HD
ENDBRANCH   4   7
ENDBRANCH   2   3
BRANCH   2   9
HETATM    9  C   UNK N   1      -3.382  -1.010  -0.897  0.00  0.00     0.095 C 
BRANCH   9  10
HETATM   10  S   UNK N   1      -3.920  -0.989   0.851  0.00  0.00    -0.122 SA
BRANCH  10  11
HETATM   11  C   UNK N   1      -5.631  -0.753   0.405  0.00  0.00     0.041 A 
HETATM   12  C   UNK N   1      -6.536  -1.745   0.045  0.00  0.00     0.026 A 
HETATM   13  C   UNK N   1      -7.825  -1.222  -0.263  0.00  0.00     0.009 A 
HETATM   14  C   UNK N   1      -7.921   0.173  -0.139  0.00  0.00     0.051 A 
HETATM   15  S   UNK N   1      -6.422   0.691   0.345  0.00  0.00    -0.095 SA
ENDBRANCH  10  11
ENDBRANCH   9  10
ENDBRANCH   2   9
ENDBRANCH   1   2
BRANCH   1  16
HETATM   16  C   UNK N   1      -1.614   1.645  -1.386  0.00  0.00     0.018 C 
BRANCH  16  17
HETATM   17  C   UNK N   1      -2.918   2.377  -1.055  0.00  0.00    -0.022 C 
HETATM   18  C   UNK N   1      -4.125   1.810  -1.767  0.00  0.00     0.009 C 
HETATM   19  C   UNK N   1      -3.159   2.576   0.432  0.00  0.00     0.009 C 
ENDBRANCH  16  17
ENDBRANCH   1  16
BRANCH   1  20
HETATM   20  C   UNK N   1       0.267   0.300  -0.619  0.00  0.00     0.223 C 
HETATM   21  N   UNK N   1       0.950   0.383   0.550  0.00  0.00    -0.347 N 
HETATM   22  H   UNK N   1       0.413   0.585   1.350  0.00  0.00     0.163 HD
HETATM   23  O   UNK N   1       0.844   0.118  -1.682  0.00  0.00    -0.273 OA
BRANCH  21  24
HETATM   24  C   UNK N   1       2.372   0.212   0.769  0.00  0.00     0.180 C 
BRANCH  24  25
HETATM   25  C   UNK N   1       2.637  -1.223   1.196  0.00  0.00     0.240 C 
HETATM   26  N   UNK N   1       2.678  -2.263   0.321  0.00  0.00    -0.364 N 
HETATM   27  C   UNK N   1       2.563  -2.124  -1.107  0.00  0.00     0.149 C 
HETATM   28  H   UNK N   1       2.794  -3.169   0.688  0.00  0.00     0.161 HD
HETATM   29  O   UNK N   1       2.808  -1.453   2.382  0.00  0.00    -0.271 OA
ENDBRANCH  24  25
BRANCH  24  30
HETATM   30  C   UNK N   1       3.250   0.700  -0.396  0.00  0.00     0.073 C 
BRANCH  30  31
HETATM   31  C   UNK N   1       4.707   0.635  -0.073  0.00  0.00    -0.056 A 
HETATM   32  C   UNK N   1       5.276   1.552   0.818  0.00  0.00     0.007 A 
HETATM   33  C   UNK N   1       6.639   1.483   1.117  0.00  0.00     0.001 A 
HETATM   34  C   UNK N   1       7.435   0.494   0.530  0.00  0.00     0.000 A 
HETATM   35  C   UNK N   1       6.867  -0.422  -0.362  0.00  0.00     0.001 A 
HETATM   36  C   UNK N   1       5.505  -0.348  -0.666  0.00  0.00     0.007 A 
ENDBRANCH  30  31
ENDBRANCH  24  30
ENDBRANCH  21  24
ENDBRANCH   1  20
TORSDOF 13
