REMARK  6 active torsions:
REMARK  status: ('A' for Active; 'I' for Inactive)
REMARK    1  A    between atoms: C_3  and  O_4 
REMARK    2  A    between atoms: C_8  and  N_11 
REMARK    3  A    between atoms: C_8  and  C_20 
REMARK    4  A    between atoms: C_14  and  C_17 
REMARK    5  A    between atoms: C_17  and  C_18 
REMARK    6  A    between atoms: C_18  and  O_19 
ROOT
HETATM    1  N   UNK N   1       1.564  -3.342   0.727  0.00  0.00    -0.290 N 
ATOM      2  HN  UNK N   1       2.067  -3.929   1.393  1.00  0.00     0.172 HD
HETATM    3  C   UNK N   1       1.062  -3.900  -0.319  0.00  0.00     0.226 A 
HETATM    4  N   UNK N   1       0.356  -3.142  -1.285  0.00  0.00    -0.290 N 
HETATM    5  C   UNK N   1       0.169  -1.810  -1.154  0.00  0.00     0.267 A 
HETATM    6  O   UNK N   1      -0.463  -1.215  -2.013  0.00  0.00    -0.269 OA
HETATM    7  C   UNK N   1       0.719  -1.051   0.058  0.00  0.00     0.220 A 
HETATM    8  C   UNK N   1       1.460  -2.014   0.990  0.00  0.00     0.267 A 
HETATM    9  O   UNK N   1       1.961  -1.580   2.016  0.00  0.00    -0.269 OA
HETATM   10  H   UNK N   1      -0.009  -3.600  -2.077  0.00  0.00     0.172 HD
ENDROOT
BRANCH   7  11
HETATM   11  N   UNK N   1      -0.390  -0.461   0.859  0.00  0.00    -0.385 N 
HETATM   12  C   UNK N   1      -1.777  -0.904   0.695  0.00  0.00     0.119 C 
HETATM   13  C   UNK N   1      -2.562   0.150  -0.079  0.00  0.00     0.024 C 
HETATM   14  C   UNK N   1      -2.462   1.510   0.610  0.00  0.00    -0.010 C 
HETATM   15  C   UNK N   1      -0.995   1.910   0.795  0.00  0.00     0.024 C 
HETATM   16  C   UNK N   1      -0.229   0.824   1.548  0.00  0.00     0.119 C 
BRANCH  14  17
HETATM   17  C   UNK N   1      -3.183   2.534  -0.253  0.00  0.00     0.031 C 
BRANCH  17  18
HETATM   18  C   UNK N   1      -3.244   3.893   0.419  0.00  0.00     0.164 C 
BRANCH  18  19
HETATM   19  O   UNK N   1      -3.907   4.791  -0.415  0.00  0.00    -0.401 OA
HETATM   20  H   UNK N   1      -3.596   5.503  -0.996  0.00  0.00     0.209 HD
ENDBRANCH  18  19
ENDBRANCH  17  18
ENDBRANCH  14  17
ENDBRANCH   7  11
BRANCH   7  21
HETATM   21  C   UNK N   1       1.663   0.052  -0.460  0.00  0.00    -0.011 A 
HETATM   22  C   UNK N   1       1.158   1.087  -1.269  0.00  0.00     0.011 A 
HETATM   23  C   UNK N   1       1.986   2.125  -1.704  0.00  0.00     0.001 A 
HETATM   24  C   UNK N   1       3.334   2.141  -1.344  0.00  0.00     0.000 A 
HETATM   25  C   UNK N   1       3.857   1.113  -0.557  0.00  0.00     0.001 A 
HETATM   26  C   UNK N   1       3.029   0.078  -0.116  0.00  0.00     0.011 A 
ENDBRANCH   7  21
BRANCH   3  27
HETATM   27  O   UNK N   1       1.205  -5.227  -0.495  0.00  0.00    -0.332 OA
HETATM   28  H   UNK N   1       0.455  -5.775  -0.617  0.00  0.00     0.221 HD
ENDBRANCH   3  27
TORSDOF 6
