REMARK  6 active torsions:
REMARK  status: ('A' for Active; 'I' for Inactive)
REMARK    1  A    between atoms: N_2  and  C_4 
REMARK    2  A    between atoms: C_4  and  C_5 
REMARK    3  A    between atoms: C_5  and  C_6 
REMARK    4  A    between atoms: C_6  and  N_7 
REMARK    5  A    between atoms: C_15  and  C_16 
REMARK    6  A    between atoms: C_22  and  C_23 
ROOT
HETATM    1  C   UNK N   1       0.884   2.263  -0.000  0.00  0.00     0.061 A 
HETATM    2  C   UNK N   1       0.934   3.741   0.014  0.00  0.00     0.260 A 
HETATM    3  O   UNK N   1      -0.015   4.502  -0.077  0.00  0.00    -0.267 OA
HETATM    4  N   UNK N   1       2.198   4.176   0.101  0.00  0.00    -0.289 N 
HETATM    5  C   UNK N   1       2.987   3.093   0.151  0.00  0.00     0.260 A 
HETATM    6  O   UNK N   1       4.199   3.172   0.259  0.00  0.00    -0.267 OA
HETATM    7  C   UNK N   1       2.184   1.850   0.097  0.00  0.00     0.061 A 
HETATM    8  H   UNK N   1       2.493   5.115   0.125  0.00  0.00     0.172 HD
ENDROOT
BRANCH   1   9
HETATM    9  C   UNK N   1      -0.364   1.442  -0.150  0.00  0.00     0.009 A 
HETATM   10  C   UNK N   1      -0.403   0.100  -0.518  0.00  0.00     0.104 A 
HETATM   11  N   UNK N   1      -1.682  -0.315  -0.591  0.00  0.00    -0.355 N 
HETATM   12  C   UNK N   1      -2.463   0.729  -0.289  0.00  0.00     0.045 A 
HETATM   13  C   UNK N   1      -3.856   0.753  -0.240  0.00  0.00     0.030 A 
HETATM   14  C   UNK N   1      -1.698   1.832  -0.015  0.00  0.00     0.003 A 
HETATM   15  C   UNK N   1      -4.477   1.962   0.109  0.00  0.00     0.002 A 
HETATM   16  C   UNK N   1      -3.699   3.104   0.395  0.00  0.00     0.001 A 
HETATM   17  C   UNK N   1      -2.293   3.043   0.335  0.00  0.00     0.014 A 
BRANCH  11  18
HETATM   18  C   UNK N   1      -2.118  -1.650  -0.953  0.00  0.00     0.130 C 
BRANCH  18  19
HETATM   19  C   UNK N   1      -2.008  -2.583   0.238  0.00  0.00     0.050 C 
BRANCH  19  20
HETATM   20  C   UNK N   1      -2.938  -3.768   0.019  0.00  0.00     0.273 C 
BRANCH  20  21
HETATM   21  N   UNK N   1      -4.294  -3.479   0.477  0.00  0.00     0.080 N 
HETATM   22  C   UNK N   1      -5.033  -4.724   0.397  0.00  0.00     0.309 C 
HETATM   23  C   UNK N   1      -4.940  -2.567  -0.456  0.00  0.00     0.309 C 
ENDBRANCH  20  21
ENDBRANCH  19  20
ENDBRANCH  18  19
ENDBRANCH  11  18
ENDBRANCH   1   9
BRANCH   7  24
HETATM   24  C   UNK N   1       2.739   0.451   0.181  0.00  0.00     0.009 A 
HETATM   25  C   UNK N   1       4.053   0.026   0.038  0.00  0.00     0.003 A 
HETATM   26  C   UNK N   1       5.234   0.707  -0.253  0.00  0.00     0.014 A 
HETATM   27  C   UNK N   1       4.054  -1.331   0.226  0.00  0.00     0.043 A 
HETATM   28  C   UNK N   1       6.427  -0.033  -0.342  0.00  0.00     0.001 A 
HETATM   29  C   UNK N   1       6.417  -1.430  -0.144  0.00  0.00     0.002 A 
HETATM   30  C   UNK N   1       5.214  -2.095   0.144  0.00  0.00     0.030 A 
HETATM   31  N   UNK N   1       2.823  -1.786   0.489  0.00  0.00    -0.364 N 
HETATM   32  C   UNK N   1       2.013  -0.703   0.469  0.00  0.00     0.101 A 
HETATM   33  H   UNK N   1       2.560  -2.719   0.661  0.00  0.00     0.165 HD
ENDBRANCH   7  24
TORSDOF 6
