REMARK  9 active torsions:
REMARK  status: ('A' for Active; 'I' for Inactive)
REMARK       I    between atoms: C_1  and  N_8 
REMARK       I    between atoms: C_1  and  N_9 
REMARK    1  A    between atoms: C_10  and  N_9 
REMARK    2  A    between atoms: C_10  and  C_11 
REMARK    3  A    between atoms: C_10  and  C_15 
REMARK    4  A    between atoms: C_11  and  C_12 
REMARK       I    between atoms: C_15  and  N_18 
REMARK    5  A    between atoms: C_17  and  O_19 
REMARK    6  A    between atoms: C_17  and  C_29 
REMARK    7  A    between atoms: C_29  and  N_18 
REMARK    8  A    between atoms: O_19  and  C_20 
REMARK    9  A    between atoms: C_20  and  C_21 
ROOT
HETATM    1  C   UNK N   1       1.964  -0.264   0.491  0.00  0.00     0.086 C 
HETATM    2  N   UNK N   1       2.411  -1.280   0.160  0.00  0.00    -0.195 NA
HETATM    3  C   UNK N   1       1.406   1.046   0.895  0.00  0.00     0.215 C 
ENDROOT
BRANCH   3   4
HETATM    4  C   UNK N   1       1.894   2.345   0.217  0.00  0.00     0.208 C 
BRANCH   4   5
HETATM    5  O   UNK N   1       3.097   2.185  -0.453  0.00  0.00    -0.384 OA
BRANCH   5   6
HETATM    6  C   UNK N   1       4.100   2.511   0.462  0.00  0.00     0.206 C 
BRANCH   6   7
HETATM    7  C   UNK N   1       5.189   1.536   0.248  0.00  0.00    -0.035 A 
HETATM    8  C   UNK N   1       6.357   1.935  -0.401  0.00  0.00     0.009 A 
HETATM    9  C   UNK N   1       7.323   0.982  -0.736  0.00  0.00     0.001 A 
HETATM   10  C   UNK N   1       7.111  -0.368  -0.431  0.00  0.00     0.000 A 
HETATM   11  C   UNK N   1       5.943  -0.763   0.225  0.00  0.00     0.001 A 
HETATM   12  C   UNK N   1       4.984   0.190   0.560  0.00  0.00     0.009 A 
ENDBRANCH   6   7
ENDBRANCH   5   6
ENDBRANCH   4   5
ENDBRANCH   3   4
BRANCH   3  13
HETATM   13  N   UNK N   1      -0.006   0.957   0.675  0.00  0.00    -0.340 N 
HETATM   14  C   UNK N   1      -0.545   0.915  -0.573  0.00  0.00     0.241 C 
HETATM   15  O   UNK N   1       0.170   0.899  -1.571  0.00  0.00    -0.271 OA
HETATM   16  H   UNK N   1      -0.607   0.924   1.453  0.00  0.00     0.164 HD
BRANCH  14  17
HETATM   17  C   UNK N   1      -2.023   0.954  -0.723  0.00  0.00     0.178 C 
BRANCH  17  18
HETATM   18  N   UNK N   1      -2.648  -0.225  -0.145  0.00  0.00    -0.330 N 
HETATM   19  C   UNK N   1      -2.189  -1.502  -0.304  0.00  0.00     0.319 C 
HETATM   20  O   UNK N   1      -1.116  -1.711  -0.860  0.00  0.00    -0.247 OA
HETATM   21  N   UNK N   1      -2.926  -2.551   0.149  0.00  0.00    -0.330 N 
HETATM   22  C   UNK N   1      -2.483  -3.912  -0.058  0.00  0.00     0.153 C 
HETATM   23  C   UNK N   1      -4.254  -2.352   0.684  0.00  0.00     0.153 C 
HETATM   24  C   UNK N   1      -3.603  -4.689  -0.772  0.00  0.00     0.187 C 
HETATM   25  O   UNK N   1      -4.612  -3.818  -1.246  0.00  0.00    -0.388 OA
HETATM   26  C   UNK N   1      -5.237  -3.231  -0.117  0.00  0.00     0.187 C 
HETATM   27  H   UNK N   1      -3.459  -0.094   0.398  0.00  0.00     0.165 HD
ENDBRANCH  17  18
BRANCH  17  28
HETATM   28  C   UNK N   1      -2.452   2.207   0.050  0.00  0.00     0.038 C 
BRANCH  28  29
HETATM   29  C   UNK N   1      -3.563   3.049  -0.542  0.00  0.00    -0.020 C 
HETATM   30  C   UNK N   1      -4.849   2.257  -0.639  0.00  0.00     0.009 C 
HETATM   31  C   UNK N   1      -3.774   4.231   0.390  0.00  0.00     0.009 C 
ENDBRANCH  28  29
ENDBRANCH  17  28
ENDBRANCH  14  17
ENDBRANCH   3  13
TORSDOF 9
