REMARK  7 active torsions:
REMARK  status: ('A' for Active; 'I' for Inactive)
REMARK    1  A    between atoms: C_1  and  C_2 
REMARK       I    between atoms: C_1  and  N_16 
REMARK    2  A    between atoms: C_2  and  C_3 
REMARK    3  A    between atoms: C_3  and  C_4 
REMARK    4  A    between atoms: C_4  and  C_5 
REMARK    5  A    between atoms: C_6  and  C_5 
REMARK    6  A    between atoms: N_16  and  C_17 
REMARK    7  A    between atoms: C_20  and  N_23 
ROOT
HETATM    1  C   UNK N   1       0.213   0.511  -0.006  0.00  0.00     0.103 C 
ENDROOT
BRANCH   1   2
HETATM    2  C   UNK N   1       1.453  -0.252  -0.301  0.00  0.00     0.222 C 
HETATM    3  O   UNK N   1       1.368  -1.342  -0.846  0.00  0.00    -0.273 OA
HETATM    4  N   UNK N   1       2.658   0.266   0.056  0.00  0.00    -0.327 N 
HETATM    5  H   UNK N   1       2.683   1.199   0.370  0.00  0.00     0.169 HD
BRANCH   4   6
HETATM    6  C   UNK N   1       3.884  -0.452   0.005  0.00  0.00     0.034 A 
HETATM    7  C   UNK N   1       5.094   0.241   0.104  0.00  0.00     0.032 A 
HETATM    8  C   UNK N   1       6.307  -0.458   0.096  0.00  0.00     0.038 A 
HETATM    9  C   UNK N   1       6.316  -1.862   0.007  0.00  0.00     0.103 A 
HETATM   10  C   UNK N   1       5.102  -2.551  -0.075  0.00  0.00     0.038 A 
HETATM   11  C   UNK N   1       3.899  -1.853  -0.075  0.00  0.00     0.032 A 
BRANCH   9  12
HETATM   12  N   UNK N   1       7.540  -2.583   0.003  0.00  0.00    -0.116 N 
HETATM   13  O   UNK N   1       8.583  -2.005   0.049  0.00  0.00    -0.532 OA
HETATM   14  O   UNK N   1       7.530  -3.899  -0.053  0.00  0.00    -0.532 OA
ENDBRANCH   9  12
ENDBRANCH   4   6
ENDBRANCH   1   2
BRANCH   1  15
HETATM   15  C   UNK N   1      -0.563  -0.167   1.121  0.00  0.00     0.009 C 
BRANCH  15  16
HETATM   16  C   UNK N   1      -1.173  -1.507   0.716  0.00  0.00     0.002 C 
BRANCH  16  17
HETATM   17  C   UNK N   1      -2.351  -1.395  -0.253  0.00  0.00     0.017 C 
BRANCH  17  18
HETATM   18  C   UNK N   1      -3.467  -0.473   0.240  0.00  0.00     0.072 C 
HETATM   19  C   UNK N   1      -3.308   0.923  -0.311  0.00  0.00     0.123 C 
HETATM   20  C   UNK N   1      -4.633   1.591  -0.022  0.00  0.00     0.119 C 
HETATM   21  N   UNK N   1      -2.367   1.911   0.139  0.00  0.00    -0.335 N 
HETATM   22  C   UNK N   1      -5.587   0.813  -0.882  0.00  0.00     0.101 C 
HETATM   23  N   UNK N   1      -4.308   2.981  -0.217  0.00  0.00    -0.336 N 
HETATM   24  S   UNK N   1      -5.099  -0.945  -0.509  0.00  0.00    -0.160 SA
HETATM   25  C   UNK N   1      -2.990   3.094   0.025  0.00  0.00     0.316 C 
HETATM   26  H   UNK N   1      -4.926   3.702  -0.476  0.00  0.00     0.164 HD
HETATM   27  O   UNK N   1      -2.415   4.165   0.131  0.00  0.00    -0.247 OA
HETATM   28  H   UNK N   1      -1.452   1.753   0.465  0.00  0.00     0.164 HD
ENDBRANCH  17  18
ENDBRANCH  16  17
ENDBRANCH  15  16
ENDBRANCH   1  15
TORSDOF 7
