REMARK  7 active torsions:
REMARK  status: ('A' for Active; 'I' for Inactive)
REMARK    1  A    between atoms: C_1  and  N_11 
REMARK    2  A    between atoms: C_4  and  C_7 
REMARK    3  A    between atoms: C_7  and  N_10 
REMARK    4  A    between atoms: N_11  and  N_12 
REMARK    5  A    between atoms: N_14  and  C_16 
REMARK    6  A    between atoms: C_19  and  C_22 
REMARK    7  A    between atoms: C_22  and  N_25 
ROOT
HETATM    1  N   UNK N   1      -1.297   0.895   0.000  0.00  0.00    -0.242 N 
ATOM      2  HN  UNK N   1      -0.413   0.386   0.000  1.00  0.00     0.208 HD
HETATM    3  N   UNK N   1      -1.251   2.136  -0.000  0.00  0.00    -0.287 N 
ATOM      4  HN  UNK N   1      -2.099   2.703  -0.000  1.00  0.00     0.188 HD
ENDROOT
BRANCH   1   5
HETATM    5  N   UNK N   1      -2.455   0.165   0.000  0.00  0.00    -0.287 N 
HETATM    6  H   UNK N   1      -3.341   0.593  -0.000  0.00  0.00     0.188 HD
BRANCH   5   7
HETATM    7  C   UNK N   1      -2.300  -1.243   0.000  0.00  0.00     0.049 A 
HETATM    8  C   UNK N   1      -1.001  -1.775   0.000  0.00  0.00     0.032 A 
HETATM    9  C   UNK N   1      -0.787  -3.142   0.000  0.00  0.00     0.017 A 
HETATM   10  C   UNK N   1      -1.869  -4.019  -0.000  0.00  0.00     0.007 A 
HETATM   11  C   UNK N   1      -3.181  -3.501  -0.000  0.00  0.00     0.017 A 
HETATM   12  C   UNK N   1      -3.398  -2.111  -0.000  0.00  0.00     0.032 A 
BRANCH  10  13
HETATM   13  C   UNK N   1      -1.604  -5.472  -0.000  0.00  0.00     0.102 C 
HETATM   14  N   UNK N   1      -2.572  -6.311  -0.000  0.00  0.00    -0.385 N 
HETATM   15  H   UNK N   1      -3.502  -5.989  -0.000  0.00  0.00     0.157 HD
ATOM     16  HN  UNK N   1      -2.379  -7.313  -0.000  1.00  0.00     0.157 HD
BRANCH  13  17
HETATM   17  N   UNK N   1      -0.270  -5.949  -0.000  0.00  0.00    -0.385 N 
HETATM   18  H   UNK N   1      -0.094  -6.917   0.000  0.00  0.00     0.157 HD
HETATM   19  H   UNK N   1       0.480  -5.312  -0.000  0.00  0.00     0.157 HD
ENDBRANCH  13  17
ENDBRANCH  10  13
ENDBRANCH   5   7
ENDBRANCH   1   5
BRANCH   3  20
HETATM   20  C   UNK N   1       0.040   2.727   0.000  0.00  0.00     0.049 A 
HETATM   21  C   UNK N   1       0.218   4.114  -0.000  0.00  0.00     0.032 A 
HETATM   22  C   UNK N   1       1.520   4.646  -0.000  0.00  0.00     0.017 A 
HETATM   23  C   UNK N   1       2.642   3.790  -0.000  0.00  0.00     0.007 A 
HETATM   24  C   UNK N   1       2.450   2.411   0.000  0.00  0.00     0.017 A 
HETATM   25  C   UNK N   1       1.169   1.888   0.000  0.00  0.00     0.032 A 
BRANCH  23  26
HETATM   26  C   UNK N   1       4.022   4.315  -0.000  0.00  0.00     0.102 C 
HETATM   27  N   UNK N   1       4.240   5.577  -0.000  0.00  0.00    -0.385 N 
HETATM   28  H   UNK N   1       5.164   5.917  -0.000  0.00  0.00     0.157 HD
ATOM     29  HN  UNK N   1       3.456   6.230  -0.000  1.00  0.00     0.157 HD
BRANCH  26  30
HETATM   30  N   UNK N   1       5.119   3.420   0.000  0.00  0.00    -0.385 N 
HETATM   31  H   UNK N   1       4.962   2.448   0.000  0.00  0.00     0.157 HD
HETATM   32  H   UNK N   1       6.040   3.769   0.000  0.00  0.00     0.157 HD
ENDBRANCH  26  30
ENDBRANCH  23  26
ENDBRANCH   3  20
TORSDOF 7
