REMARK  5 active torsions:
REMARK  status: ('A' for Active; 'I' for Inactive)
REMARK    1  A    between atoms: O_1  and  C_2 
REMARK    2  A    between atoms: C_3  and  C_2 
REMARK    3  A    between atoms: C_5  and  N_6 
REMARK    4  A    between atoms: C_13  and  C_14 
REMARK    5  A    between atoms: C_21  and  O_22 
ROOT
HETATM    1  N   UNK N   1      -0.662  -0.650   0.203  0.00  0.00    -0.281 N 
HETATM    2  C   UNK N   1       0.696  -0.645   0.213  0.00  0.00     0.117 A 
HETATM    3  C   UNK N   1      -1.327  -1.852   0.004  0.00  0.00     0.331 A 
HETATM    4  O   UNK N   1      -2.545  -1.903  -0.011  0.00  0.00    -0.246 OA
HETATM    5  N   UNK N   1      -0.610  -3.009  -0.169  0.00  0.00    -0.275 N 
HETATM    6  C   UNK N   1       0.761  -3.010  -0.142  0.00  0.00     0.262 A 
HETATM    7  O   UNK N   1       1.363  -4.059  -0.286  0.00  0.00    -0.267 OA
HETATM    8  C   UNK N   1       1.448  -1.801   0.050  0.00  0.00     0.065 A 
HETATM    9  H   UNK N   1      -1.089  -3.856  -0.315  0.00  0.00     0.173 HD
ENDROOT
BRANCH   1  10
HETATM   10  C   UNK N   1      -1.287   0.665   0.452  0.00  0.00     0.235 C 
HETATM   11  O   UNK N   1      -0.872   1.590  -0.542  0.00  0.00    -0.356 OA
HETATM   12  C   UNK N   1      -1.961   2.451  -0.755  0.00  0.00     0.176 C 
HETATM   13  C   UNK N   1      -3.210   1.614  -0.561  0.00  0.00     0.153 C 
HETATM   14  C   UNK N   1      -2.814   0.702   0.560  0.00  0.00     0.088 C 
BRANCH  12  15
HETATM   15  C   UNK N   1      -1.868   3.682   0.166  0.00  0.00     0.198 C 
BRANCH  15  16
HETATM   16  O   UNK N   1      -1.833   3.345   1.520  0.00  0.00    -0.398 OA
HETATM   17  H   UNK N   1      -2.024   3.206   2.461  0.00  0.00     0.209 HD
ENDBRANCH  15  16
ENDBRANCH  12  15
BRANCH  13  18
HETATM   18  O   UNK N   1      -3.425   0.830  -1.697  0.00  0.00    -0.393 OA
HETATM   19  H   UNK N   1      -3.971   0.687  -2.486  0.00  0.00     0.210 HD
ENDBRANCH  13  18
ENDBRANCH   1  10
BRANCH   8  20
HETATM   20  C   UNK N   1       2.922  -1.672   0.129  0.00  0.00     0.023 A 
HETATM   21  C   UNK N   1       3.602  -0.452   0.271  0.00  0.00     0.022 A 
HETATM   22  C   UNK N   1       5.012  -0.599   0.382  0.00  0.00     0.028 A 
HETATM   23  C   UNK N   1       5.424  -1.931   0.332  0.00  0.00     0.052 A 
HETATM   24  S   UNK N   1       4.071  -2.870   0.148  0.00  0.00    -0.082 SA
HETATM   25 Br   UNK N   1       7.216  -2.552   0.498  0.00  0.00    -0.043 Br
ENDBRANCH   8  20
TORSDOF 5
