REMARK  3 active torsions:
REMARK  status: ('A' for Active; 'I' for Inactive)
REMARK    1  A    between atoms: C_4  and  C_9 
REMARK    2  A    between atoms: C_8  and  C_12 
REMARK       I    between atoms: C_12  and  N_13 
REMARK    3  A    between atoms: C_17  and  O_18 
ROOT
HETATM    1  C   UNK N   1       1.773   0.176   0.000  0.00  0.00     0.076 A 
HETATM    2  N   UNK N   1       0.497  -0.217   0.000  0.00  0.00    -0.339 N 
ATOM      3  HN  UNK N   1       0.137  -1.172   0.000  1.00  0.00     0.167 HD
HETATM    4  C   UNK N   1      -0.209   0.938   0.000  0.00  0.00     0.116 A 
HETATM    5  N   UNK N   1       0.584   2.043   0.000  0.00  0.00    -0.340 N 
HETATM    6  C   UNK N   1       1.831   1.536   0.000  0.00  0.00     0.061 A 
HETATM    7  C   UNK N   1       3.042   2.220   0.000  0.00  0.00     0.032 A 
HETATM    8  C   UNK N   1       2.915  -0.627  -0.000  0.00  0.00     0.060 A 
HETATM    9  C   UNK N   1       4.162   0.035  -0.000  0.00  0.00     0.019 A 
HETATM   10  C   UNK N   1       4.224   1.450   0.000  0.00  0.00     0.003 A 
HETATM   11  H   UNK N   1       0.311   2.989   0.000  0.00  0.00     0.167 HD
ENDROOT
BRANCH   4  12
HETATM   12  C   UNK N   1      -1.675   0.945   0.000  0.00  0.00     0.011 A 
HETATM   13  C   UNK N   1      -2.343  -0.282   0.000  0.00  0.00     0.052 A 
HETATM   14  C   UNK N   1      -3.740  -0.344  -0.000  0.00  0.00     0.069 A 
HETATM   15  C   UNK N   1      -4.475   0.846  -0.000  0.00  0.00     0.037 A 
HETATM   16  C   UNK N   1      -3.814   2.082  -0.000  0.00  0.00     0.004 A 
HETATM   17  C   UNK N   1      -2.414   2.135   0.000  0.00  0.00     0.015 A 
BRANCH  14  18
HETATM   18  O   UNK N   1      -4.389  -1.533  -0.000  0.00  0.00    -0.356 OA
HETATM   19  C   UNK N   1      -3.732  -2.746  -0.000  0.00  0.00     0.210 C 
ENDBRANCH  14  18
ENDBRANCH   4  12
BRANCH   8  20
HETATM   20  C   UNK N   1       2.829  -2.110  -0.000  0.00  0.00     0.251 C 
HETATM   21  N   UNK N   1       3.952  -2.855  -0.000  0.00  0.00    -0.366 N 
HETATM   22  H   UNK N   1       3.890  -3.838  -0.000  0.00  0.00     0.159 HD
HETATM   23  H   UNK N   1       4.833  -2.418  -0.000  0.00  0.00     0.159 HD
HETATM   24  O   UNK N   1       1.742  -2.667  -0.000  0.00  0.00    -0.268 OA
ENDBRANCH   8  20
TORSDOF 3
