REMARK  10 active torsions:
REMARK  status: ('A' for Active; 'I' for Inactive)
REMARK       I    between atoms: N_1  and  C_2 
REMARK    1  A    between atoms: C_10  and  N_1 
REMARK       I    between atoms: C_2  and  N_4 
REMARK    2  A    between atoms: C_10  and  C_11 
REMARK    3  A    between atoms: C_10  and  C_26 
REMARK       I    between atoms: C_11  and  N_13 
REMARK    4  A    between atoms: C_14  and  N_13 
REMARK    5  A    between atoms: C_14  and  C_15 
REMARK    6  A    between atoms: C_14  and  C_17 
REMARK    7  A    between atoms: C_17  and  S_18 
REMARK    8  A    between atoms: S_18  and  C_19 
REMARK    9  A    between atoms: C_19  and  C_20 
REMARK   10  A    between atoms: C_26  and  C_27 
ROOT
HETATM    1  C   UNK N   1      -1.398  -0.001  -0.316  0.00  0.00     0.182 C 
ENDROOT
BRANCH   1   2
HETATM    2  N   UNK N   1      -2.755  -0.359  -0.691  0.00  0.00    -0.329 N 
HETATM    3  C   UNK N   1      -3.905   0.301  -0.389  0.00  0.00     0.319 C 
HETATM    4  O   UNK N   1      -3.880   1.447   0.045  0.00  0.00    -0.247 OA
HETATM    5  N   UNK N   1      -5.084  -0.367  -0.458  0.00  0.00    -0.330 N 
HETATM    6  C   UNK N   1      -5.106  -1.767  -0.814  0.00  0.00     0.153 C 
HETATM    7  C   UNK N   1      -6.282   0.186   0.120  0.00  0.00     0.153 C 
HETATM    8  C   UNK N   1      -5.526  -2.524   0.446  0.00  0.00     0.187 C 
HETATM    9  O   UNK N   1      -6.781  -2.050   0.889  0.00  0.00    -0.388 OA
HETATM   10  C   UNK N   1      -6.625  -0.711   1.316  0.00  0.00     0.187 C 
HETATM   11  H   UNK N   1      -2.854  -1.178  -1.229  0.00  0.00     0.165 HD
ENDBRANCH   1   2
BRANCH   1  12
HETATM   12  C   UNK N   1      -0.895  -1.152   0.529  0.00  0.00     0.241 C 
HETATM   13  O   UNK N   1      -1.582  -1.534   1.466  0.00  0.00    -0.271 OA
HETATM   14  N   UNK N   1       0.286  -1.779   0.296  0.00  0.00    -0.348 N 
HETATM   15  H   UNK N   1       0.497  -2.564   0.851  0.00  0.00     0.163 HD
BRANCH  14  16
HETATM   16  C   UNK N   1       1.260  -1.388  -0.699  0.00  0.00     0.155 C 
BRANCH  16  17
HETATM   17  C   UNK N   1       2.361  -2.394  -0.713  0.00  0.00     0.257 C 
HETATM   18  O   UNK N   1       2.127  -3.567  -0.954  0.00  0.00    -0.305 OA
ENDBRANCH  16  17
BRANCH  16  19
HETATM   19  C   UNK N   1       1.814   0.016  -0.412  0.00  0.00     0.106 C 
BRANCH  19  20
HETATM   20  S   UNK N   1       2.488   0.217   1.273  0.00  0.00    -0.162 SA
BRANCH  20  21
HETATM   21  C   UNK N   1       4.034   0.996   0.680  0.00  0.00     0.112 C 
BRANCH  21  22
HETATM   22  C   UNK N   1       5.134   0.022   0.368  0.00  0.00    -0.049 A 
HETATM   23  C   UNK N   1       6.407   0.510   0.054  0.00  0.00     0.008 A 
HETATM   24  C   UNK N   1       7.447  -0.378  -0.242  0.00  0.00     0.001 A 
HETATM   25  C   UNK N   1       7.215  -1.757  -0.237  0.00  0.00     0.000 A 
HETATM   26  C   UNK N   1       5.946  -2.249   0.073  0.00  0.00     0.001 A 
HETATM   27  C   UNK N   1       4.915  -1.362   0.381  0.00  0.00     0.008 A 
ENDBRANCH  21  22
ENDBRANCH  20  21
ENDBRANCH  19  20
ENDBRANCH  16  19
ENDBRANCH  14  16
ENDBRANCH   1  12
BRANCH   1  28
HETATM   28  C   UNK N   1      -1.302   1.256   0.571  0.00  0.00     0.073 C 
BRANCH  28  29
HETATM   29  C   UNK N   1      -0.462   2.394   0.061  0.00  0.00    -0.056 A 
HETATM   30  C   UNK N   1      -0.064   3.381   0.967  0.00  0.00     0.007 A 
HETATM   31  C   UNK N   1       0.730   4.450   0.543  0.00  0.00     0.001 A 
HETATM   32  C   UNK N   1       1.128   4.540  -0.793  0.00  0.00     0.000 A 
HETATM   33  C   UNK N   1       0.727   3.562  -1.708  0.00  0.00     0.001 A 
HETATM   34  C   UNK N   1      -0.066   2.494  -1.283  0.00  0.00     0.007 A 
ENDBRANCH  28  29
ENDBRANCH   1  28
TORSDOF 10
