REMARK  4 active torsions:
REMARK  status: ('A' for Active; 'I' for Inactive)
REMARK    1  A    between atoms: C_7  and  C_8 
REMARK    2  A    between atoms: C_8  and  N_9 
REMARK       I    between atoms: N_9  and  C_10 
REMARK    3  A    between atoms: N_9  and  C_17 
REMARK    4  A    between atoms: C_17  and  C_18 
ROOT
HETATM    1  N   UNK N   1      -0.051   0.528   0.127  0.00  0.00    -0.207 N 
HETATM    2  C   UNK N   1      -0.051  -0.898   0.205  0.00  0.00     0.709 A 
HETATM    3  N   UNK N   1       0.752  -1.706  -0.507  0.00  0.00    -0.118 N 
ATOM      4  HN  UNK N   1       1.463  -1.431  -1.185  1.00  0.00     0.207 HD
HETATM    5  N   UNK N   1       0.425  -2.934  -0.142  0.00  0.00    -0.212 N 
HETATM    6  N   UNK N   1      -0.544  -2.882   0.762  0.00  0.00     0.009 NA
HETATM    7  N   UNK N   1      -0.862  -1.620   0.996  0.00  0.00    -0.113 N 
ATOM      8  HN  UNK N   1      -1.572  -1.270   1.640  1.00  0.00     0.203 HD
HETATM    9  H   UNK N   1       0.837  -3.758  -0.488  0.00  0.00     0.206 HD
ENDROOT
BRANCH   1  10
HETATM   10  C   UNK N   1      -1.108   1.292   0.764  0.00  0.00     0.180 C 
BRANCH  10  11
HETATM   11  C   UNK N   1      -2.484   0.917   0.250  0.00  0.00    -0.040 A 
HETATM   12  C   UNK N   1      -3.619   1.400   0.911  0.00  0.00     0.010 A 
HETATM   13  C   UNK N   1      -4.898   0.996   0.505  0.00  0.00     0.024 A 
HETATM   14  C   UNK N   1      -5.047   0.104  -0.562  0.00  0.00     0.034 A 
HETATM   15 Cl   UNK N   1      -6.639  -0.440  -1.044  0.00  0.00    -0.084 Cl
HETATM   16  C   UNK N   1      -3.922  -0.367  -1.239  0.00  0.00     0.024 A 
HETATM   17  C   UNK N   1      -2.649   0.039  -0.838  0.00  0.00     0.010 A 
ENDBRANCH  10  11
ENDBRANCH   1  10
BRANCH   1  18
HETATM   18  C   UNK N   1       0.961   1.227  -0.646  0.00  0.00     0.180 C 
BRANCH  18  19
HETATM   19  C   UNK N   1       2.377   0.849  -0.270  0.00  0.00    -0.040 A 
HETATM   20  C   UNK N   1       3.414   1.163  -1.155  0.00  0.00     0.010 A 
HETATM   21  C   UNK N   1       4.715   0.713  -0.907  0.00  0.00     0.024 A 
HETATM   22  C   UNK N   1       4.985  -0.060   0.227  0.00  0.00     0.034 A 
HETATM   23 Cl   UNK N   1       6.599  -0.680   0.504  0.00  0.00    -0.084 Cl
HETATM   24  C   UNK N   1       3.962  -0.358   1.128  0.00  0.00     0.024 A 
HETATM   25  C   UNK N   1       2.664   0.097   0.883  0.00  0.00     0.010 A 
ENDBRANCH  18  19
ENDBRANCH   1  18
TORSDOF 4
