REMARK  3 active torsions:
REMARK  status: ('A' for Active; 'I' for Inactive)
REMARK    1  A    between atoms: N_1  and  C_2 
REMARK    2  A    between atoms: N_1  and  C_4 
REMARK    3  A    between atoms: N_1  and  C_5 
ROOT
HETATM    1  N   UNK N   1       1.265   0.456   0.001  0.00  0.00    -0.350 N 
ENDROOT
BRANCH   1   2
HETATM    2  C   UNK N   1       2.285   1.354   0.001  0.00  0.00     0.351 C 
HETATM    3  O   UNK N   1       3.451   0.992  -0.003  0.00  0.00    -0.284 OA
ENDBRANCH   1   2
BRANCH   1   4
HETATM    4  C   UNK N   1      -0.105   0.964   0.016  0.00  0.00     0.087 A 
HETATM    5  C   UNK N   1      -1.341   0.106  -0.009  0.00  0.00     0.025 A 
HETATM    6  C   UNK N   1      -2.489   1.105   0.001  0.00  0.00     0.002 A 
HETATM    7  C   UNK N   1      -1.917   2.526   0.001  0.00  0.00     0.002 A 
HETATM    8  C   UNK N   1      -0.401   2.444  -0.008  0.00  0.00     0.025 A 
ENDBRANCH   1   4
BRANCH   1   9
HETATM    9  C   UNK N   1       1.594  -0.969  -0.001  0.00  0.00     0.087 A 
HETATM   10  C   UNK N   1       0.904  -1.772  -1.081  0.00  0.00     0.025 A 
HETATM   11  C   UNK N   1       0.296  -2.653   0.000  0.00  0.00     0.004 A 
HETATM   12  C   UNK N   1       0.906  -1.773   1.081  0.00  0.00     0.025 A 
ENDBRANCH   1   9
TORSDOF 3
