REMARK  5 active torsions:
REMARK  status: ('A' for Active; 'I' for Inactive)
REMARK    1  A    between atoms: C_1  and  C_13 
REMARK    2  A    between atoms: C_9  and  S_10 
REMARK    3  A    between atoms: S_10  and  C_16 
REMARK    4  A    between atoms: C_16  and  C_17 
REMARK    5  A    between atoms: C_17  and  O_18 
ROOT
HETATM    1  O   UNK N   1       1.141  -1.642  -0.650  0.00  0.00    -0.210 OA
HETATM    2  C   UNK N   1      -0.152  -1.679  -0.864  0.00  0.00     0.210 A 
HETATM    3  N   UNK N   1      -0.719  -0.492  -0.583  0.00  0.00    -0.314 N 
ATOM      4  HN  UNK N   1      -1.699  -0.221  -0.656  1.00  0.00     0.170 HD
HETATM    5  C   UNK N   1       0.333   0.250  -0.183  0.00  0.00     0.138 A 
HETATM    6  N   UNK N   1       1.477  -0.462  -0.223  0.00  0.00    -0.241 N 
ATOM      7  HN  UNK N   1       2.412  -0.141   0.030  1.00  0.00     0.196 HD
ENDROOT
BRANCH   5   8
HETATM    8  C   UNK N   1       0.258   1.685   0.129  0.00  0.00     0.011 A 
HETATM    9  C   UNK N   1      -0.985   2.333   0.176  0.00  0.00     0.015 A 
HETATM   10  C   UNK N   1      -1.052   3.711   0.402  0.00  0.00     0.003 A 
HETATM   11  C   UNK N   1       0.122   4.452   0.560  0.00  0.00     0.024 A 
HETATM   12  C   UNK N   1       1.364   3.812   0.508  0.00  0.00     0.035 A 
HETATM   13  C   UNK N   1       1.432   2.432   0.298  0.00  0.00     0.039 A 
HETATM   14 Cl   UNK N   1       2.836   4.746   0.665  0.00  0.00    -0.084 Cl
ENDBRANCH   5   8
BRANCH   2  15
HETATM   15  S   UNK N   1      -1.023  -3.038  -1.641  0.00  0.00    -0.074 SA
BRANCH  15  16
HETATM   16  C   UNK N   1      -0.388  -4.309  -0.502  0.00  0.00     0.192 C 
BRANCH  16  17
HETATM   17  C   UNK N   1      -1.447  -4.837   0.419  0.00  0.00     0.149 C 
HETATM   18  O   UNK N   1      -2.572  -4.362   0.424  0.00  0.00    -0.649 OA
BRANCH  17  19
HETATM   19  O   UNK N   1      -1.154  -5.859   1.243  0.00  0.00    -0.776 OA
HETATM   20  H   UNK N   1      -1.668  -6.392   1.818  0.00  0.00     0.167 HD
ENDBRANCH  17  19
ENDBRANCH  16  17
ENDBRANCH  15  16
ENDBRANCH   2  15
TORSDOF 5
