REMARK  10 active torsions:
REMARK  status: ('A' for Active; 'I' for Inactive)
REMARK    1  A    between atoms: C_5  and  N_7 
REMARK       I    between atoms: N_7  and  C_8 
REMARK       I    between atoms: C_8  and  N_10 
REMARK    2  A    between atoms: N_10  and  C_11 
REMARK    3  A    between atoms: C_11  and  C_12 
REMARK    4  A    between atoms: C_12  and  C_13 
REMARK    5  A    between atoms: C_13  and  C_14 
REMARK    6  A    between atoms: C_14  and  C_15 
REMARK    7  A    between atoms: C_15  and  C_16 
REMARK    8  A    between atoms: C_16  and  C_17 
REMARK    9  A    between atoms: C_17  and  C_18 
REMARK   10  A    between atoms: C_18  and  C_19 
ROOT
HETATM    1  N   UNK N   1      -4.177   0.780  -0.132  0.00  0.00    -0.339 N 
HETATM    2  C   UNK N   1      -2.887   0.370  -0.035  0.00  0.00     0.316 C 
HETATM    3  O   UNK N   1      -2.622  -0.724   0.449  0.00  0.00    -0.247 OA
HETATM    4  N   UNK N   1      -1.895   1.160  -0.508  0.00  0.00    -0.343 N 
HETATM    5  H   UNK N   1      -4.364   1.670  -0.511  0.00  0.00     0.164 HD
HETATM    6  H   UNK N   1      -2.106   2.063  -0.839  0.00  0.00     0.164 HD
ENDROOT
BRANCH   4   7
HETATM    7  C   UNK N   1      -0.532   0.691  -0.533  0.00  0.00     0.124 C 
BRANCH   7   8
HETATM    8  C   UNK N   1       0.354   1.516   0.383  0.00  0.00     0.020 C 
BRANCH   8   9
HETATM    9  C   UNK N   1       1.600   0.719   0.754  0.00  0.00     0.002 C 
BRANCH   9  10
HETATM   10  C   UNK N   1       2.411   0.363  -0.484  0.00  0.00     0.000 C 
BRANCH  10  11
HETATM   11  C   UNK N   1       3.606  -0.497  -0.118  0.00  0.00     0.000 C 
BRANCH  11  12
HETATM   12  C   UNK N   1       4.828   0.383   0.031  0.00  0.00     0.000 C 
BRANCH  12  13
HETATM   13  C   UNK N   1       6.085  -0.462   0.052  0.00  0.00     0.000 C 
BRANCH  13  14
HETATM   14  C   UNK N   1       7.283   0.465   0.064  0.00  0.00    -0.000 C 
BRANCH  14  15
HETATM   15  C   UNK N   1       8.567  -0.333   0.010  0.00  0.00    -0.005 C 
HETATM   16  C   UNK N   1       9.741   0.624  -0.002  0.00  0.00     0.005 C 
ENDBRANCH  14  15
ENDBRANCH  13  14
ENDBRANCH  12  13
ENDBRANCH  11  12
ENDBRANCH  10  11
ENDBRANCH   9  10
ENDBRANCH   8   9
ENDBRANCH   7   8
ENDBRANCH   4   7
BRANCH   1  17
HETATM   17  C   UNK N   1      -5.287  -0.042   0.301  0.00  0.00     0.086 C 
HETATM   18  C   UNK N   1      -6.598   0.705   0.063  0.00  0.00     0.025 C 
HETATM   19  C   UNK N   1      -7.788  -0.157   0.484  0.00  0.00     0.002 C 
HETATM   20  C   UNK N   1      -7.785  -1.483  -0.275  0.00  0.00     0.000 C 
HETATM   21  C   UNK N   1      -6.477  -2.226  -0.027  0.00  0.00     0.002 C 
HETATM   22  C   UNK N   1      -5.306  -1.363  -0.478  0.00  0.00     0.025 C 
ENDBRANCH   1  17
TORSDOF 10
