REMARK  7 active torsions:
REMARK  status: ('A' for Active; 'I' for Inactive)
REMARK    1  A    between atoms: C_5  and  C_6 
REMARK    2  A    between atoms: C_6  and  O_8 
REMARK    3  A    between atoms: C_10  and  C_11 
REMARK    4  A    between atoms: C_11  and  C_12 
REMARK    5  A    between atoms: C_11  and  N_14 
REMARK       I    between atoms: N_14  and  C_15 
REMARK    6  A    between atoms: C_15  and  C_17 
REMARK    7  A    between atoms: C_17  and  C_18 
ROOT
HETATM    1  C   UNK N   1      -0.639  -0.953   0.086  0.00  0.00     0.178 C 
ENDROOT
BRANCH   1   2
HETATM    2  C   UNK N   1      -1.113   0.428  -0.379  0.00  0.00     0.173 C 
HETATM    3  S   UNK N   1      -2.920   0.480  -0.759  0.00  0.00    -0.137 SA
HETATM    4  C   UNK N   1      -3.374   1.892   0.308  0.00  0.00     0.112 C 
HETATM    5  C   UNK N   1      -2.415   3.036   0.164  0.00  0.00    -0.041 C 
HETATM    6  C   UNK N   1      -2.969   4.396  -0.114  0.00  0.00     0.047 C 
HETATM    7  C   UNK N   1      -1.099   2.796   0.346  0.00  0.00     0.106 C 
HETATM    8  N   UNK N   1      -0.699   1.454   0.557  0.00  0.00    -0.369 N 
HETATM    9  H   UNK N   1      -0.144   1.219   1.335  0.00  0.00     0.161 HD
BRANCH   7  10
HETATM   10  C   UNK N   1      -0.040   3.842   0.304  0.00  0.00     0.193 C 
HETATM   11  O   UNK N   1       1.127   3.521   0.457  0.00  0.00    -0.645 OA
BRANCH  10  12
HETATM   12  O   UNK N   1      -0.339   5.136   0.077  0.00  0.00    -0.772 OA
HETATM   13  H   UNK N   1       0.337   5.766  -0.080  0.00  0.00     0.167 HD
ENDBRANCH  10  12
ENDBRANCH   7  10
ENDBRANCH   1   2
BRANCH   1  14
HETATM   14  C   UNK N   1      -1.361  -1.410   1.319  0.00  0.00     0.259 C 
HETATM   15  O   UNK N   1      -2.018  -2.440   1.307  0.00  0.00    -0.305 OA
ENDBRANCH   1  14
BRANCH   1  16
HETATM   16  N   UNK N   1       0.776  -0.867   0.383  0.00  0.00    -0.347 N 
HETATM   17  C   UNK N   1       1.756  -1.336  -0.424  0.00  0.00     0.223 C 
HETATM   18  O   UNK N   1       1.492  -1.862  -1.496  0.00  0.00    -0.273 OA
HETATM   19  H   UNK N   1       1.043  -0.439   1.228  0.00  0.00     0.163 HD
BRANCH  17  20
HETATM   20  C   UNK N   1       3.178  -1.157  -0.006  0.00  0.00     0.148 C 
BRANCH  20  21
HETATM   21  C   UNK N   1       3.886  -2.464   0.036  0.00  0.00    -0.009 A 
HETATM   22  C   UNK N   1       5.053  -2.779  -0.650  0.00  0.00     0.015 A 
HETATM   23  C   UNK N   1       5.477  -4.119  -0.424  0.00  0.00     0.008 A 
HETATM   24  C   UNK N   1       4.638  -4.848   0.434  0.00  0.00     0.050 A 
HETATM   25  S   UNK N   1       3.424  -3.809   0.875  0.00  0.00    -0.106 SA
ENDBRANCH  20  21
ENDBRANCH  17  20
ENDBRANCH   1  16
TORSDOF 7
