REMARK  10 active torsions:
REMARK  status: ('A' for Active; 'I' for Inactive)
REMARK    1  A    between atoms: C_3  and  C_4 
REMARK    2  A    between atoms: C_4  and  C_5 
REMARK    3  A    between atoms: C_5  and  O_7 
REMARK    4  A    between atoms: C_9  and  C_10 
REMARK    5  A    between atoms: C_10  and  O_12 
REMARK    6  A    between atoms: C_14  and  C_15 
REMARK    7  A    between atoms: C_15  and  C_16 
REMARK    8  A    between atoms: C_15  and  N_18 
REMARK       I    between atoms: N_18  and  C_19 
REMARK    9  A    between atoms: C_19  and  C_21 
REMARK   10  A    between atoms: C_21  and  C_22 
ROOT
HETATM    1  S   UNK N   1      -3.612  -1.184   0.388  0.00  0.00    -0.137 SA
HETATM    2  C   UNK N   1      -3.471  -0.186  -1.098  0.00  0.00     0.113 C 
HETATM    3  C   UNK N   1      -2.901   1.142  -0.730  0.00  0.00    -0.028 C 
HETATM    4  C   UNK N   1      -1.719   1.193  -0.061  0.00  0.00     0.107 C 
HETATM    5  N   UNK N   1      -1.109  -0.015   0.399  0.00  0.00    -0.368 N 
HETATM    6  C   UNK N   1      -1.790  -1.291   0.617  0.00  0.00     0.173 C 
HETATM    7  H   UNK N   1      -0.143   0.014   0.585  0.00  0.00     0.161 HD
ENDROOT
BRANCH   6   8
HETATM    8  C   UNK N   1      -1.099  -2.411  -0.187  0.00  0.00     0.178 C 
BRANCH   8   9
HETATM    9  C   UNK N   1      -1.733  -3.759   0.040  0.00  0.00     0.259 C 
HETATM   10  O   UNK N   1      -2.869  -3.994  -0.340  0.00  0.00    -0.305 OA
ENDBRANCH   8   9
BRANCH   8  11
HETATM   11  N   UNK N   1       0.276  -2.453   0.264  0.00  0.00    -0.347 N 
HETATM   12  C   UNK N   1       1.246  -3.258  -0.235  0.00  0.00     0.223 C 
HETATM   13  O   UNK N   1       1.006  -4.049  -1.134  0.00  0.00    -0.273 OA
HETATM   14  H   UNK N   1       0.528  -1.845   0.996  0.00  0.00     0.163 HD
BRANCH  12  15
HETATM   15  C   UNK N   1       2.632  -3.149   0.314  0.00  0.00     0.148 C 
BRANCH  15  16
HETATM   16  C   UNK N   1       3.128  -1.746   0.173  0.00  0.00    -0.009 A 
HETATM   17  C   UNK N   1       2.588  -0.609   0.775  0.00  0.00     0.015 A 
HETATM   18  C   UNK N   1       3.272   0.585   0.411  0.00  0.00     0.008 A 
HETATM   19  C   UNK N   1       4.343   0.381  -0.472  0.00  0.00     0.050 A 
HETATM   20  S   UNK N   1       4.396  -1.254  -0.758  0.00  0.00    -0.106 SA
ENDBRANCH  15  16
ENDBRANCH  12  15
ENDBRANCH   8  11
ENDBRANCH   6   8
BRANCH   4  21
HETATM   21  C   UNK N   1      -1.022   2.474   0.255  0.00  0.00     0.193 C 
HETATM   22  O   UNK N   1       0.043   2.443   0.854  0.00  0.00    -0.645 OA
BRANCH  21  23
HETATM   23  O   UNK N   1      -1.522   3.667  -0.120  0.00  0.00    -0.772 OA
HETATM   24  H   UNK N   1      -0.978   4.383  -0.381  0.00  0.00     0.167 HD
ENDBRANCH  21  23
ENDBRANCH   4  21
BRANCH   3  25
HETATM   25  C   UNK N   1      -3.671   2.366  -1.134  0.00  0.00     0.148 C 
BRANCH  25  26
HETATM   26  C   UNK N   1      -4.917   2.469  -0.304  0.00  0.00     0.262 C 
HETATM   27  O   UNK N   1      -5.079   3.440   0.420  0.00  0.00    -0.265 OA
BRANCH  26  28
HETATM   28  O   UNK N   1      -5.836   1.472  -0.342  0.00  0.00    -0.326 OA
HETATM   29  C   UNK N   1      -6.956   1.466   0.456  0.00  0.00     0.213 C 
ENDBRANCH  26  28
ENDBRANCH  25  26
ENDBRANCH   3  25
TORSDOF 10
