REMARK  6 active torsions:
REMARK  status: ('A' for Active; 'I' for Inactive)
REMARK    1  A    between atoms: C_10  and  C_11 
REMARK       I    between atoms: C_11  and  N_13 
REMARK    2  A    between atoms: C_14  and  N_13 
REMARK    3  A    between atoms: C_14  and  C_15 
REMARK    4  A    between atoms: C_14  and  C_24 
REMARK       I    between atoms: C_15  and  N_17 
REMARK    5  A    between atoms: C_20  and  O_21 
REMARK    6  A    between atoms: C_24  and  C_25 
ROOT
HETATM    1  C   UNK N   1      -1.302   0.053   0.346  0.00  0.00     0.181 C 
ENDROOT
BRANCH   1   2
HETATM    2  N   UNK N   1       0.123   0.231   0.164  0.00  0.00    -0.342 N 
HETATM    3  C   UNK N   1       0.764   1.420   0.297  0.00  0.00     0.269 C 
HETATM    4  O   UNK N   1       0.140   2.447   0.536  0.00  0.00    -0.266 OA
HETATM    5  H   UNK N   1       0.660  -0.559  -0.071  0.00  0.00     0.163 HD
BRANCH   3   6
HETATM    6  C   UNK N   1       2.224   1.458   0.183  0.00  0.00     0.102 A 
HETATM    7  N   UNK N   1       2.970   0.340   0.008  0.00  0.00    -0.351 N 
HETATM    8  C   UNK N   1       4.240   0.763  -0.007  0.00  0.00     0.043 A 
HETATM    9  H   UNK N   1       2.648  -0.585  -0.087  0.00  0.00     0.166 HD
HETATM   10  C   UNK N   1       5.377  -0.025  -0.148  0.00  0.00     0.032 A 
HETATM   11  C   UNK N   1       4.309   2.119   0.149  0.00  0.00    -0.005 A 
HETATM   12  C   UNK N   1       6.624   0.622  -0.128  0.00  0.00     0.026 A 
HETATM   13  C   UNK N   1       6.701   2.025   0.030  0.00  0.00     0.035 A 
HETATM   14 Cl   UNK N   1       8.264   2.809   0.054  0.00  0.00    -0.084 Cl
HETATM   15  C   UNK N   1       5.528   2.791   0.171  0.00  0.00     0.037 A 
HETATM   16  C   UNK N   1       3.024   2.597   0.277  0.00  0.00     0.049 A 
ENDBRANCH   3   6
ENDBRANCH   1   2
BRANCH   1  17
HETATM   17  C   UNK N   1      -1.650  -1.429   0.180  0.00  0.00     0.242 C 
HETATM   18  O   UNK N   1      -2.564  -1.740  -0.574  0.00  0.00    -0.271 OA
HETATM   19  N   UNK N   1      -0.957  -2.423   0.821  0.00  0.00    -0.350 N 
HETATM   20  C   UNK N   1       0.230  -2.155   1.611  0.00  0.00     0.128 C 
HETATM   21  C   UNK N   1      -1.309  -3.812   0.598  0.00  0.00     0.128 C 
HETATM   22  C   UNK N   1       1.446  -2.893   1.008  0.00  0.00     0.051 C 
HETATM   23  C   UNK N   1       1.083  -3.687  -0.256  0.00  0.00     0.121 C 
HETATM   24  C   UNK N   1      -0.121  -4.594   0.014  0.00  0.00     0.051 C 
BRANCH  23  25
HETATM   25  O   UNK N   1       2.168  -4.452  -0.681  0.00  0.00    -0.395 OA
HETATM   26  H   UNK N   1       2.086  -5.372  -0.977  0.00  0.00     0.210 HD
ENDBRANCH  23  25
ENDBRANCH   1  17
BRANCH   1  27
HETATM   27  C   UNK N   1      -2.020   0.912  -0.713  0.00  0.00     0.073 C 
BRANCH  27  28
HETATM   28  C   UNK N   1      -3.431   1.334  -0.446  0.00  0.00    -0.056 A 
HETATM   29  C   UNK N   1      -4.400   0.440   0.027  0.00  0.00     0.010 A 
HETATM   30  C   UNK N   1      -5.729   0.855   0.169  0.00  0.00     0.043 A 
HETATM   31  C   UNK N   1      -6.095   2.160  -0.180  0.00  0.00     0.116 A 
HETATM   32  F   UNK N   1      -7.385   2.556  -0.067  0.00  0.00    -0.206 F 
HETATM   33  C   UNK N   1      -5.131   3.052  -0.655  0.00  0.00     0.043 A 
HETATM   34  C   UNK N   1      -3.803   2.639  -0.788  0.00  0.00     0.010 A 
ENDBRANCH  27  28
ENDBRANCH   1  27
TORSDOF 6
