REMARK  3 active torsions:
REMARK  status: ('A' for Active; 'I' for Inactive)
REMARK    1  A    between atoms: C_8  and  C_14 
REMARK    2  A    between atoms: C_9  and  C_15 
REMARK    3  A    between atoms: C_17  and  N_26 
REMARK       I    between atoms: N_26  and  C_28 
ROOT
HETATM    1  N   UNK N   1       0.367   1.634   0.056  0.00  0.00    -0.290 N 
ATOM      2  HN  UNK N   1       0.319   0.615   0.041  1.00  0.00     0.187 HD
HETATM    3  N   UNK N   1      -0.747   2.353   0.063  0.00  0.00    -0.220 N 
HETATM    4  C   UNK N   1      -0.781   3.678   0.088  0.00  0.00     0.143 A 
HETATM    5  C   UNK N   1       0.401   4.413   0.098  0.00  0.00     0.054 A 
HETATM    6  C   UNK N   1       1.608   3.680   0.085  0.00  0.00     0.036 A 
HETATM    7  C   UNK N   1       1.574   2.261   0.068  0.00  0.00     0.059 A 
HETATM    8  C   UNK N   1      -2.025   1.957   0.050  0.00  0.00     0.154 A 
HETATM    9  N   UNK N   1      -2.838   3.041   0.075  0.00  0.00    -0.282 N 
ATOM     10  HN  UNK N   1      -3.858   3.032   0.077  1.00  0.00     0.188 HD
HETATM   11  N   UNK N   1      -2.053   4.124   0.097  0.00  0.00    -0.282 N 
ATOM     12  HN  UNK N   1      -2.357   5.097   0.117  1.00  0.00     0.188 HD
ENDROOT
BRANCH   8  13
HETATM   13  C   UNK N   1      -2.453   0.544   0.009  0.00  0.00     0.013 A 
HETATM   14  C   UNK N   1      -1.476  -0.452  -0.069  0.00  0.00     0.045 A 
HETATM   15  C   UNK N   1      -1.793  -1.813  -0.087  0.00  0.00     0.037 A 
HETATM   16  C   UNK N   1      -3.153  -2.168  -0.036  0.00  0.00     0.030 A 
HETATM   17  C   UNK N   1      -4.149  -1.182   0.024  0.00  0.00     0.003 A 
HETATM   18  C   UNK N   1      -3.800   0.175   0.048  0.00  0.00     0.015 A 
BRANCH  15  19
HETATM   19  N   UNK N   1      -0.725  -2.781  -0.175  0.00  0.00    -0.323 N 
HETATM   20  C   UNK N   1       0.601  -2.298  -0.506  0.00  0.00     0.159 C 
HETATM   21  C   UNK N   1      -0.874  -4.128   0.050  0.00  0.00     0.220 C 
HETATM   22  O   UNK N   1       0.093  -4.870  -0.054  0.00  0.00    -0.274 OA
HETATM   23  C   UNK N   1      -2.172  -4.743   0.461  0.00  0.00     0.117 C 
ENDBRANCH  15  19
ENDBRANCH   8  13
BRANCH   7  24
HETATM   24  C   UNK N   1       2.799   1.435   0.062  0.00  0.00    -0.008 A 
HETATM   25  C   UNK N   1       4.076   2.012   0.034  0.00  0.00     0.014 A 
HETATM   26  C   UNK N   1       5.214   1.197   0.024  0.00  0.00     0.001 A 
HETATM   27  C   UNK N   1       5.084  -0.195   0.045  0.00  0.00     0.000 A 
HETATM   28  C   UNK N   1       3.816  -0.776   0.076  0.00  0.00     0.001 A 
HETATM   29  C   UNK N   1       2.681   0.036   0.084  0.00  0.00     0.014 A 
ENDBRANCH   7  24
TORSDOF 3
