REMARK  2 active torsions:
REMARK  status: ('A' for Active; 'I' for Inactive)
REMARK    1  A    between atoms: C_5  and  C_13 
REMARK    2  A    between atoms: C_10  and  C_16 
REMARK       I    between atoms: C_13  and  N_14 
ROOT
HETATM    1  C   UNK N   1      -3.913  -2.137   0.000  0.00  0.00     0.003 A 
HETATM    2  C   UNK N   1      -2.705  -2.840   0.000  0.00  0.00     0.032 A 
HETATM    3  C   UNK N   1      -1.494  -2.143   0.000  0.00  0.00     0.060 A 
HETATM    4  C   UNK N   1      -1.496  -0.734   0.000  0.00  0.00     0.075 A 
HETATM    5  C   UNK N   1      -2.711  -0.017   0.000  0.00  0.00     0.060 A 
HETATM    6  C   UNK N   1      -3.916  -0.738   0.000  0.00  0.00     0.019 A 
HETATM    7  N   UNK N   1      -0.310  -2.814   0.000  0.00  0.00    -0.362 N 
ATOM      8  HN  UNK N   1      -0.310  -3.834   0.000  1.00  0.00     0.165 HD
HETATM    9  C   UNK N   1       0.877  -2.142   0.000  0.00  0.00     0.118 A 
HETATM   10  C   UNK N   1       0.878  -0.739   0.000  0.00  0.00     0.058 A 
HETATM   11  N   UNK N   1      -0.308  -0.082   0.000  0.00  0.00    -0.352 N 
ATOM     12  HN  UNK N   1      -0.306   0.938   0.000  1.00  0.00     0.166 HD
ENDROOT
BRANCH  10  13
HETATM   13  C   UNK N   1       2.121   0.056   0.000  0.00  0.00    -0.008 A 
HETATM   14  C   UNK N   1       2.024   1.456  -0.000  0.00  0.00     0.015 A 
HETATM   15  C   UNK N   1       3.169   2.249  -0.000  0.00  0.00     0.024 A 
HETATM   16  C   UNK N   1       4.427   1.651  -0.000  0.00  0.00     0.034 A 
HETATM   17  C   UNK N   1       4.541   0.255  -0.000  0.00  0.00     0.024 A 
HETATM   18 Cl   UNK N   1       5.859   2.657  -0.000  0.00  0.00    -0.084 Cl
HETATM   19  C   UNK N   1       3.390  -0.544  -0.000  0.00  0.00     0.015 A 
ENDBRANCH  10  13
BRANCH   5  20
HETATM   20  C   UNK N   1      -2.753   1.475   0.000  0.00  0.00     0.251 C 
HETATM   21  N   UNK N   1      -3.937   2.120   0.000  0.00  0.00    -0.366 N 
HETATM   22  H   UNK N   1      -3.961   3.104  -0.000  0.00  0.00     0.159 HD
HETATM   23  H   UNK N   1      -4.777   1.606   0.000  0.00  0.00     0.159 HD
HETATM   24  O   UNK N   1      -1.721   2.131   0.000  0.00  0.00    -0.268 OA
ENDBRANCH   5  20
TORSDOF 2
