REMARK  16 active torsions:
REMARK  status: ('A' for Active; 'I' for Inactive)
REMARK    1  A    between atoms: C_33  and  C_1 
REMARK    2  A    between atoms: C_7  and  C_43 
REMARK    3  A    between atoms: C_13  and  C_27 
REMARK    4  A    between atoms: C_20  and  C_38 
REMARK    5  A    between atoms: C_27  and  C_28 
REMARK    6  A    between atoms: C_28  and  C_29 
REMARK    7  A    between atoms: C_29  and  O_31 
REMARK    8  A    between atoms: C_33  and  C_34 
REMARK    9  A    between atoms: C_34  and  C_35 
REMARK   10  A    between atoms: C_35  and  O_37 
REMARK   11  A    between atoms: C_38  and  C_39 
REMARK   12  A    between atoms: C_39  and  C_40 
REMARK   13  A    between atoms: C_40  and  O_42 
REMARK   14  A    between atoms: C_43  and  C_44 
REMARK   15  A    between atoms: C_44  and  C_45 
REMARK   16  A    between atoms: C_45  and  O_47 
ROOT
HETATM    1  C   UNK N   1       2.691  -3.315  -0.105  0.00  0.00    -0.023 A 
HETATM    2  C   UNK N   1       3.511  -2.304   0.168  0.00  0.00    -0.027 A 
HETATM    3  C   UNK N   1       2.681  -1.092   0.291  0.00  0.00     0.041 A 
HETATM    4  N   UNK N   1       1.437  -1.368   0.116  0.00  0.00    -0.355 N 
ATOM      5  HN  UNK N   1       0.660  -0.708   0.143  1.00  0.00     0.166 HD
HETATM    6  C   UNK N   1       1.349  -2.756  -0.120  0.00  0.00     0.041 A 
HETATM    7  C   UNK N   1      -3.325  -2.788  -0.593  0.00  0.00    -0.023 A 
HETATM    8  C   UNK N   1      -2.261  -3.656  -0.571  0.00  0.00    -0.027 A 
HETATM    9  C   UNK N   1      -1.124  -2.896  -0.414  0.00  0.00     0.041 A 
HETATM   10  N   UNK N   1      -1.436  -1.584  -0.339  0.00  0.00    -0.355 N 
HETATM   11  C   UNK N   1      -2.782  -1.513  -0.451  0.00  0.00     0.041 A 
HETATM   12  C   UNK N   1       0.234  -3.454  -0.353  0.00  0.00     0.060 C 
HETATM   13  C   UNK N   1      -2.932   3.195  -0.073  0.00  0.00    -0.023 A 
HETATM   14  C   UNK N   1      -3.807   2.201  -0.209  0.00  0.00    -0.027 A 
HETATM   15  C   UNK N   1      -3.031   0.973  -0.302  0.00  0.00     0.041 A 
HETATM   16  N   UNK N   1      -1.660   1.303  -0.228  0.00  0.00    -0.355 N 
ATOM     17  HN  UNK N   1      -0.879   0.648  -0.267  1.00  0.00     0.166 HD
HETATM   18  C   UNK N   1      -1.578   2.581  -0.101  0.00  0.00     0.041 A 
HETATM   19  C   UNK N   1      -3.548  -0.257  -0.410  0.00  0.00     0.060 C 
HETATM   20  C   UNK N   1       3.110   2.664   0.320  0.00  0.00    -0.023 A 
HETATM   21  C   UNK N   1       2.079   3.560   0.178  0.00  0.00    -0.027 A 
HETATM   22  C   UNK N   1       0.918   2.811   0.102  0.00  0.00     0.041 A 
HETATM   23  N   UNK N   1       1.194   1.492   0.177  0.00  0.00    -0.355 N 
HETATM   24  C   UNK N   1       2.538   1.405   0.317  0.00  0.00     0.041 A 
HETATM   25  C   UNK N   1       3.234   0.268   0.401  0.00  0.00     0.060 C 
HETATM   26  C   UNK N   1      -0.308   3.334  -0.014  0.00  0.00     0.060 C 
HETATM   27  C   UNK N   1       2.202   5.046   0.115  0.00  0.00     0.051 C 
HETATM   28  C   UNK N   1       5.002  -2.369   0.238  0.00  0.00     0.051 C 
HETATM   29  C   UNK N   1      -2.322  -5.143  -0.691  0.00  0.00     0.051 C 
HETATM   30  C   UNK N   1      -5.297   2.327  -0.217  0.00  0.00     0.051 C 
HETATM   31  H   UNK N   1      -0.810  -0.833  -0.226  0.00  0.00     0.166 HD
HETATM   32  H   UNK N   1       0.551   0.747   0.138  0.00  0.00     0.166 HD
ENDROOT
BRANCH   1  33
HETATM   33  C   UNK N   1       3.065  -4.721  -0.450  0.00  0.00     0.052 C 
BRANCH  33  34
HETATM   34  C   UNK N   1       3.427  -5.555   0.758  0.00  0.00     0.115 C 
BRANCH  34  35
HETATM   35  C   UNK N   1       3.788  -6.921   0.279  0.00  0.00     0.139 C 
HETATM   36  O   UNK N   1       3.082  -7.874   0.565  0.00  0.00    -0.650 OA
BRANCH  35  37
HETATM   37  O   UNK N   1       4.879  -7.101  -0.489  0.00  0.00    -0.776 OA
HETATM   38  H   UNK N   1       5.151  -7.821  -1.024  0.00  0.00     0.167 HD
ENDBRANCH  35  37
ENDBRANCH  34  35
ENDBRANCH  33  34
ENDBRANCH   1  33
BRANCH  20  39
HETATM   39  C   UNK N   1       4.568   2.988   0.429  0.00  0.00     0.052 C 
BRANCH  39  40
HETATM   40  C   UNK N   1       5.324   2.360  -0.732  0.00  0.00     0.115 C 
BRANCH  40  41
HETATM   41  C   UNK N   1       6.647   1.843  -0.274  0.00  0.00     0.139 C 
HETATM   42  O   UNK N   1       7.504   2.613   0.125  0.00  0.00    -0.650 OA
BRANCH  41  43
HETATM   43  O   UNK N   1       6.897   0.521  -0.312  0.00  0.00    -0.776 OA
HETATM   44  H   UNK N   1       6.187  -0.090  -0.338  0.00  0.00     0.167 HD
ENDBRANCH  41  43
ENDBRANCH  40  41
ENDBRANCH  39  40
ENDBRANCH  20  39
BRANCH   7  45
HETATM   45  C   UNK N   1      -4.758  -3.235  -0.752  0.00  0.00     0.052 C 
BRANCH  45  46
HETATM   46  C   UNK N   1      -5.822  -2.145  -0.737  0.00  0.00     0.115 C 
BRANCH  46  47
HETATM   47  C   UNK N   1      -6.229  -1.797   0.660  0.00  0.00     0.139 C 
HETATM   48  O   UNK N   1      -6.664  -2.658   1.407  0.00  0.00    -0.650 OA
BRANCH  47  49
HETATM   49  O   UNK N   1      -6.151  -0.522   1.083  0.00  0.00    -0.776 OA
HETATM   50  H   UNK N   1      -5.355  -0.126   1.378  0.00  0.00     0.167 HD
ENDBRANCH  47  49
ENDBRANCH  46  47
ENDBRANCH  45  46
ENDBRANCH   7  45
BRANCH  13  51
HETATM   51  C   UNK N   1      -3.324   4.640   0.106  0.00  0.00     0.052 C 
BRANCH  51  52
HETATM   52  C   UNK N   1      -2.194   5.530   0.600  0.00  0.00     0.115 C 
BRANCH  52  53
HETATM   53  C   UNK N   1      -1.742   6.460  -0.475  0.00  0.00     0.139 C 
HETATM   54  O   UNK N   1      -2.508   7.300  -0.921  0.00  0.00    -0.650 OA
BRANCH  53  55
HETATM   55  O   UNK N   1      -0.481   6.390  -0.937  0.00  0.00    -0.776 OA
HETATM   56  H   UNK N   1      -0.084   5.605  -1.259  0.00  0.00     0.167 HD
ENDBRANCH  53  55
ENDBRANCH  52  53
ENDBRANCH  51  52
ENDBRANCH  13  51
TORSDOF 16
