REMARK  5 active torsions:
REMARK  status: ('A' for Active; 'I' for Inactive)
REMARK    1  A    between atoms: C_1  and  C_7 
REMARK    2  A    between atoms: C_7  and  N_8 
REMARK    3  A    between atoms: C_7  and  N_9 
REMARK    4  A    between atoms: C_13  and  C_14 
REMARK    5  A    between atoms: C_19  and  O_20 
ROOT
HETATM    1  C   UNK N   1       3.482   0.188   0.020  0.00  0.00     0.009 A 
HETATM    2  C   UNK N   1       3.486  -1.233   0.095  0.00  0.00     0.017 A 
HETATM    3  C   UNK N   1       2.274  -1.956   0.146  0.00  0.00     0.033 A 
HETATM    4  C   UNK N   1       1.089  -1.223   0.122  0.00  0.00     0.060 A 
HETATM    5  C   UNK N   1       1.091   0.133   0.067  0.00  0.00     0.061 A 
HETATM    6  C   UNK N   1       2.254   0.880   0.013  0.00  0.00     0.047 A 
HETATM    7  N   UNK N   1      -0.177  -1.674   0.127  0.00  0.00    -0.340 N 
HETATM    8  N   UNK N   1      -0.164   0.588   0.045  0.00  0.00    -0.340 N 
ATOM      9  HN  UNK N   1      -0.480   1.557   0.011  1.00  0.00     0.167 HD
HETATM   10  C   UNK N   1      -0.924  -0.534   0.079  0.00  0.00     0.119 A 
HETATM   11  H   UNK N   1      -0.490  -2.606   0.158  0.00  0.00     0.167 HD
ENDROOT
BRANCH  10  12
HETATM   12  C   UNK N   1      -2.402  -0.507   0.017  0.00  0.00     0.041 A 
HETATM   13  C   UNK N   1      -3.114  -1.711  -0.089  0.00  0.00     0.018 A 
HETATM   14  C   UNK N   1      -4.509  -1.703  -0.179  0.00  0.00     0.001 A 
HETATM   15  C   UNK N   1      -5.206  -0.494  -0.159  0.00  0.00     0.003 A 
HETATM   16  C   UNK N   1      -4.511   0.710  -0.045  0.00  0.00     0.037 A 
HETATM   17  C   UNK N   1      -3.117   0.714   0.041  0.00  0.00     0.079 A 
BRANCH  17  18
HETATM   18  O   UNK N   1      -2.478   1.892   0.151  0.00  0.00    -0.360 OA
ATOM     19  HO  UNK N   1      -2.958   2.712   0.167  1.00  0.00     0.217 HD
ENDBRANCH  17  18
ENDBRANCH  10  12
BRANCH   1  20
HETATM   20  C   UNK N   1       4.747   0.946  -0.076  0.00  0.00     0.102 C 
BRANCH  20  21
HETATM   21  N   UNK N   1       5.986   0.268  -0.093  0.00  0.00    -0.385 N 
HETATM   22  H   UNK N   1       6.009  -0.716  -0.104  0.00  0.00     0.157 HD
HETATM   23  H   UNK N   1       6.827   0.779  -0.093  0.00  0.00     0.157 HD
ENDBRANCH  20  21
BRANCH  20  24
HETATM   24  N   UNK N   1       4.729   2.225  -0.186  0.00  0.00    -0.385 N 
HETATM   25  H   UNK N   1       5.571   2.728  -0.270  0.00  0.00     0.157 HD
HETATM   26  H   UNK N   1       3.869   2.705  -0.186  0.00  0.00     0.157 HD
ENDBRANCH  20  24
ENDBRANCH   1  20
TORSDOF 5
