REMARK  5 active torsions:
REMARK  status: ('A' for Active; 'I' for Inactive)
REMARK    1  A    between atoms: O_1  and  C_2 
REMARK    2  A    between atoms: C_2  and  C_4 
REMARK    3  A    between atoms: C_4  and  C_5 
REMARK    4  A    between atoms: C_5  and  C_6 
REMARK    5  A    between atoms: C_6  and  N_7 
ROOT
HETATM    1  N   UNK N   1       0.095  -0.584  -0.339  0.00  0.00    -0.345 N 
HETATM    2  C   UNK N   1       1.371  -1.000  -0.183  0.00  0.00     0.046 A 
HETATM    3  C   UNK N   1       1.847  -2.308  -0.191  0.00  0.00     0.030 A 
HETATM    4  C   UNK N   1       2.214   0.081  -0.025  0.00  0.00     0.003 A 
HETATM    5  C   UNK N   1       3.587  -0.080   0.135  0.00  0.00     0.014 A 
HETATM    6  C   UNK N   1       4.096  -1.393   0.131  0.00  0.00     0.001 A 
HETATM    7  C   UNK N   1       3.231  -2.500  -0.030  0.00  0.00     0.002 A 
HETATM    8  C   UNK N   1       1.425   1.207  -0.081  0.00  0.00     0.003 A 
HETATM    9  C   UNK N   1       0.131   0.768  -0.277  0.00  0.00     0.046 A 
HETATM   10  C   UNK N   1      -0.932   1.664  -0.395  0.00  0.00     0.030 A 
HETATM   11  C   UNK N   1       1.738   2.560   0.008  0.00  0.00     0.014 A 
HETATM   12  C   UNK N   1       0.683   3.485  -0.104  0.00  0.00     0.001 A 
HETATM   13  C   UNK N   1      -0.645   3.039  -0.303  0.00  0.00     0.002 A 
ENDROOT
BRANCH   1  14
HETATM   14  C   UNK N   1      -1.056  -1.447  -0.583  0.00  0.00     0.130 C 
BRANCH  14  15
HETATM   15  C   UNK N   1      -2.153  -1.214   0.431  0.00  0.00     0.031 C 
BRANCH  15  16
HETATM   16  C   UNK N   1      -3.456  -1.185  -0.340  0.00  0.00     0.111 C 
BRANCH  16  17
HETATM   17  C   UNK N   1      -4.362  -0.125   0.186  0.00  0.00     0.139 C 
HETATM   18  O   UNK N   1      -3.993   1.038   0.220  0.00  0.00    -0.650 OA
BRANCH  17  19
HETATM   19  O   UNK N   1      -5.604  -0.447   0.587  0.00  0.00    -0.776 OA
HETATM   20  H   UNK N   1      -6.231   0.190   0.866  0.00  0.00     0.167 HD
ENDBRANCH  17  19
ENDBRANCH  16  17
ENDBRANCH  15  16
ENDBRANCH  14  15
ENDBRANCH   1  14
TORSDOF 5
