REMARK  9 active torsions:
REMARK  status: ('A' for Active; 'I' for Inactive)
REMARK    1  A    between atoms: C_2  and  C_1 
REMARK    2  A    between atoms: C_1  and  O_20 
REMARK    3  A    between atoms: C_3  and  O_4 
REMARK    4  A    between atoms: C_5  and  O_6 
REMARK    5  A    between atoms: C_7  and  N_9 
REMARK    6  A    between atoms: C_14  and  N_15 
REMARK    7  A    between atoms: P_18  and  O_20 
REMARK    8  A    between atoms: P_18  and  O_21 
REMARK    9  A    between atoms: P_18  and  O_22 
ROOT
HETATM    1  C   UNK N   1      -1.620   0.260  -0.267  0.00  0.00     0.180 C 
HETATM    2  C   UNK N   1      -1.353   1.682   0.137  0.00  0.00     0.182 C 
HETATM    3  C   UNK N   1       0.097   1.801  -0.160  0.00  0.00     0.198 C 
HETATM    4  C   UNK N   1       0.524   0.456   0.409  0.00  0.00     0.263 C 
HETATM    5  O   UNK N   1      -0.459  -0.487   0.017  0.00  0.00    -0.353 OA
ENDROOT
BRANCH   4   6
HETATM    6  N   UNK N   1       1.894  -0.038   0.114  0.00  0.00    -0.280 N 
HETATM    7  C   UNK N   1       3.020   0.777   0.082  0.00  0.00     0.330 A 
HETATM    8  O   UNK N   1       2.932   1.980   0.202  0.00  0.00    -0.246 OA
HETATM    9  N   UNK N   1       4.264   0.218  -0.073  0.00  0.00    -0.295 N 
HETATM   10  C   UNK N   1       4.427  -1.120  -0.185  0.00  0.00     0.103 A 
ATOM     11  HN  UNK N   1       5.084   0.825  -0.105  1.00  0.00     0.172 HD
HETATM   12  C   UNK N   1       3.320  -1.955  -0.159  0.00  0.00     0.065 A 
HETATM   13  C   UNK N   1       2.058  -1.388  -0.005  0.00  0.00     0.102 A 
BRANCH  10  14
HETATM   14  N   UNK N   1       5.719  -1.666  -0.310  0.00  0.00    -0.385 N 
HETATM   15  H   UNK N   1       5.840  -2.639  -0.396  0.00  0.00     0.157 HD
HETATM   16  H   UNK N   1       6.504  -1.072  -0.310  0.00  0.00     0.157 HD
ENDBRANCH  10  14
ENDBRANCH   4   6
BRANCH   3  17
HETATM   17  O   UNK N   1       0.601   2.867   0.586  0.00  0.00    -0.388 OA
HETATM   18  H   UNK N   1       1.419   2.934   1.104  0.00  0.00     0.210 HD
ENDBRANCH   3  17
BRANCH   2  19
HETATM   19  O   UNK N   1      -2.118   2.587  -0.598  0.00  0.00    -0.390 OA
HETATM   20  H   UNK N   1      -1.839   3.363  -1.109  0.00  0.00     0.210 HD
ENDBRANCH   2  19
BRANCH   1  21
HETATM   21  C   UNK N   1      -2.784  -0.277   0.538  0.00  0.00     0.215 C 
BRANCH  21  22
HETATM   22  O   UNK N   1      -3.487  -1.215  -0.223  0.00  0.00    -0.294 OA
BRANCH  22  23
HETATM   23  P   UNK N   1      -4.960  -1.502   0.659  0.00  0.00     0.390 P 
HETATM   24  O   UNK N   1      -4.699  -2.882  -0.003  0.00  0.00    -0.632 OA
BRANCH  23  25
HETATM   25  O   UNK N   1      -6.452  -1.827  -0.164  0.00  0.00    -0.307 OA
HETATM   26  H   UNK N   1      -7.026  -1.195  -0.624  0.00  0.00     0.222 HD
ENDBRANCH  23  25
BRANCH  23  27
HETATM   27  O   UNK N   1      -5.292  -0.322  -0.575  0.00  0.00    -0.307 OA
HETATM   28  H   UNK N   1      -4.815   0.167  -1.263  0.00  0.00     0.222 HD
ENDBRANCH  23  27
ENDBRANCH  22  23
ENDBRANCH  21  22
ENDBRANCH   1  21
TORSDOF 9
