REMARK  4 active torsions:
REMARK  status: ('A' for Active; 'I' for Inactive)
REMARK    1  A    between atoms: C_1  and  C_2 
REMARK    2  A    between atoms: C_1  and  O_6 
REMARK    3  A    between atoms: C_3  and  C_4 
REMARK    4  A    between atoms: C_4  and  O_8 
ROOT
HETATM    1  C   UNK N   1       0.666  -1.240  -0.000  0.00  0.00     0.088 C 
HETATM    2  C   UNK N   1      -0.681  -1.253   0.000  0.00  0.00     0.088 C 
ENDROOT
BRANCH   1   3
HETATM    3  C   UNK N   1       1.606  -0.094  -0.000  0.00  0.00     0.165 C 
HETATM    4  O   UNK N   1       1.213   1.062  -0.000  0.00  0.00    -0.647 OA
BRANCH   3   5
HETATM    5  O   UNK N   1       2.926  -0.334   0.000  0.00  0.00    -0.773 OA
HETATM    6  H   UNK N   1       3.243  -1.216   0.000  0.00  0.00     0.167 HD
ENDBRANCH   3   5
ENDBRANCH   1   3
BRANCH   2   7
HETATM    7  C   UNK N   1      -1.648  -0.126   0.000  0.00  0.00     0.165 C 
HETATM    8  O   UNK N   1      -2.837  -0.375  -0.000  0.00  0.00    -0.647 OA
BRANCH   7   9
HETATM    9  O   UNK N   1      -1.251   1.159   0.000  0.00  0.00    -0.773 OA
HETATM   10  H   UNK N   1      -0.337   1.367   0.000  0.00  0.00     0.167 HD
ENDBRANCH   7   9
ENDBRANCH   2   7
TORSDOF 4
