REMARK  6 active torsions:
REMARK  status: ('A' for Active; 'I' for Inactive)
REMARK    1  A    between atoms: O_1  and  C_2 
REMARK    2  A    between atoms: C_2  and  C_4 
REMARK    3  A    between atoms: C_4  and  O_6 
REMARK    4  A    between atoms: O_6  and  C_7 
REMARK    5  A    between atoms: C_12  and  O_13 
REMARK    6  A    between atoms: O_13  and  C_14 
ROOT
HETATM    1  C   UNK N   1       1.744   1.513  -0.383  0.00  0.00     0.070 A 
HETATM    2  C   UNK N   1       2.563   0.853   0.539  0.00  0.00     0.039 A 
HETATM    3  C   UNK N   1       2.555  -0.545   0.598  0.00  0.00     0.040 A 
HETATM    4  C   UNK N   1       1.020   0.773  -1.329  0.00  0.00     0.039 A 
HETATM    5  C   UNK N   1       1.026  -0.616  -1.282  0.00  0.00     0.040 A 
HETATM    6  C   UNK N   1       1.733  -1.275  -0.268  0.00  0.00     0.076 A 
ENDROOT
BRANCH   6   7
HETATM    7  O   UNK N   1       1.556  -2.597  -0.062  0.00  0.00    -0.309 OA
BRANCH   7   8
HETATM    8  C   UNK N   1       0.340  -3.222  -0.000  0.00  0.00     0.098 A 
HETATM    9  C   UNK N   1       0.310  -4.600  -0.250  0.00  0.00     0.041 A 
HETATM   10  C   UNK N   1      -0.887  -5.318  -0.181  0.00  0.00     0.026 A 
HETATM   11  C   UNK N   1      -2.076  -4.667   0.141  0.00  0.00     0.035 A 
HETATM   12 Cl   UNK N   1      -3.577  -5.560   0.239  0.00  0.00    -0.084 Cl
HETATM   13  C   UNK N   1      -2.070  -3.304   0.410  0.00  0.00     0.050 A 
HETATM   14  C   UNK N   1      -0.888  -2.566   0.352  0.00  0.00     0.069 A 
HETATM   15 Cl   UNK N   1      -1.039  -0.872   0.817  0.00  0.00    -0.081 Cl
ENDBRANCH   7   8
ENDBRANCH   6   7
BRANCH   1  16
HETATM   16  O   UNK N   1       1.550   2.848  -0.267  0.00  0.00    -0.336 OA
BRANCH  16  17
HETATM   17  C   UNK N   1       0.266   3.378  -0.292  0.00  0.00     0.222 C 
HETATM   18  C   UNK N   1      -0.523   2.851   0.905  0.00  0.00     0.051 C 
BRANCH  17  19
HETATM   19  C   UNK N   1       0.274   4.873  -0.224  0.00  0.00     0.170 C 
HETATM   20  O   UNK N   1       1.331   5.489  -0.176  0.00  0.00    -0.648 OA
BRANCH  19  21
HETATM   21  O   UNK N   1      -0.890   5.548  -0.218  0.00  0.00    -0.774 OA
HETATM   22  H   UNK N   1      -0.889   6.485  -0.214  0.00  0.00     0.167 HD
ENDBRANCH  19  21
ENDBRANCH  17  19
ENDBRANCH  16  17
ENDBRANCH   1  16
TORSDOF 6
