REMARK  11 active torsions:
REMARK  status: ('A' for Active; 'I' for Inactive)
REMARK    1  A    between atoms: C_1  and  C_3 
REMARK    2  A    between atoms: C_1  and  S_12 
REMARK    3  A    between atoms: C_4  and  C_5 
REMARK    4  A    between atoms: C_5  and  C_6 
REMARK    5  A    between atoms: C_6  and  C_7 
REMARK    6  A    between atoms: C_7  and  C_8 
REMARK    7  A    between atoms: C_8  and  C_9 
REMARK    8  A    between atoms: C_9  and  C_10 
REMARK    9  A    between atoms: S_12  and  C_13 
REMARK   10  A    between atoms: C_13  and  C_14 
REMARK   11  A    between atoms: C_14  and  N_15 
REMARK       I    between atoms: N_15  and  C_16 
ROOT
HETATM    1  C   UNK N   1       1.271  -1.059   0.260  0.00  0.00     0.208 C 
HETATM    2  O   UNK N   1       0.293  -1.305  -0.431  0.00  0.00    -0.281 OA
ENDROOT
BRANCH   1   3
HETATM    3  C   UNK N   1       1.426   0.235   0.958  0.00  0.00     0.058 C 
HETATM    4  C   UNK N   1       0.720   1.345   0.708  0.00  0.00    -0.022 C 
BRANCH   4   5
HETATM    5  C   UNK N   1      -0.282   1.452  -0.396  0.00  0.00     0.027 C 
BRANCH   5   6
HETATM    6  C   UNK N   1      -1.650   1.794   0.154  0.00  0.00     0.004 C 
BRANCH   6   7
HETATM    7  C   UNK N   1      -2.295   0.562   0.766  0.00  0.00     0.000 C 
BRANCH   7   8
HETATM    8  C   UNK N   1      -3.800   0.741   0.816  0.00  0.00     0.000 C 
BRANCH   8   9
HETATM    9  C   UNK N   1      -4.374   0.641  -0.589  0.00  0.00    -0.000 C 
BRANCH   9  10
HETATM   10  C   UNK N   1      -5.852   0.978  -0.588  0.00  0.00    -0.005 C 
HETATM   11  C   UNK N   1      -6.661  -0.209  -0.103  0.00  0.00     0.005 C 
ENDBRANCH   9  10
ENDBRANCH   8   9
ENDBRANCH   7   8
ENDBRANCH   6   7
ENDBRANCH   5   6
ENDBRANCH   4   5
ENDBRANCH   1   3
BRANCH   1  12
HETATM   12  S   UNK N   1       2.575  -2.268   0.424  0.00  0.00    -0.086 SA
BRANCH  12  13
HETATM   13  C   UNK N   1       3.265  -1.883  -1.220  0.00  0.00     0.102 C 
BRANCH  13  14
HETATM   14  C   UNK N   1       3.862  -0.477  -1.325  0.00  0.00     0.133 C 
BRANCH  14  15
HETATM   15  N   UNK N   1       5.018  -0.195  -0.489  0.00  0.00    -0.361 N 
HETATM   16  C   UNK N   1       5.988  -1.064  -0.093  0.00  0.00     0.213 C 
HETATM   17  O   UNK N   1       6.937  -0.641   0.543  0.00  0.00    -0.274 OA
HETATM   18  C   UNK N   1       5.936  -2.524  -0.407  0.00  0.00     0.117 C 
HETATM   19  H   UNK N   1       5.110   0.733  -0.173  0.00  0.00     0.162 HD
ENDBRANCH  14  15
ENDBRANCH  13  14
ENDBRANCH  12  13
ENDBRANCH   1  12
TORSDOF 11
