REMARK  22 active torsions:
REMARK  status: ('A' for Active; 'I' for Inactive)
REMARK    1  A    between atoms: C_6  and  C_5 
REMARK    2  A    between atoms: C_14  and  C_5 
REMARK    3  A    between atoms: C_16  and  C_6 
REMARK    4  A    between atoms: C_17  and  C_7 
REMARK    5  A    between atoms: N_21  and  C_7 
REMARK    6  A    between atoms: C_13  and  C_8 
REMARK    7  A    between atoms: O_26  and  C_8 
REMARK    8  A    between atoms: C_13  and  C_9 
REMARK    9  A    between atoms: O_35  and  C_9 
REMARK   10  A    between atoms: C_15  and  C_10 
REMARK   11  A    between atoms: S_36  and  C_10 
REMARK   12  A    between atoms: N_25  and  C_11 
REMARK   13  A    between atoms: O_35  and  C_12 
REMARK   14  A    between atoms: C_13  and  S_36 
REMARK   15  A    between atoms: C_19  and  C_14 
REMARK   16  A    between atoms: C_14  and  N_20 
REMARK   17  A    between atoms: C_18  and  C_15 
REMARK   18  A    between atoms: C_15  and  N_23 
REMARK   19  A    between atoms: C_16  and  O_27 
REMARK   20  A    between atoms: O_29  and  C_17 
REMARK   21  A    between atoms: O_30  and  C_18 
REMARK   22  A    between atoms: O_32  and  C_19 
ROOT
HETATM    1  C   UNK N   1       4.140  -1.627  -0.016  0.00  0.00     0.167 C 
ENDROOT
BRANCH   1   2
HETATM    2  C   UNK N   1       4.726  -1.450   1.394  0.00  0.00     0.108 C 
BRANCH   2   3
HETATM    3  S   UNK N   1       6.420  -0.752   1.581  0.00  0.00    -0.158 SA
BRANCH   3   4
HETATM    4  C   UNK N   1       6.467   0.755   0.526  0.00  0.00     0.095 C 
BRANCH   4   5
HETATM    5  C   UNK N   1       5.317   1.728   0.705  0.00  0.00     0.181 C 
BRANCH   5   6
HETATM    6  O   UNK N   1       5.588   2.912   0.007  0.00  0.00    -0.400 OA
HETATM    7  H   UNK N   1       6.392   3.159  -0.477  0.00  0.00     0.209 HD
ENDBRANCH   5   6
ENDBRANCH   4   5
BRANCH   4   8
HETATM    8  C   UNK N   1       6.689   0.394  -0.943  0.00  0.00     0.193 C 
BRANCH   8   9
HETATM    9  O   UNK N   1       8.025   0.539  -1.243  0.00  0.00    -0.350 OA
BRANCH   9  10
HETATM   10  C   UNK N   1       8.978  -0.325  -0.831  0.00  0.00     0.069 A 
HETATM   11  C   UNK N   1      10.247   0.173  -0.540  0.00  0.00     0.039 A 
HETATM   12  C   UNK N   1      11.251  -0.680  -0.085  0.00  0.00     0.039 A 
HETATM   13  C   UNK N   1      11.005  -2.051   0.063  0.00  0.00     0.103 A 
HETATM   14  C   UNK N   1       9.728  -2.556  -0.238  0.00  0.00     0.039 A 
HETATM   15  C   UNK N   1       8.716  -1.695  -0.674  0.00  0.00     0.039 A 
BRANCH  13  16
HETATM   16  N   UNK N   1      12.043  -2.924   0.497  0.00  0.00    -0.116 N 
HETATM   17  O   UNK N   1      13.121  -2.482   0.774  0.00  0.00    -0.532 OA
HETATM   18  O   UNK N   1      11.858  -4.099   0.559  0.00  0.00    -0.532 OA
ENDBRANCH  13  16
ENDBRANCH   9  10
ENDBRANCH   8   9
ENDBRANCH   4   8
ENDBRANCH   3   4
ENDBRANCH   2   3
ENDBRANCH   1   2
BRANCH   1  19
HETATM   19  C   UNK N   1       3.434  -2.975  -0.062  0.00  0.00     0.136 C 
HETATM   20  N   UNK N   1       3.929  -4.023  -0.623  0.00  0.00    -0.363 N 
ATOM     21  HN  UNK N   1       3.348  -4.860  -0.673  1.00  0.00     0.161 HD
BRANCH  20  22
HETATM   22  C   UNK N   1       5.250  -4.087  -1.183  0.00  0.00     0.231 C 
BRANCH  22  23
HETATM   23  C   UNK N   1       6.127  -4.755  -0.178  0.00  0.00     0.158 C 
HETATM   24  O   UNK N   1       7.074  -4.152   0.295  0.00  0.00    -0.649 OA
BRANCH  23  25
HETATM   25  O   UNK N   1       5.837  -5.996   0.258  0.00  0.00    -0.775 OA
HETATM   26  H   UNK N   1       4.988  -6.252   0.561  0.00  0.00     0.167 HD
ENDBRANCH  23  25
ENDBRANCH  22  23
ENDBRANCH  20  22
BRANCH  19  27
HETATM   27  O   UNK N   1       2.219  -3.076   0.515  0.00  0.00    -0.348 OA
HETATM   28  H   UNK N   1       1.736  -2.381   0.916  0.00  0.00     0.219 HD
ENDBRANCH  19  27
ENDBRANCH   1  19
BRANCH   1  29
HETATM   29  N   UNK N   1       3.070  -0.684  -0.328  0.00  0.00    -0.362 N 
HETATM   30  C   UNK N   1       2.501   0.161   0.473  0.00  0.00     0.111 C 
ATOM     31  HN  UNK N   1       2.731  -0.692  -1.290  1.00  0.00     0.162 HD
BRANCH  30  32
HETATM   32  C   UNK N   1       1.202   0.758   0.063  0.00  0.00     0.086 C 
BRANCH  32  33
HETATM   33  C   UNK N   1       1.352   2.056  -0.689  0.00  0.00     0.043 C 
BRANCH  33  34
HETATM   34  C   UNK N   1       1.569   3.224   0.259  0.00  0.00     0.173 C 
BRANCH  34  35
HETATM   35  C   UNK N   1       1.610   4.478  -0.550  0.00  0.00     0.163 C 
HETATM   36  O   UNK N   1       0.637   4.818  -1.207  0.00  0.00    -0.648 OA
BRANCH  35  37
HETATM   37  O   UNK N   1       2.725   5.230  -0.570  0.00  0.00    -0.775 OA
HETATM   38  H   UNK N   1       3.567   4.819  -0.584  0.00  0.00     0.167 HD
ENDBRANCH  35  37
ENDBRANCH  34  35
BRANCH  34  39
HETATM   39  N   UNK N   1       0.487   3.307   1.230  0.00  0.00    -0.418 N 
HETATM   40  H   UNK N   1       0.158   3.993   1.910  0.00  0.00     0.150 HD
HETATM   41  H   UNK N   1      -0.089   2.466   1.230  0.00  0.00     0.150 HD
ENDBRANCH  34  39
ENDBRANCH  33  34
ENDBRANCH  32  33
ENDBRANCH  30  32
BRANCH  30  42
HETATM   42  O   UNK N   1       2.925   0.358   1.738  0.00  0.00    -0.350 OA
HETATM   43  H   UNK N   1       3.191   0.172   2.617  0.00  0.00     0.219 HD
ENDBRANCH  30  42
ENDBRANCH   1  29
TORSDOF 22
