REMARK  4 active torsions:
REMARK  status: ('A' for Active; 'I' for Inactive)
REMARK       I    between atoms: N_1  and  C_2 
REMARK       I    between atoms: C_2  and  N_4 
REMARK    1  A    between atoms: N_4  and  C_5 
REMARK    2  A    between atoms: C_5  and  C_6 
REMARK    3  A    between atoms: C_6  and  C_7 
REMARK    4  A    between atoms: C_7  and  O_8 
ROOT
HETATM    1  N   UNK N   1       0.425   2.095   0.001  0.00  0.00    -0.235 N 
HETATM    2  C   UNK N   1       1.577   1.286  -0.000  0.00  0.00     0.665 C 
HETATM    3  N   UNK N   1       1.456   0.004  -0.001  0.00  0.00    -0.235 N 
HETATM    4  N   UNK N   1       2.857   1.886  -0.000  0.00  0.00    -0.227 N 
HETATM    5  H   UNK N   1       0.513   3.076   0.002  0.00  0.00     0.174 HD
HETATM    6  H   UNK N   1      -0.468   1.680   0.001  0.00  0.00     0.174 HD
HETATM    7  H   UNK N   1       0.561  -0.406  -0.001  0.00  0.00     0.174 HD
HETATM    8  H   UNK N   1       2.259  -0.566  -0.001  0.00  0.00     0.174 HD
HETATM    9  H   UNK N   1       2.920   2.869   0.000  0.00  0.00     0.177 HD
ENDROOT
BRANCH   4  10
HETATM   10  C   UNK N   1       4.068   1.114  -0.001  0.00  0.00     0.140 C 
BRANCH  10  11
HETATM   11  C   UNK N   1       5.240   2.065   0.001  0.00  0.00     0.046 C 
BRANCH  11  12
HETATM   12  C   UNK N   1       6.533   1.288  -0.000  0.00  0.00     0.165 C 
BRANCH  12  13
HETATM   13  O   UNK N   1       7.597   2.188  -0.000  0.00  0.00    -0.401 OA
HETATM   14  H   UNK N   1       8.510   1.860  -0.000  0.00  0.00     0.209 HD
ENDBRANCH  12  13
ENDBRANCH  11  12
ENDBRANCH  10  11
ENDBRANCH   4  10
TORSDOF 4
