REMARK  2 active torsions:
REMARK  status: ('A' for Active; 'I' for Inactive)
REMARK    1  A    between atoms: O_1  and  C_2 
REMARK    2  A    between atoms: C_2  and  C_4 
ROOT
HETATM    1  C   UNK N   1       0.764  -0.844   0.000  0.00  0.00     0.037 A 
HETATM    2  C   UNK N   1      -0.476  -0.191   0.000  0.00  0.00     0.020 A 
HETATM    3  C   UNK N   1      -0.535   1.203   0.000  0.00  0.00     0.025 A 
HETATM    4  C   UNK N   1       0.645   1.951  -0.000  0.00  0.00     0.034 A 
HETATM    5 Cl   UNK N   1       0.565   3.696  -0.000  0.00  0.00    -0.084 Cl
HETATM    6  C   UNK N   1       1.885   1.306  -0.000  0.00  0.00     0.025 A 
HETATM    7  C   UNK N   1       1.945  -0.089  -0.000  0.00  0.00     0.020 A 
ENDROOT
BRANCH   1   8
HETATM    8  C   UNK N   1       0.825  -2.315   0.000  0.00  0.00     0.176 C 
HETATM    9  O   UNK N   1      -0.202  -2.974  -0.000  0.00  0.00    -0.646 OA
BRANCH   8  10
HETATM   10  O   UNK N   1       2.017  -2.942   0.000  0.00  0.00    -0.773 OA
HETATM   11  H   UNK N   1       2.054  -3.879   0.000  0.00  0.00     0.167 HD
ENDBRANCH   8  10
ENDBRANCH   1   8
TORSDOF 2
