REMARK  11 active torsions:
REMARK  status: ('A' for Active; 'I' for Inactive)
REMARK    1  A    between atoms: C_6  and  C_7 
REMARK    2  A    between atoms: C_20  and  C_21 
REMARK    3  A    between atoms: C_21  and  C_22 
REMARK    4  A    between atoms: C_22  and  C_23 
REMARK    5  A    between atoms: C_23  and  O_24 
REMARK    6  A    between atoms: C_28  and  C_29 
REMARK    7  A    between atoms: C_37  and  C_38 
REMARK    8  A    between atoms: C_38  and  C_39 
REMARK    9  A    between atoms: C_39  and  C_40 
REMARK   10  A    between atoms: C_40  and  O_41 
REMARK   11  A    between atoms: C_45  and  C_46 
ROOT
HETATM    1  C   UNK N   1      -0.369   1.647  -0.161  0.00  0.00     0.051 C 
HETATM    2  C   UNK N   1       0.796   0.907   0.422  0.00  0.00    -0.025 C 
HETATM    3  C   UNK N   1       2.081   1.231   0.160  0.00  0.00     0.066 C 
HETATM    4  C   UNK N   1       2.437   2.468  -0.491  0.00  0.00     0.064 C 
HETATM    5  C   UNK N   1       3.692   2.827  -0.560  0.00  0.00     0.070 C 
HETATM    6  C   UNK N   1       4.107   4.196  -0.410  0.00  0.00     0.000 C 
HETATM    7  C   UNK N   1       5.352   4.145   0.053  0.00  0.00    -0.021 C 
HETATM    8  C   UNK N   1       6.121   5.272   0.640  0.00  0.00     0.052 C 
HETATM    9  C   UNK N   1       5.775   2.756   0.041  0.00  0.00     0.066 C 
HETATM   10  N   UNK N   1       4.783   2.021  -0.244  0.00  0.00    -0.248 N 
HETATM   11 Fe   UNK N   1       4.809   0.154   0.108  0.00  0.00     0.000 Fe
HETATM   12  N   UNK N   1       6.683   0.086  -0.325  0.00  0.00    -0.248 N 
HETATM   13  C   UNK N   1       7.414  -0.991  -0.597  0.00  0.00     0.066 C 
HETATM   14  C   UNK N   1       7.005  -2.186  -0.625  0.00  0.00     0.064 C 
HETATM   15  C   UNK N   1       5.832  -2.511   0.078  0.00  0.00     0.066 A 
HETATM   16  N   UNK N   1       4.866  -1.749   0.457  0.00  0.00    -0.251 N 
HETATM   17  C   UNK N   1       3.881  -2.551   1.017  0.00  0.00     0.056 A 
HETATM   18  C   UNK N   1       4.422  -3.939   0.912  0.00  0.00    -0.024 A 
HETATM   19  C   UNK N   1       5.628  -3.855   0.395  0.00  0.00    -0.025 A 
HETATM   20  C   UNK N   1       6.555  -4.971  -0.018  0.00  0.00     0.051 C 
HETATM   21  C   UNK N   1       2.608  -2.118   1.220  0.00  0.00     0.123 C 
HETATM   22  C   UNK N   1       2.166  -0.701   1.095  0.00  0.00     0.056 C 
HETATM   23  N   UNK N   1       2.914   0.242   0.540  0.00  0.00    -0.251 N 
HETATM   24  C   UNK N   1       0.817  -0.278   1.121  0.00  0.00    -0.024 C 
HETATM   25  C   UNK N   1       8.713  -0.776  -0.374  0.00  0.00    -0.021 C 
HETATM   26  C   UNK N   1       9.770  -1.840  -0.365  0.00  0.00     0.052 C 
HETATM   27  C   UNK N   1       8.783   0.493   0.128  0.00  0.00     0.000 C 
HETATM   28  C   UNK N   1       7.515   1.044   0.033  0.00  0.00     0.070 C 
HETATM   29  C   UNK N   1       7.117   2.264   0.392  0.00  0.00     0.064 C 
ENDROOT
BRANCH  18  30
HETATM   30  C   UNK N   1       3.782  -5.234   1.012  0.00  0.00     0.051 C 
BRANCH  30  31
HETATM   31  C   UNK N   1       3.668  -5.578  -0.471  0.00  0.00     0.114 C 
BRANCH  31  32
HETATM   32  C   UNK N   1       3.157  -6.920  -0.604  0.00  0.00     0.139 C 
HETATM   33  O   UNK N   1       2.047  -7.176  -0.182  0.00  0.00    -0.650 OA
BRANCH  32  34
HETATM   34  O   UNK N   1       3.938  -7.884  -1.115  0.00  0.00    -0.776 OA
HETATM   35  H   UNK N   1       3.627  -8.692  -1.473  0.00  0.00     0.167 HD
ENDBRANCH  32  34
ENDBRANCH  31  32
ENDBRANCH  30  31
ENDBRANCH  18  30
BRANCH  21  36
HETATM   36  C   UNK N   1       1.708  -2.896   0.415  0.00  0.00    -0.042 A 
HETATM   37  C   UNK N   1       1.157  -4.126   0.711  0.00  0.00     0.008 A 
HETATM   38  C   UNK N   1       0.409  -4.763  -0.285  0.00  0.00     0.001 A 
HETATM   39  C   UNK N   1       0.235  -4.175  -1.551  0.00  0.00     0.000 A 
HETATM   40  C   UNK N   1       0.798  -2.946  -1.842  0.00  0.00     0.001 A 
HETATM   41  C   UNK N   1       1.533  -2.334  -0.876  0.00  0.00     0.008 A 
ENDBRANCH  21  36
BRANCH  24  42
HETATM   42  C   UNK N   1      -0.390  -1.055   1.597  0.00  0.00     0.051 C 
BRANCH  42  43
HETATM   43  C   UNK N   1      -1.727  -0.406   1.212  0.00  0.00     0.114 C 
BRANCH  43  44
HETATM   44  C   UNK N   1      -2.313  -1.048  -0.011  0.00  0.00     0.139 C 
HETATM   45  O   UNK N   1      -3.127  -0.445  -0.694  0.00  0.00    -0.650 OA
BRANCH  44  46
HETATM   46  O   UNK N   1      -1.985  -2.312  -0.328  0.00  0.00    -0.776 OA
HETATM   47  H   UNK N   1      -2.634  -2.951  -0.549  0.00  0.00     0.167 HD
ENDBRANCH  44  46
ENDBRANCH  43  44
ENDBRANCH  42  43
ENDBRANCH  24  42
BRANCH   6  48
HETATM   48  C   UNK N   1       3.273   5.385  -0.441  0.00  0.00     0.004 C 
HETATM   49  C   UNK N   1       2.783   5.797  -1.603  0.00  0.00     0.012 C 
ENDBRANCH   6  48
BRANCH  27  50
HETATM   50  C   UNK N   1       9.958   1.047   0.751  0.00  0.00     0.004 C 
HETATM   51  C   UNK N   1      10.134   2.353   0.765  0.00  0.00     0.012 C 
ENDBRANCH  27  50
TORSDOF 11
