REMARK  2 active torsions:
REMARK  status: ('A' for Active; 'I' for Inactive)
REMARK    1  A    between atoms: N_1  and  C_2 
REMARK    2  A    between atoms: C_3  and  N_4 
ROOT
HETATM    1  C   UNK N   1       1.809  -0.063   0.000  0.00  0.00     0.135 A 
HETATM    2  C   UNK N   1       0.615  -0.800   0.000  0.00  0.00     0.139 A 
HETATM    3  C   UNK N   1      -0.602  -0.108   0.000  0.00  0.00     0.279 A 
HETATM    4  O   UNK N   1      -1.658  -0.715  -0.000  0.00  0.00    -0.265 OA
HETATM    5  N   UNK N   1      -0.606   1.260   0.000  0.00  0.00    -0.273 N 
HETATM    6  C   UNK N   1       0.570   1.962   0.000  0.00  0.00     0.328 A 
HETATM    7  O   UNK N   1       0.551   3.178   0.000  0.00  0.00    -0.247 OA
HETATM    8  N   UNK N   1       1.766   1.294   0.000  0.00  0.00    -0.293 N 
HETATM    9  H   UNK N   1      -1.463   1.745   0.000  0.00  0.00     0.173 HD
HETATM   10  H   UNK N   1       2.607   1.806   0.000  0.00  0.00     0.172 HD
ENDROOT
BRANCH   1  11
HETATM   11  N   UNK N   1       3.058  -0.720  -0.000  0.00  0.00    -0.383 N 
HETATM   12  H   UNK N   1       3.097  -1.704  -0.000  0.00  0.00     0.157 HD
HETATM   13  H   UNK N   1       3.891  -0.194  -0.000  0.00  0.00     0.157 HD
ENDBRANCH   1  11
BRANCH   2  14
HETATM   14  N   UNK N   1       0.637  -2.213  -0.000  0.00  0.00    -0.392 N 
HETATM   15  H   UNK N   1      -0.208  -2.718  -0.000  0.00  0.00     0.156 HD
HETATM   16  H   UNK N   1       1.497  -2.692  -0.000  0.00  0.00     0.156 HD
ENDBRANCH   2  14
TORSDOF 2
