REMARK  2 active torsions:
REMARK  status: ('A' for Active; 'I' for Inactive)
REMARK    1  A    between atoms: O_1  and  C_2 
REMARK    2  A    between atoms: C_2  and  C_3 
ROOT
HETATM    1  C   UNK N   1       1.518  -0.233   0.000  0.00  0.00    -0.034 A 
HETATM    2  C   UNK N   1       0.349  -1.000   0.000  0.00  0.00     0.009 A 
HETATM    3  C   UNK N   1      -0.903  -0.379   0.000  0.00  0.00     0.002 A 
HETATM    4  C   UNK N   1      -0.992   1.015   0.000  0.00  0.00     0.018 A 
HETATM    5  C   UNK N   1       0.171   1.790  -0.000  0.00  0.00     0.007 A 
HETATM    6  I   UNK N   1       0.019   3.888  -0.000  0.00  0.00    -0.045 I 
HETATM    7  C   UNK N   1       1.426   1.169  -0.000  0.00  0.00     0.027 A 
ENDROOT
BRANCH   1   8
HETATM    8  C   UNK N   1       2.842  -0.937  -0.000  0.00  0.00     0.202 C 
BRANCH   8   9
HETATM    9  O   UNK N   1       3.912  -0.039  -0.000  0.00  0.00    -0.396 OA
HETATM   10  H   UNK N   1       4.823  -0.371  -0.000  0.00  0.00     0.209 HD
ENDBRANCH   8   9
ENDBRANCH   1   8
TORSDOF 2
