REMARK  0 active torsions:
REMARK  status: ('A' for Active; 'I' for Inactive)
ROOT
HETATM    1  I   UNK N   1       3.748   1.704  -0.000  0.00  0.00    -0.037 I 
HETATM    2  C   UNK N   1       1.810   0.866  -0.000  0.00  0.00     0.089 A 
HETATM    3  C   UNK N   1       1.680  -0.521   0.000  0.00  0.00     0.116 A 
HETATM    4  N   UNK N   1       0.450  -1.094   0.000  0.00  0.00    -0.317 N 
HETATM    5  C   UNK N   1      -0.682  -0.323   0.000  0.00  0.00     0.327 A 
HETATM    6  O   UNK N   1      -1.777  -0.852   0.000  0.00  0.00    -0.247 OA
HETATM    7  N   UNK N   1      -0.580   1.044   0.000  0.00  0.00    -0.274 N 
HETATM    8  C   UNK N   1       0.649   1.650  -0.000  0.00  0.00     0.267 A 
HETATM    9  O   UNK N   1       0.723   2.866  -0.000  0.00  0.00    -0.267 OA
HETATM   10  H   UNK N   1       0.370  -2.075   0.000  0.00  0.00     0.170 HD
HETATM   11  H   UNK N   1      -1.396   1.594   0.000  0.00  0.00     0.173 HD
ENDROOT
TORSDOF 0
