REMARK  12 active torsions:
REMARK  status: ('A' for Active; 'I' for Inactive)
REMARK    1  A    between atoms: C_23  and  C_6 
REMARK    2  A    between atoms: C_13  and  C_11 
REMARK    3  A    between atoms: C_28  and  C_11 
REMARK    4  A    between atoms: C_30  and  C_13 
REMARK    5  A    between atoms: C_25  and  C_20 
REMARK    6  A    between atoms: N_38  and  C_20 
REMARK    7  A    between atoms: C_32  and  C_21 
REMARK    8  A    between atoms: O_39  and  C_21 
REMARK    9  A    between atoms: C_37  and  C_23 
REMARK   10  A    between atoms: O_43  and  C_33 
REMARK   11  A    between atoms: C_34  and  O_44 
REMARK   12  A    between atoms: O_44  and  C_37 
ROOT
HETATM    1  C   UNK N   1      -3.785  -1.713   1.114  0.00  0.00     0.057 C 
HETATM    2  C   UNK N   1      -5.276  -3.635   0.691  0.00  0.00     0.134 C 
HETATM    3  C   UNK N   1      -4.840  -0.723   0.646  0.00  0.00     0.089 C 
HETATM    4  C   UNK N   1      -3.931  -3.019   0.358  0.00  0.00     0.128 C 
HETATM    5  C   UNK N   1      -6.385  -2.642   0.968  0.00  0.00     0.222 C 
HETATM    6  N   UNK N   1      -6.177  -1.276   0.907  0.00  0.00    -0.343 N 
HETATM    7  O   UNK N   1      -3.810  -2.809  -1.019  0.00  0.00    -0.395 OA
HETATM    8  O   UNK N   1      -7.468  -3.094   1.287  0.00  0.00    -0.273 OA
HETATM    9  H   UNK N   1      -3.642  -2.808  -1.975  0.00  0.00     0.210 HD
ENDROOT
BRANCH   3  10
HETATM   10  C   UNK N   1      -4.531   0.613   1.363  0.00  0.00     0.026 C 
BRANCH  10  11
HETATM   11  C   UNK N   1      -5.535   1.645   0.915  0.00  0.00     0.008 C 
BRANCH  11  12
HETATM   12  C   UNK N   1      -5.223   3.003   0.330  0.00  0.00     0.004 C 
HETATM   13  C   UNK N   1      -6.594   3.434  -0.316  0.00  0.00     0.009 C 
HETATM   14  C   UNK N   1      -7.631   3.732   0.761  0.00  0.00     0.014 C 
HETATM   15  C   UNK N   1      -6.523   4.617  -1.259  0.00  0.00    -0.022 C 
HETATM   16  C   UNK N   1      -5.363   5.191  -1.585  0.00  0.00     0.004 C 
HETATM   17  C   UNK N   1      -4.124   4.601  -1.077  0.00  0.00    -0.055 C 
HETATM   18  C   UNK N   1      -3.201   5.453  -0.594  0.00  0.00    -0.015 C 
HETATM   19  C   UNK N   1      -4.107   3.105  -0.753  0.00  0.00     0.052 C 
HETATM   20  C   UNK N   1      -2.056   5.028   0.293  0.00  0.00     0.007 C 
HETATM   21  C   UNK N   1      -0.740   5.302  -0.406  0.00  0.00     0.014 C 
HETATM   22  C   UNK N   1      -2.139   3.562   0.719  0.00  0.00     0.041 C 
HETATM   23  C   UNK N   1      -2.626   2.708  -0.446  0.00  0.00     0.141 C 
BRANCH  23  24
HETATM   24  O   UNK N   1      -2.388   1.357  -0.228  0.00  0.00    -0.315 OA
BRANCH  24  25
HETATM   25  C   UNK N   1      -1.124   0.867  -0.002  0.00  0.00     0.263 C 
HETATM   26  O   UNK N   1      -0.167   1.627   0.069  0.00  0.00    -0.265 OA
BRANCH  25  27
HETATM   27  C   UNK N   1      -0.907  -0.597   0.244  0.00  0.00     0.081 C 
HETATM   28  C   UNK N   1      -0.632  -0.803   1.728  0.00  0.00     0.020 C 
BRANCH  27  29
HETATM   29  C   UNK N   1       0.234  -1.166  -0.593  0.00  0.00     0.010 C 
HETATM   30  C   UNK N   1       0.374  -2.669  -0.378  0.00  0.00     0.006 C 
ENDBRANCH  27  29
ENDBRANCH  25  27
ENDBRANCH  24  25
ENDBRANCH  23  24
ENDBRANCH  11  12
ENDBRANCH  10  11
ENDBRANCH   3  10
BRANCH   6  31
HETATM   31  C   UNK N   1      -7.274  -0.359   1.214  0.00  0.00     0.164 C 
BRANCH  31  32
HETATM   32  C   UNK N   1      -8.503  -0.462   0.371  0.00  0.00    -0.039 C 
HETATM   33  C   UNK N   1      -8.683  -1.525  -0.515  0.00  0.00     0.010 C 
HETATM   34  C   UNK N   1      -9.956  -1.865  -0.938  0.00  0.00     0.013 C 
HETATM   35  C   UNK N   1     -11.064  -1.133  -0.495  0.00  0.00    -0.015 A 
HETATM   36  C   UNK N   1     -10.860   0.043   0.258  0.00  0.00    -0.025 A 
HETATM   37  C   UNK N   1     -12.370  -1.601  -0.729  0.00  0.00     0.010 A 
HETATM   38  C   UNK N   1     -11.944   0.808   0.671  0.00  0.00     0.015 A 
HETATM   39  C   UNK N   1      -9.580   0.360   0.705  0.00  0.00     0.021 C 
HETATM   40  C   UNK N   1     -13.240   0.375   0.402  0.00  0.00     0.038 A 
HETATM   41  C   UNK N   1     -13.478  -0.844  -0.245  0.00  0.00     0.077 A 
BRANCH  41  42
HETATM   42  O   UNK N   1     -14.772  -1.248  -0.340  0.00  0.00    -0.355 OA
HETATM   43  C   UNK N   1     -15.199  -2.528  -0.611  0.00  0.00     0.210 C 
ENDBRANCH  41  42
BRANCH  37  44
HETATM   44  C   UNK N   1     -12.549  -2.929  -1.409  0.00  0.00     0.206 C 
BRANCH  44  45
HETATM   45  O   UNK N   1     -12.006  -3.940  -0.607  0.00  0.00    -0.396 OA
HETATM   46  H   UNK N   1     -12.424  -4.616  -0.051  0.00  0.00     0.209 HD
ENDBRANCH  44  45
ENDBRANCH  37  44
ENDBRANCH  31  32
ENDBRANCH   6  31
TORSDOF 12
