REMARK  9 active torsions:
REMARK  status: ('A' for Active; 'I' for Inactive)
REMARK    1  A    between atoms: O_1  and  C_2 
REMARK    2  A    between atoms: C_2  and  C_3 
REMARK    3  A    between atoms: C_3  and  N_4 
REMARK    4  A    between atoms: N_4  and  C_5 
REMARK    5  A    between atoms: N_4  and  C_8 
REMARK    6  A    between atoms: C_5  and  C_6 
REMARK    7  A    between atoms: C_6  and  O_7 
REMARK    8  A    between atoms: C_8  and  C_9 
REMARK    9  A    between atoms: C_9  and  O_10 
ROOT
HETATM    1  N   UNK N   1       0.649  -2.897  -0.058  0.00  0.00     0.102 N 
ENDROOT
BRANCH   1   2
HETATM    2  C   UNK N   1       0.723  -4.322   0.236  0.00  0.00     0.299 C 
BRANCH   2   3
HETATM    3  C   UNK N   1       1.901  -4.972  -0.470  0.00  0.00     0.194 C 
BRANCH   3   4
HETATM    4  O   UNK N   1       1.982  -6.312  -0.093  0.00  0.00    -0.399 OA
HETATM    5  H   UNK N   1       1.202  -6.826   0.170  0.00  0.00     0.209 HD
ENDBRANCH   3   4
ENDBRANCH   2   3
ENDBRANCH   1   2
BRANCH   1   6
HETATM    6  C   UNK N   1      -0.621  -2.447   0.492  0.00  0.00     0.299 C 
BRANCH   6   7
HETATM    7  C   UNK N   1      -1.380  -1.635  -0.538  0.00  0.00     0.194 C 
BRANCH   7   8
HETATM    8  O   UNK N   1      -1.689  -0.385  -0.004  0.00  0.00    -0.399 OA
HETATM    9  H   UNK N   1      -1.043   0.236   0.368  0.00  0.00     0.209 HD
ENDBRANCH   7   8
ENDBRANCH   6   7
ENDBRANCH   1   6
BRANCH   1  10
HETATM   10  C   UNK N   1       1.706  -2.236   0.705  0.00  0.00     0.381 C 
BRANCH  10  11
HETATM   11  C   UNK N   1       2.103  -0.937   0.075  0.00  0.00     0.169 C 
HETATM   12  O   UNK N   1       3.248  -0.776  -0.312  0.00  0.00    -0.649 OA
BRANCH  11  13
HETATM   13  O   UNK N   1       1.214   0.067  -0.034  0.00  0.00    -0.775 OA
HETATM   14  H   UNK N   1       1.510   0.953  -0.111  0.00  0.00     0.167 HD
ENDBRANCH  11  13
ENDBRANCH  10  11
ENDBRANCH   1  10
TORSDOF 9
