REMARK  2 active torsions:
REMARK  status: ('A' for Active; 'I' for Inactive)
REMARK    1  A    between atoms: N_2  and  C_3 
REMARK    2  A    between atoms: C_4  and  N_12 
REMARK       I    between atoms: C_8  and  N_9 
ROOT
HETATM    1  C   UNK N   1       1.767   0.365   0.000  0.00  0.00     0.155 A 
HETATM    2  C   UNK N   1       0.587  -0.492  -0.000  0.00  0.00     0.214 A 
HETATM    3  C   UNK N   1      -0.679   0.178  -0.000  0.00  0.00     0.296 A 
HETATM    4  O   UNK N   1      -1.724  -0.451  -0.001  0.00  0.00    -0.265 OA
HETATM    5  N   UNK N   1      -0.749   1.540  -0.000  0.00  0.00    -0.154 N 
HETATM    6  C   UNK N   1       0.363   2.296   0.000  0.00  0.00     0.680 A 
HETATM    7  N   UNK N   1       0.261   3.700   0.000  0.00  0.00    -0.234 N 
HETATM    8  N   UNK N   1       1.577   1.711   0.000  0.00  0.00    -0.174 N 
ATOM      9  HN  UNK N   1       2.400   2.312   0.001  1.00  0.00     0.186 HD
HETATM   10  H   UNK N   1      -1.631   1.978  -0.000  0.00  0.00     0.187 HD
HETATM   11  H   UNK N   1       1.076   4.253   0.000  0.00  0.00     0.174 HD
HETATM   12  H   UNK N   1      -0.624   4.129   0.000  0.00  0.00     0.174 HD
ENDROOT
BRANCH   1  13
HETATM   13  N   UNK N   1       3.145  -0.029   0.000  0.00  0.00    -0.378 N 
HETATM   14  C   UNK N   1       3.808  -1.301  -0.001  0.00  0.00     0.147 C 
HETATM   15  H   UNK N   1       3.767   0.734   0.002  0.00  0.00     0.160 HD
ENDBRANCH   1  13
BRANCH   2  16
HETATM   16  N   UNK N   1       0.598  -1.943  -0.000  0.00  0.00    -0.106 N 
HETATM   17  O   UNK N   1       1.707  -2.633   0.000  0.00  0.00    -0.531 OA
HETATM   18  O   UNK N   1      -0.431  -2.551  -0.000  0.00  0.00    -0.531 OA
ENDBRANCH   2  16
TORSDOF 2
