REMARK  6 active torsions:
REMARK  status: ('A' for Active; 'I' for Inactive)
REMARK    1  A    between atoms: N_2  and  C_4 
REMARK    2  A    between atoms: C_8  and  C_21 
REMARK    3  A    between atoms: C_12  and  N_18 
REMARK    4  A    between atoms: C_24  and  N_30 
REMARK    5  A    between atoms: C_26  and  C_27 
REMARK    6  A    between atoms: C_27  and  O_28 
ROOT
HETATM    1  C   UNK N   1      -0.117  -3.774   0.129  0.00  0.00     0.028 C 
HETATM    2  C   UNK N   1      -0.168  -2.448  -0.090  0.00  0.00     0.007 C 
HETATM    3  C   UNK N   1       1.037  -1.642  -0.496  0.00  0.00     0.072 C 
HETATM    4  C   UNK N   1       2.359  -2.345  -0.255  0.00  0.00    -0.009 C 
HETATM    5  C   UNK N   1       3.561  -1.681  -0.104  0.00  0.00    -0.003 C 
HETATM    6  C   UNK N   1       4.765  -2.559   0.174  0.00  0.00     0.010 C 
HETATM    7  C   UNK N   1       5.972  -2.042   0.652  0.00  0.00     0.017 C 
HETATM    8  C   UNK N   1       7.110  -2.835   0.756  0.00  0.00     0.030 C 
HETATM    9  C   UNK N   1       7.061  -4.190   0.413  0.00  0.00     0.032 C 
HETATM   10  C   UNK N   1       5.821  -4.757   0.077  0.00  0.00     0.067 C 
HETATM   11  C   UNK N   1       4.675  -3.957  -0.015  0.00  0.00     0.089 C 
HETATM   12  O   UNK N   1       3.483  -4.542  -0.255  0.00  0.00    -0.309 OA
HETATM   13  C   UNK N   1       2.330  -3.838  -0.202  0.00  0.00     0.085 C 
HETATM   14  C   UNK N   1       1.173  -4.493  -0.035  0.00  0.00     0.066 C 
ENDROOT
BRANCH   5  15
HETATM   15  C   UNK N   1       3.650  -0.133  -0.159  0.00  0.00    -0.007 A 
HETATM   16  C   UNK N   1       2.470   0.589   0.115  0.00  0.00     0.015 A 
HETATM   17  C   UNK N   1       2.419   1.979   0.159  0.00  0.00     0.031 A 
HETATM   18  C   UNK N   1       3.575   2.731  -0.029  0.00  0.00     0.047 A 
HETATM   19  C   UNK N   1       4.757   2.058  -0.317  0.00  0.00     0.049 A 
HETATM   20  C   UNK N   1       4.833   0.664  -0.427  0.00  0.00     0.051 A 
BRANCH  18  21
HETATM   21  N   UNK N   1       3.558   4.166   0.055  0.00  0.00    -0.245 N 
HETATM   22  C   UNK N   1       2.473   4.951   0.208  0.00  0.00     0.255 A 
HETATM   23  O   UNK N   1       1.324   4.545   0.279  0.00  0.00    -0.268 OA
HETATM   24  C   UNK N   1       2.874   6.365   0.263  0.00  0.00     0.080 A 
HETATM   25  C   UNK N   1       4.211   6.384   0.137  0.00  0.00     0.080 A 
HETATM   26  C   UNK N   1       4.631   4.982   0.003  0.00  0.00     0.255 A 
HETATM   27  O   UNK N   1       5.786   4.608  -0.124  0.00  0.00    -0.268 OA
ENDBRANCH  18  21
BRANCH  20  28
HETATM   28  C   UNK N   1       6.147   0.189  -0.923  0.00  0.00     0.177 C 
HETATM   29  O   UNK N   1       6.228  -0.801  -1.631  0.00  0.00    -0.646 OA
BRANCH  28  30
HETATM   30  O   UNK N   1       7.254   0.927  -0.695  0.00  0.00    -0.773 OA
HETATM   31  H   UNK N   1       8.082   0.518  -0.536  0.00  0.00     0.167 HD
ENDBRANCH  28  30
ENDBRANCH  20  28
ENDBRANCH   5  15
BRANCH   1  32
HETATM   32  N   UNK N   1      -1.282  -4.476   0.577  0.00  0.00    -0.390 N 
HETATM   33  C   UNK N   1      -1.215  -5.880   0.894  0.00  0.00     0.149 C 
HETATM   34  C   UNK N   1      -2.521  -3.780   0.826  0.00  0.00     0.149 C 
ENDBRANCH   1  32
BRANCH   9  35
HETATM   35  N   UNK N   1       8.259  -4.965   0.376  0.00  0.00    -0.389 N 
HETATM   36  C   UNK N   1       8.239  -6.332  -0.081  0.00  0.00     0.149 C 
HETATM   37  C   UNK N   1       9.537  -4.355   0.648  0.00  0.00     0.149 C 
ENDBRANCH   9  35
TORSDOF 6
