REMARK  8 active torsions:
REMARK  status: ('A' for Active; 'I' for Inactive)
REMARK    1  A    between atoms: N_2  and  C_3 
REMARK    2  A    between atoms: N_2  and  C_6 
REMARK    3  A    between atoms: C_3  and  C_4 
REMARK    4  A    between atoms: C_6  and  C_7 
REMARK    5  A    between atoms: C_8  and  C_9 
REMARK    6  A    between atoms: C_9  and  O_10 
REMARK    7  A    between atoms: O_10  and  C_11 
REMARK    8  A    between atoms: C_17  and  C_20 
ROOT
HETATM    1  C   UNK N   1       3.551  -3.476  -0.395  0.00  0.00     0.071 A 
HETATM    2  C   UNK N   1       3.547  -2.076  -0.197  0.00  0.00     0.074 A 
HETATM    3  C   UNK N   1       4.772  -1.444  -0.022  0.00  0.00     0.088 A 
HETATM    4  C   UNK N   1       5.946  -2.134  -0.020  0.00  0.00     0.011 A 
HETATM    5  C   UNK N   1       5.986  -3.517  -0.184  0.00  0.00     0.018 A 
HETATM    6  C   UNK N   1       4.776  -4.187  -0.378  0.00  0.00     0.038 A 
HETATM    7  C   UNK N   1       6.954  -1.217   0.128  0.00  0.00     0.009 A 
HETATM    8  C   UNK N   1       6.322   0.028   0.215  0.00  0.00     0.155 A 
HETATM    9  O   UNK N   1       5.014  -0.157   0.124  0.00  0.00    -0.321 OA
ENDROOT
BRANCH   1  10
HETATM   10  O   UNK N   1       2.386  -4.114  -0.634  0.00  0.00    -0.347 OA
BRANCH  10  11
HETATM   11  C   UNK N   1       2.320  -5.377  -1.191  0.00  0.00     0.203 C 
BRANCH  11  12
HETATM   12  C   UNK N   1       2.308  -6.463  -0.155  0.00  0.00    -0.003 C 
HETATM   13  C   UNK N   1       1.399  -6.589   0.827  0.00  0.00     0.001 C 
BRANCH  13  14
HETATM   14  C   UNK N   1       0.267  -5.638   1.132  0.00  0.00     0.299 C 
BRANCH  14  15
HETATM   15  N   UNK N   1      -0.227  -4.938  -0.047  0.00  0.00     0.090 N 
HETATM   16  C   UNK N   1      -0.465  -3.545   0.309  0.00  0.00     0.310 C 
BRANCH  15  17
HETATM   17  C   UNK N   1      -1.449  -5.558  -0.567  0.00  0.00     0.299 C 
BRANCH  17  18
HETATM   18  C   UNK N   1      -2.608  -5.471   0.384  0.00  0.00    -0.007 C 
HETATM   19  C   UNK N   1      -3.810  -5.886   0.001  0.00  0.00     0.008 C 
ENDBRANCH  17  18
ENDBRANCH  15  17
ENDBRANCH  14  15
ENDBRANCH  13  14
ENDBRANCH  11  12
ENDBRANCH  10  11
ENDBRANCH   1  10
BRANCH   7  20
HETATM   20  C   UNK N   1       8.404  -1.497   0.141  0.00  0.00    -0.023 A 
HETATM   21  C   UNK N   1       9.341  -0.455   0.165  0.00  0.00     0.013 A 
HETATM   22  C   UNK N   1      10.711  -0.743   0.130  0.00  0.00     0.020 A 
HETATM   23  C   UNK N   1      11.148  -2.072   0.075  0.00  0.00     0.011 A 
HETATM   24 Br   UNK N   1      13.007  -2.475   0.009  0.00  0.00    -0.051 Br
HETATM   25  C   UNK N   1      10.220  -3.111   0.061  0.00  0.00     0.020 A 
HETATM   26  C   UNK N   1       8.857  -2.824   0.090  0.00  0.00     0.013 A 
ENDBRANCH   7  20
TORSDOF 8
