REMARK  5 active torsions:
REMARK  status: ('A' for Active; 'I' for Inactive)
REMARK       I    between atoms: N_15  and  C_1 
REMARK    1  A    between atoms: C_7  and  O_16 
REMARK    2  A    between atoms: C_24  and  S_10 
REMARK    3  A    between atoms: S_10  and  N_11 
REMARK       I    between atoms: N_11  and  C_14 
REMARK       I    between atoms: C_14  and  N_15 
REMARK    4  A    between atoms: C_25  and  C_20 
REMARK    5  A    between atoms: C_20  and  O_21 
ROOT
HETATM    1  C   UNK N   1      18.849 -12.197  -0.439  0.00  0.00     0.692 A 
HETATM    2  N   UNK N   1      19.008 -13.492  -0.053  0.00  0.00    -0.180 N 
ATOM      3  HN  UNK N   1      18.197 -14.108   0.000  1.00  0.00     0.185 HD
HETATM    4  C   UNK N   1      20.239 -13.967   0.260  0.00  0.00     0.096 A 
HETATM    5  N   UNK N   1      21.315 -13.142   0.222  0.00  0.00    -0.311 N 
ATOM      6  HN  UNK N   1      22.238 -13.496   0.472  1.00  0.00     0.170 HD
HETATM    7  C   UNK N   1      21.164 -11.842  -0.150  0.00  0.00     0.238 A 
HETATM    8  N   UNK N   1      19.936 -11.381  -0.494  0.00  0.00    -0.154 N 
ATOM      9  HN  UNK N   1      19.827 -10.413  -0.797  1.00  0.00     0.188 HD
HETATM   10  N   UNK N   1      15.205 -11.659  -0.540  0.00  0.00    -0.231 N 
HETATM   11  C   UNK N   1      16.395 -12.274  -0.329  0.00  0.00     0.350 C 
HETATM   12  N   UNK N   1      17.553 -11.669  -0.745  0.00  0.00    -0.136 N 
HETATM   13  O   UNK N   1      16.430 -13.318   0.307  0.00  0.00    -0.245 OA
HETATM   14  C   UNK N   1      20.408 -15.391   0.649  0.00  0.00     0.089 C 
HETATM   15  C   UNK N   1      17.477 -10.382  -1.401  0.00  0.00     0.180 C 
HETATM   16  H   UNK N   1      15.164 -10.914  -1.184  0.00  0.00     0.183 HD
ENDROOT
BRANCH  10  17
HETATM   17  S   UNK N   1      13.731 -12.138   0.290  0.00  0.00     0.267 S 
HETATM   18  O   UNK N   1      13.514 -13.615  -0.077  0.00  0.00    -0.200 OA
HETATM   19  O   UNK N   1      14.137 -12.232   1.769  0.00  0.00    -0.200 OA
BRANCH  17  20
HETATM   20  C   UNK N   1      12.250 -11.129   0.093  0.00  0.00     0.096 A 
HETATM   21  C   UNK N   1      12.247  -9.700   0.036  0.00  0.00     0.062 A 
HETATM   22  C   UNK N   1      11.018  -9.041  -0.140  0.00  0.00     0.019 A 
HETATM   23  C   UNK N   1       9.822  -9.749  -0.236  0.00  0.00     0.001 A 
HETATM   24  C   UNK N   1       9.830 -11.138  -0.163  0.00  0.00     0.002 A 
HETATM   25  C   UNK N   1      11.035 -11.819  -0.006  0.00  0.00     0.026 A 
BRANCH  21  26
HETATM   26  C   UNK N   1      13.460  -8.839   0.169  0.00  0.00     0.294 C 
HETATM   27  O   UNK N   1      13.358  -7.633  -0.020  0.00  0.00    -0.259 OA
BRANCH  26  28
HETATM   28  O   UNK N   1      14.652  -9.356   0.543  0.00  0.00    -0.322 OA
HETATM   29  C   UNK N   1      15.774  -8.579   0.718  0.00  0.00     0.213 C 
ENDBRANCH  26  28
ENDBRANCH  21  26
ENDBRANCH  17  20
ENDBRANCH  10  17
BRANCH   7  30
HETATM   30  O   UNK N   1      22.219 -10.998  -0.169  0.00  0.00    -0.327 OA
HETATM   31  C   UNK N   1      23.483 -11.387   0.208  0.00  0.00     0.213 C 
ENDBRANCH   7  30
TORSDOF 5
