REMARK  1 active torsions:
REMARK  status: ('A' for Active; 'I' for Inactive)
REMARK    1  A    between atoms: O_1  and  C_2 
ROOT
HETATM    1  C   UNK N   1       0.697   1.652   0.000  0.00  0.00     0.118 A 
HETATM    2  C   UNK N   1       2.034   0.949  -0.000  0.00  0.00     0.032 A 
HETATM    3  C   UNK N   1       1.995  -0.572   0.000  0.00  0.00     0.002 A 
HETATM    4  C   UNK N   1       0.649  -1.301  -0.000  0.00  0.00     0.000 A 
HETATM    5  C   UNK N   1      -0.673  -0.529   0.000  0.00  0.00     0.002 A 
HETATM    6  C   UNK N   1      -0.665   0.994  -0.000  0.00  0.00     0.032 A 
ENDROOT
BRANCH   1   7
HETATM    7  O   UNK N   1       0.727   3.046  -0.000  0.00  0.00    -0.396 OA
HETATM    8  H   UNK N   1       1.578   3.513  -0.000  0.00  0.00     0.210 HD
ENDBRANCH   1   7
TORSDOF 1
