REMARK  4 active torsions:
REMARK  status: ('A' for Active; 'I' for Inactive)
REMARK    1  A    between atoms: C_4  and  O_8 
REMARK    2  A    between atoms: C_5  and  O_9 
REMARK    3  A    between atoms: C_6  and  O_11 
REMARK    4  A    between atoms: C_7  and  O_10 
ROOT
HETATM    1  C   UNK N   1       3.303   1.651  -0.344  0.00  0.00     0.042 C 
HETATM    2  C   UNK N   1       1.941   0.991  -0.486  0.00  0.00     0.152 C 
HETATM    3  C   UNK N   1       0.894   1.799   0.298  0.00  0.00     0.178 C 
HETATM    4  C   UNK N   1      -0.508   1.178   0.138  0.00  0.00     0.183 C 
HETATM    5  C   UNK N   1      -0.425  -0.320  -0.230  0.00  0.00     0.207 C 
HETATM    6  C   UNK N   1       0.825  -0.959   0.418  0.00  0.00     0.288 C 
HETATM    7  O   UNK N   1       2.053  -0.342   0.012  0.00  0.00    -0.351 OA
ENDROOT
BRANCH   3   8
HETATM    8  O   UNK N   1       0.869   3.142  -0.088  0.00  0.00    -0.390 OA
HETATM    9  H   UNK N   1       1.667   3.624  -0.356  0.00  0.00     0.210 HD
ENDBRANCH   3   8
BRANCH   4  10
HETATM   10  O   UNK N   1      -1.213   1.374   1.330  0.00  0.00    -0.390 OA
HETATM   11  H   UNK N   1      -1.340   1.865   2.157  0.00  0.00     0.210 HD
ENDBRANCH   4  10
BRANCH   5  12
HETATM   12  O   UNK N   1      -1.625  -0.964   0.159  0.00  0.00    -0.383 OA
HETATM   13  C   UNK N   1      -1.866  -2.052  -0.695  0.00  0.00     0.202 C 
ENDBRANCH   5  12
BRANCH   6  14
HETATM   14  O   UNK N   1       0.890  -2.307   0.064  0.00  0.00    -0.369 OA
HETATM   15  H   UNK N   1       0.101  -2.815  -0.182  0.00  0.00     0.212 HD
ENDBRANCH   6  14
TORSDOF 4
