REMARK  5 active torsions:
REMARK  status: ('A' for Active; 'I' for Inactive)
REMARK    1  A    between atoms: C_3  and  O_8 
REMARK    2  A    between atoms: C_5  and  O_10 
REMARK    3  A    between atoms: C_6  and  C_7 
REMARK    4  A    between atoms: C_6  and  O_11 
REMARK    5  A    between atoms: C_7  and  O_13 
ROOT
HETATM    1  C   UNK N   1      14.287 -12.974   0.750  0.00  0.00     0.084 C 
HETATM    2  C   UNK N   1      12.458 -11.896  -0.692  0.00  0.00     0.130 C 
HETATM    3  C   UNK N   1      15.120 -11.934  -0.003  0.00  0.00     0.157 C 
HETATM    4  C   UNK N   1      13.045 -10.595  -0.219  0.00  0.00     0.161 C 
HETATM    5  C   UNK N   1      14.495 -10.550   0.184  0.00  0.00     0.216 C 
HETATM    6  C   UNK N   1      12.802 -13.023   0.303  0.00  0.00     0.151 C 
HETATM    7  O   UNK N   1      12.343  -9.602  -0.116  0.00  0.00    -0.295 OA
ENDROOT
BRANCH   6   8
HETATM    8  C   UNK N   1      12.484 -14.356  -0.330  0.00  0.00     0.176 C 
HETATM    9  O   UNK N   1      13.357 -15.200  -0.485  0.00  0.00    -0.648 OA
BRANCH   8  10
HETATM   10  O   UNK N   1      11.225 -14.633  -0.718  0.00  0.00    -0.774 OA
HETATM   11  H   UNK N   1      10.620 -13.970  -0.988  0.00  0.00     0.167 HD
ENDBRANCH   8  10
ENDBRANCH   6   8
BRANCH   6  12
HETATM   12  O   UNK N   1      12.005 -12.874   1.440  0.00  0.00    -0.378 OA
HETATM   13  H   UNK N   1      11.818 -12.343   2.230  0.00  0.00     0.211 HD
ENDBRANCH   6  12
BRANCH   3  14
HETATM   14  O   UNK N   1      16.433 -11.947   0.466  0.00  0.00    -0.392 OA
HETATM   15  H   UNK N   1      16.882 -12.743   0.793  0.00  0.00     0.210 HD
ENDBRANCH   3  14
BRANCH   5  16
HETATM   16  O   UNK N   1      15.183  -9.607  -0.580  0.00  0.00    -0.385 OA
HETATM   17  H   UNK N   1      15.990  -9.693  -1.111  0.00  0.00     0.210 HD
ENDBRANCH   5  16
TORSDOF 5
