REMARK  0 active torsions:
REMARK  status: ('A' for Active; 'I' for Inactive)
ROOT
HETATM    1  C   UNK N   1       3.225   1.548   0.000  0.00  0.00     0.056 C 
HETATM    2  C   UNK N   1       1.875   0.916  -0.000  0.00  0.00     0.022 A 
HETATM    3  C   UNK N   1       1.773  -0.473  -0.000  0.00  0.00     0.105 A 
HETATM    4  N   UNK N   1       0.554  -1.068  -0.000  0.00  0.00    -0.318 N 
HETATM    5  C   UNK N   1      -0.593  -0.318  -0.000  0.00  0.00     0.326 A 
HETATM    6  O   UNK N   1      -1.678  -0.868   0.000  0.00  0.00    -0.247 OA
HETATM    7  N   UNK N   1      -0.517   1.050   0.000  0.00  0.00    -0.275 N 
HETATM    8  C   UNK N   1       0.699   1.681   0.000  0.00  0.00     0.256 A 
HETATM    9  O   UNK N   1       0.748   2.899   0.000  0.00  0.00    -0.267 OA
HETATM   10  H   UNK N   1       0.492  -2.050  -0.000  0.00  0.00     0.170 HD
HETATM   11  H   UNK N   1      -1.344   1.584   0.000  0.00  0.00     0.173 HD
ENDROOT
TORSDOF 0
