REMARK  10 active torsions:
REMARK  status: ('A' for Active; 'I' for Inactive)
REMARK    1  A    between atoms: C_2  and  C_1 
REMARK    2  A    between atoms: O_17  and  C_1 
REMARK    3  A    between atoms: C_3  and  N_7 
REMARK    4  A    between atoms: C_4  and  O_8 
REMARK    5  A    between atoms: C_5  and  O_9 
REMARK    6  A    between atoms: C_6  and  O_10 
REMARK    7  A    between atoms: S_19  and  N_7 
REMARK    8  A    between atoms: S_19  and  O_11 
REMARK    9  A    between atoms: S_20  and  O_14 
REMARK   10  A    between atoms: S_20  and  O_17 
ROOT
HETATM    1  C   UNK N   1       1.796   1.425  -0.472  0.00  0.00     0.181 C 
HETATM    2  C   UNK N   1      -0.338  -0.175  -0.078  0.00  0.00     0.180 C 
HETATM    3  C   UNK N   1       0.588   2.172   0.160  0.00  0.00     0.180 C 
HETATM    4  C   UNK N   1      -0.524   1.188   0.592  0.00  0.00     0.177 C 
HETATM    5  C   UNK N   1       1.081  -0.696   0.332  0.00  0.00     0.283 C 
HETATM    6  O   UNK N   1       2.139   0.261   0.251  0.00  0.00    -0.349 OA
ENDROOT
BRANCH   1   7
HETATM    7  C   UNK N   1       3.023   2.327  -0.606  0.00  0.00     0.226 C 
BRANCH   7   8
HETATM    8  O   UNK N   1       3.619   2.551   0.672  0.00  0.00    -0.261 OA
BRANCH   8   9
HETATM    9  S   UNK N   1       5.358   2.211   0.847  0.00  0.00     0.240 S 
HETATM   10  O   UNK N   1       4.943   0.914   0.129  0.00  0.00    -0.579 OA
HETATM   11  O   UNK N   1       5.304   3.401  -0.126  0.00  0.00    -0.579 OA
BRANCH   9  12
HETATM   12  O   UNK N   1       6.361   1.985  -0.527  0.00  0.00    -0.274 OA
HETATM   13  H   UNK N   1       6.535   1.430  -1.303  0.00  0.00     0.234 HD
ENDBRANCH   9  12
ENDBRANCH   8   9
ENDBRANCH   7   8
ENDBRANCH   1   7
BRANCH   3  14
HETATM   14  O   UNK N   1       0.965   2.929   1.274  0.00  0.00    -0.390 OA
HETATM   15  H   UNK N   1       1.551   2.964   2.046  0.00  0.00     0.210 HD
ENDBRANCH   3  14
BRANCH   4  16
HETATM   16  O   UNK N   1      -1.783   1.728   0.317  0.00  0.00    -0.391 OA
HETATM   17  H   UNK N   1      -1.895   2.672   0.126  0.00  0.00     0.210 HD
ENDBRANCH   4  16
BRANCH   5  18
HETATM   18  O   UNK N   1       1.037  -1.138   1.657  0.00  0.00    -0.369 OA
HETATM   19  H   UNK N   1       0.756  -1.265   2.577  0.00  0.00     0.212 HD
ENDBRANCH   5  18
BRANCH   2  20
HETATM   20  N   UNK N   1      -1.393  -1.091   0.380  0.00  0.00    -0.296 N 
HETATM   21  H   UNK N   1      -2.026  -0.897   1.155  0.00  0.00     0.174 HD
BRANCH  20  22
HETATM   22  S   UNK N   1      -1.422  -2.575  -0.589  0.00  0.00     0.195 S 
HETATM   23  O   UNK N   1      -0.972  -2.997   0.818  0.00  0.00    -0.585 OA
HETATM   24  O   UNK N   1      -2.879  -2.107  -0.455  0.00  0.00    -0.585 OA
BRANCH  22  25
HETATM   25  O   UNK N   1      -2.382  -3.898  -0.065  0.00  0.00    -0.279 OA
HETATM   26  H   UNK N   1      -3.301  -3.802   0.232  0.00  0.00     0.234 HD
ENDBRANCH  22  25
ENDBRANCH  20  22
ENDBRANCH   2  20
TORSDOF 10
