REMARK  20 active torsions:
REMARK  status: ('A' for Active; 'I' for Inactive)
REMARK    1  A    between atoms: C_8  and  C_6 
REMARK    2  A    between atoms: C_9  and  C_7 
REMARK    3  A    between atoms: C_10  and  C_8 
REMARK    4  A    between atoms: C_11  and  C_9 
REMARK    5  A    between atoms: C_12  and  C_10 
REMARK    6  A    between atoms: C_13  and  C_11 
REMARK    7  A    between atoms: C_20  and  C_12 
REMARK    8  A    between atoms: C_21  and  C_13 
REMARK    9  A    between atoms: C_17  and  C_14 
REMARK   10  A    between atoms: C_19  and  C_14 
REMARK   11  A    between atoms: C_16  and  C_15 
REMARK   12  A    between atoms: N_22  and  C_15 
REMARK   13  A    between atoms: O_28  and  C_16 
REMARK   14  A    between atoms: P_30  and  C_17 
REMARK   15  A    between atoms: C_19  and  C_18 
REMARK   16  A    between atoms: O_27  and  C_18 
REMARK   17  A    between atoms: C_19  and  O_29 
REMARK   18  A    between atoms: O_27  and  C_20 
REMARK   19  A    between atoms: O_29  and  C_21 
REMARK   20  A    between atoms: P_30  and  O_28 
ROOT
HETATM    1  C   UNK N   1       5.156  -0.494   0.298  0.00  0.00     0.156 C 
ENDROOT
BRANCH   1   2
HETATM    2  C   UNK N   1       6.204  -0.987   1.320  0.00  0.00     0.047 C 
BRANCH   2   3
HETATM    3  C   UNK N   1       7.055  -2.179   0.828  0.00  0.00     0.138 C 
BRANCH   3   4
HETATM    4  P   UNK N   1       6.083  -3.783   0.653  0.00  0.00     0.249 P 
HETATM    5  O   UNK N   1       4.595  -3.355   0.596  0.00  0.00    -0.646 OA
HETATM    6  O   UNK N   1       6.381  -3.007  -0.865  0.00  0.00    -0.646 OA
BRANCH   4   7
HETATM    7  O   UNK N   1       6.080  -5.004  -0.580  0.00  0.00    -0.310 OA
BRANCH   7   8
HETATM    8  C   UNK N   1       6.190  -6.230   0.059  0.00  0.00     0.207 C 
BRANCH   8   9
HETATM    9  C   UNK N   1       7.267  -7.037  -0.658  0.00  0.00     0.262 C 
BRANCH   9  10
HETATM   10  N   UNK N   1       8.572  -6.946  -0.004  0.00  0.00    -0.077 N 
HETATM   11  C   UNK N   1       9.523  -7.713  -0.785  0.00  0.00     0.271 C 
HETATM   12  C   UNK N   1       8.507  -7.518   1.331  0.00  0.00     0.271 C 
HETATM   13  C   UNK N   1       9.052  -5.573   0.071  0.00  0.00     0.271 C 
ENDBRANCH   9  10
ENDBRANCH   8   9
ENDBRANCH   7   8
ENDBRANCH   4   7
ENDBRANCH   3   4
ENDBRANCH   2   3
ENDBRANCH   1   2
BRANCH   1  14
HETATM   14  C   UNK N   1       3.797  -0.585   0.982  0.00  0.00     0.211 C 
BRANCH  14  15
HETATM   15  O   UNK N   1       2.766  -0.390   0.089  0.00  0.00    -0.319 OA
BRANCH  15  16
HETATM   16  C   UNK N   1       2.123   0.795  -0.045  0.00  0.00     0.258 C 
HETATM   17  O   UNK N   1       1.155   0.870  -0.783  0.00  0.00    -0.265 OA
BRANCH  16  18
HETATM   18  C   UNK N   1       2.601   2.025   0.663  0.00  0.00     0.111 C 
BRANCH  18  19
HETATM   19  C   UNK N   1       3.257   2.949  -0.348  0.00  0.00     0.010 C 
BRANCH  19  20
HETATM   20  C   UNK N   1       3.050   4.395   0.038  0.00  0.00     0.000 C 
BRANCH  20  21
HETATM   21  C   UNK N   1       1.665   4.828  -0.395  0.00  0.00    -0.005 C 
HETATM   22  C   UNK N   1       1.434   6.265   0.014  0.00  0.00     0.005 C 
ENDBRANCH  20  21
ENDBRANCH  19  20
ENDBRANCH  18  19
ENDBRANCH  16  18
ENDBRANCH  15  16
ENDBRANCH  14  15
ENDBRANCH   1  14
BRANCH   1  23
HETATM   23  O   UNK N   1       5.344   0.814  -0.112  0.00  0.00    -0.314 OA
BRANCH  23  24
HETATM   24  C   UNK N   1       6.453   1.350  -0.685  0.00  0.00     0.259 C 
HETATM   25  O   UNK N   1       6.335   2.354  -1.372  0.00  0.00    -0.265 OA
BRANCH  24  26
HETATM   26  C   UNK N   1       7.824   0.807  -0.426  0.00  0.00     0.111 C 
BRANCH  26  27
HETATM   27  C   UNK N   1       8.610   1.760   0.473  0.00  0.00     0.010 C 
BRANCH  27  28
HETATM   28  C   UNK N   1       9.133   2.966  -0.294  0.00  0.00     0.000 C 
BRANCH  28  29
HETATM   29  C   UNK N   1       8.359   4.214   0.089  0.00  0.00    -0.005 C 
HETATM   30  C   UNK N   1       8.972   5.418  -0.596  0.00  0.00     0.005 C 
ENDBRANCH  28  29
ENDBRANCH  27  28
ENDBRANCH  26  27
ENDBRANCH  24  26
ENDBRANCH  23  24
ENDBRANCH   1  23
TORSDOF 20
