REMARK  9 active torsions:
REMARK  status: ('A' for Active; 'I' for Inactive)
REMARK    1  A    between atoms: C_5  and  C_2 
REMARK    2  A    between atoms: C_6  and  C_2 
REMARK    3  A    between atoms: C_4  and  C_3 
REMARK    4  A    between atoms: P_15  and  C_3 
REMARK    5  A    between atoms: C_7  and  C_4 
REMARK    6  A    between atoms: C_5  and  N_8 
REMARK    7  A    between atoms: P_15  and  C_5 
REMARK    8  A    between atoms: O_10  and  C_6 
REMARK    9  A    between atoms: O_12  and  C_7 
ROOT
HETATM    1  O   UNK N   1       0.468   0.376  -2.135  0.00  0.00    -0.348 OA
HETATM    2  O   UNK N   1       2.122   0.634  -0.223  0.00  0.00    -0.672 OA
HETATM    3  P   UNK N   1       0.592   0.446  -0.405  0.00  0.00     0.122 P 
HETATM    4  H   UNK N   1       0.400   0.416  -3.101  0.00  0.00     0.218 HD
ENDROOT
BRANCH   3   5
HETATM    5  C   UNK N   1       0.188  -1.255   0.264  0.00  0.00     0.111 C 
BRANCH   5   6
HETATM    6  C   UNK N   1       1.256  -2.277  -0.145  0.00  0.00     0.088 C 
HETATM    7  C   UNK N   1       2.387  -2.240   0.871  0.00  0.00     0.021 C 
BRANCH   6   8
HETATM    8  C   UNK N   1       0.705  -3.674  -0.233  0.00  0.00     0.143 C 
HETATM    9  O   UNK N   1       1.437  -4.594  -0.570  0.00  0.00    -0.650 OA
BRANCH   8  10
HETATM   10  O   UNK N   1      -0.594  -3.924   0.025  0.00  0.00    -0.776 OA
HETATM   11  H   UNK N   1      -1.195  -3.229   0.205  0.00  0.00     0.167 HD
ENDBRANCH   8  10
ENDBRANCH   6   8
ENDBRANCH   5   6
ENDBRANCH   3   5
BRANCH   3  12
HETATM   12  C   UNK N   1      -0.177   2.040   0.181  0.00  0.00     0.168 C 
BRANCH  12  13
HETATM   13  C   UNK N   1      -1.679   2.035  -0.091  0.00  0.00     0.144 C 
BRANCH  13  14
HETATM   14  C   UNK N   1      -2.342   3.311   0.345  0.00  0.00     0.141 C 
HETATM   15  O   UNK N   1      -3.187   3.287   1.224  0.00  0.00    -0.650 OA
BRANCH  14  16
HETATM   16  O   UNK N   1      -2.026   4.479  -0.247  0.00  0.00    -0.776 OA
HETATM   17  H   UNK N   1      -1.213   4.695  -0.659  0.00  0.00     0.167 HD
ENDBRANCH  14  16
ENDBRANCH  13  14
ENDBRANCH  12  13
BRANCH  12  18
HETATM   18  N   UNK N   1       0.458   3.139  -0.527  0.00  0.00    -0.418 N 
HETATM   19  H   UNK N   1       1.349   3.139  -1.024  0.00  0.00     0.150 HD
HETATM   20  H   UNK N   1      -0.051   4.023  -0.527  0.00  0.00     0.150 HD
ENDBRANCH  12  18
ENDBRANCH   3  12
TORSDOF 9
