REMARK  6 active torsions:
REMARK  status: ('A' for Active; 'I' for Inactive)
REMARK    1  A    between atoms: C_2  and  N_1 
REMARK    2  A    between atoms: C_2  and  C_3 
REMARK    3  A    between atoms: C_2  and  C_8 
REMARK    4  A    between atoms: C_3  and  S_4 
REMARK    5  A    between atoms: S_4  and  O_5 
REMARK    6  A    between atoms: C_8  and  O_9 
ROOT
HETATM    1  C   UNK N   1       2.421   0.913  -0.450  0.00  0.00     0.189 C 
ENDROOT
BRANCH   1   2
HETATM    2  N   UNK N   1       2.592   2.349  -0.279  0.00  0.00    -0.417 N 
HETATM    3  H   UNK N   1       3.522   2.748  -0.159  0.00  0.00     0.150 HD
HETATM    4  H   UNK N   1       1.774   2.959  -0.279  0.00  0.00     0.150 HD
ENDBRANCH   1   2
BRANCH   1   5
HETATM    5  C   UNK N   1       1.198   0.441   0.335  0.00  0.00     0.191 C 
BRANCH   5   6
HETATM    6  S   UNK N   1      -0.328   0.859  -0.575  0.00  0.00     0.096 S 
HETATM    7  O   UNK N   1      -0.715  -0.379   0.249  0.00  0.00    -0.601 OA
HETATM    8  O   UNK N   1      -0.127   1.854   0.578  0.00  0.00    -0.601 OA
BRANCH   6   9
HETATM    9  O   UNK N   1      -1.919   1.314  -0.121  0.00  0.00    -0.296 OA
HETATM   10  H   UNK N   1      -2.146   2.222   0.135  0.00  0.00     0.232 HD
ENDBRANCH   6   9
ENDBRANCH   5   6
ENDBRANCH   1   5
BRANCH   1  11
HETATM   11  C   UNK N   1       3.662   0.179  -0.029  0.00  0.00     0.164 C 
HETATM   12  O   UNK N   1       3.706  -1.038  -0.120  0.00  0.00    -0.648 OA
BRANCH  11  13
HETATM   13  O   UNK N   1       4.743   0.852   0.411  0.00  0.00    -0.775 OA
HETATM   14  H   UNK N   1       5.524   0.435   0.717  0.00  0.00     0.167 HD
ENDBRANCH  11  13
ENDBRANCH   1  11
TORSDOF 6
