REMARK  11 active torsions:
REMARK  status: ('A' for Active; 'I' for Inactive)
REMARK    1  A    between atoms: C_4  and  C_3 
REMARK    2  A    between atoms: C_5  and  C_3 
REMARK    3  A    between atoms: C_6  and  C_4 
REMARK    4  A    between atoms: C_7  and  C_5 
REMARK    5  A    between atoms: C_12  and  C_6 
REMARK    6  A    between atoms: C_6  and  N_15 
REMARK    7  A    between atoms: C_7  and  O_19 
REMARK    8  A    between atoms: C_8  and  N_16 
REMARK    9  A    between atoms: C_9  and  C_13 
REMARK   10  A    between atoms: O_22  and  C_12 
REMARK   11  A    between atoms: O_24  and  C_13 
ROOT
HETATM    1  C   UNK N   1       7.665   4.477   0.323  0.00  0.00     0.111 C 
HETATM    2  N   UNK N   1       8.868   4.022   0.350  0.00  0.00    -0.359 N 
ATOM      3  HN  UNK N   1       9.088   3.287   1.022  1.00  0.00     0.162 HD
ENDROOT
BRANCH   2   4
HETATM    4  C   UNK N   1       9.931   4.491  -0.520  0.00  0.00     0.209 A 
HETATM    5  C   UNK N   1      11.219   4.781   0.148  0.00  0.00     0.247 A 
HETATM    6  N   UNK N   1      11.340   6.004  -0.249  0.00  0.00    -0.318 N 
HETATM    7  O   UNK N   1      12.022   4.105   0.782  0.00  0.00    -0.271 OA
HETATM    8  C   UNK N   1      12.173   7.156  -0.175  0.00  0.00     0.204 C 
HETATM    9  C   UNK N   1      10.107   6.078  -0.930  0.00  0.00     0.183 A 
HETATM   10  C   UNK N   1      11.156   8.276   0.197  0.00  0.00     0.033 C 
HETATM   11  C   UNK N   1      11.447   9.532  -0.614  0.00  0.00     0.029 C 
HETATM   12  C   UNK N   1      11.142   8.632   1.674  0.00  0.00     0.029 C 
HETATM   13  S   UNK N   1       9.445   7.606  -0.166  0.00  0.00    -0.129 SA
BRANCH   8  14
HETATM   14  C   UNK N   1      13.433   6.998   0.653  0.00  0.00     0.165 C 
HETATM   15  O   UNK N   1      13.745   7.834   1.488  0.00  0.00    -0.648 OA
BRANCH  14  16
HETATM   16  O   UNK N   1      14.258   5.962   0.422  0.00  0.00    -0.775 OA
HETATM   17  H   UNK N   1      13.920   5.103   0.261  0.00  0.00     0.167 HD
ENDBRANCH  14  16
ENDBRANCH   8  14
ENDBRANCH   2   4
BRANCH   1  18
HETATM   18  C   UNK N   1       6.575   3.745   1.046  0.00  0.00     0.083 C 
BRANCH  18  19
HETATM   19  C   UNK N   1       5.526   3.218   0.049  0.00  0.00     0.010 C 
BRANCH  19  20
HETATM   20  C   UNK N   1       4.923   4.338  -0.811  0.00  0.00     0.036 C 
BRANCH  20  21
HETATM   21  C   UNK N   1       4.135   5.353   0.014  0.00  0.00     0.173 C 
BRANCH  21  22
HETATM   22  C   UNK N   1       2.746   4.838   0.268  0.00  0.00     0.163 C 
HETATM   23  O   UNK N   1       1.771   5.469  -0.108  0.00  0.00    -0.648 OA
BRANCH  22  24
HETATM   24  O   UNK N   1       2.572   3.669   0.913  0.00  0.00    -0.775 OA
HETATM   25  H   UNK N   1       1.807   3.367   1.362  0.00  0.00     0.167 HD
ENDBRANCH  22  24
ENDBRANCH  21  22
BRANCH  21  26
HETATM   26  N   UNK N   1       4.093   6.615  -0.708  0.00  0.00    -0.418 N 
HETATM   27  H   UNK N   1       4.844   7.083  -1.215  0.00  0.00     0.150 HD
HETATM   28  H   UNK N   1       3.193   7.095  -0.708  0.00  0.00     0.150 HD
ENDBRANCH  21  26
ENDBRANCH  20  21
ENDBRANCH  19  20
ENDBRANCH  18  19
ENDBRANCH   1  18
BRANCH   1  29
HETATM   29  O   UNK N   1       7.352   5.553  -0.422  0.00  0.00    -0.350 OA
HETATM   30  H   UNK N   1       7.892   6.117  -0.941  0.00  0.00     0.219 HD
ENDBRANCH   1  29
TORSDOF 11
