REMARK  5 active torsions:
REMARK  status: ('A' for Active; 'I' for Inactive)
REMARK    1  A    between atoms: N_2  and  C_5 
REMARK    2  A    between atoms: C_9  and  C_11 
REMARK    3  A    between atoms: C_11  and  O_12 
REMARK    4  A    between atoms: C_11  and  O_13 
REMARK    5  A    between atoms: C_11  and  C_14 
ROOT
HETATM    1  C   UNK N   1       2.008  -0.522   0.090  0.00  0.00     0.136 A 
HETATM    2  C   UNK N   1       0.877  -1.209   0.582  0.00  0.00     0.037 A 
HETATM    3  C   UNK N   1      -0.382  -0.604   0.583  0.00  0.00     0.003 A 
HETATM    4  C   UNK N   1      -0.541   0.690   0.079  0.00  0.00     0.013 A 
HETATM    5  C   UNK N   1       0.564   1.400  -0.420  0.00  0.00     0.015 A 
HETATM    6  C   UNK N   1       1.825   0.783  -0.411  0.00  0.00     0.050 A 
ENDROOT
BRANCH   5   7
HETATM    7  C   UNK N   1       0.396   2.761  -1.024  0.00  0.00     0.290 C 
BRANCH   7   8
HETATM    8  O   UNK N   1       1.502   3.106  -1.722  0.00  0.00    -0.355 OA
HETATM    9  H   UNK N   1       2.092   2.562  -2.206  0.00  0.00     0.213 HD
ENDBRANCH   7   8
BRANCH   7  10
HETATM   10  O   UNK N   1      -0.713   2.779  -1.793  0.00  0.00    -0.355 OA
HETATM   11  H   UNK N   1      -1.087   3.452  -2.327  0.00  0.00     0.213 HD
ENDBRANCH   7  10
BRANCH   7  12
HETATM   12  C   UNK N   1       0.197   3.767   0.095  0.00  0.00     0.449 C 
HETATM   13  F   UNK N   1       1.286   3.773   0.951  0.00  0.00    -0.165 F 
HETATM   14  F   UNK N   1       0.062   5.034  -0.449  0.00  0.00    -0.165 F 
HETATM   15  F   UNK N   1      -0.946   3.486   0.826  0.00  0.00    -0.165 F 
ENDBRANCH   7  12
ENDBRANCH   5   7
BRANCH   1  16
HETATM   16  N   UNK N   1       3.296  -1.170   0.045  0.00  0.00    -0.049 N 
HETATM   17  C   UNK N   1       3.592  -1.786   1.314  0.00  0.00     0.278 C 
HETATM   18  C   UNK N   1       4.366  -0.262  -0.302  0.00  0.00     0.278 C 
HETATM   19  C   UNK N   1       3.253  -2.221  -0.939  0.00  0.00     0.278 C 
ENDBRANCH   1  16
TORSDOF 5
