REMARK  6 active torsions:
REMARK  status: ('A' for Active; 'I' for Inactive)
REMARK    1  A    between atoms: C_3  and  N_2 
REMARK       I    between atoms: N_2  and  C_22 
REMARK    2  A    between atoms: C_6  and  C_9 
REMARK    3  A    between atoms: C_12  and  C_13 
REMARK    4  A    between atoms: C_13  and  N_14 
REMARK    5  A    between atoms: C_22  and  O_24 
REMARK    6  A    between atoms: O_24  and  C_25 
ROOT
HETATM    1  C   UNK N   1       1.326  -1.489   0.735  0.00  0.00     0.089 C 
HETATM    2  C   UNK N   1       2.333  -1.779   1.880  0.00  0.00     0.026 C 
HETATM    3  C   UNK N   1       3.333  -2.866   1.478  0.00  0.00     0.011 C 
HETATM    4  C   UNK N   1       2.565  -4.141   1.144  0.00  0.00     0.019 C 
HETATM    5  C   UNK N   1       1.092  -3.954   0.731  0.00  0.00     0.011 C 
HETATM    6  C   UNK N   1       0.981  -2.708  -0.127  0.00  0.00     0.026 C 
ENDROOT
BRANCH   4   7
HETATM    7  C   UNK N   1       3.267  -5.176   0.328  0.00  0.00    -0.054 A 
HETATM    8  C   UNK N   1       4.022  -6.132   1.009  0.00  0.00     0.008 A 
HETATM    9  C   UNK N   1       4.247  -7.378   0.433  0.00  0.00     0.009 A 
HETATM   10  C   UNK N   1       3.704  -7.673  -0.820  0.00  0.00    -0.030 A 
HETATM   11  C   UNK N   1       3.040  -6.685  -1.552  0.00  0.00     0.009 A 
HETATM   12  C   UNK N   1       2.824  -5.437  -0.980  0.00  0.00     0.008 A 
BRANCH  10  13
HETATM   13  C   UNK N   1       3.357  -9.101  -1.089  0.00  0.00     0.311 C 
BRANCH  13  14
HETATM   14  N   UNK N   1       1.906  -9.311  -0.848  0.00  0.00     0.092 N 
HETATM   15  C   UNK N   1       1.655 -10.727  -0.594  0.00  0.00     0.272 C 
HETATM   16  C   UNK N   1       0.143 -10.980  -0.484  0.00  0.00     0.030 C 
HETATM   17  C   UNK N   1      -0.483 -10.106   0.606  0.00  0.00     0.003 C 
HETATM   18  C   UNK N   1      -0.107  -8.648   0.397  0.00  0.00     0.030 C 
HETATM   19  C   UNK N   1       1.408  -8.563   0.325  0.00  0.00     0.272 C 
ENDBRANCH  13  14
ENDBRANCH  10  13
ENDBRANCH   4   7
BRANCH   1  20
HETATM   20  N   UNK N   1       1.769  -0.362  -0.055  0.00  0.00    -0.327 N 
HETATM   21  C   UNK N   1       0.991   0.848   0.016  0.00  0.00     0.155 C 
HETATM   22  C   UNK N   1       2.961  -0.359  -0.721  0.00  0.00     0.368 C 
HETATM   23  O   UNK N   1       3.631  -1.381  -0.810  0.00  0.00    -0.238 OA
BRANCH  22  24
HETATM   24  O   UNK N   1       3.463   0.815  -1.171  0.00  0.00    -0.261 OA
BRANCH  24  25
HETATM   25  C   UNK N   1       4.662   1.295  -0.749  0.00  0.00     0.081 A 
HETATM   26  C   UNK N   1       4.969   2.638  -0.977  0.00  0.00     0.039 A 
HETATM   27  C   UNK N   1       6.138   3.193  -0.449  0.00  0.00     0.026 A 
HETATM   28  C   UNK N   1       7.013   2.404   0.304  0.00  0.00     0.034 A 
HETATM   29 Cl   UNK N   1       8.455   3.111   0.997  0.00  0.00    -0.084 Cl
HETATM   30  C   UNK N   1       6.729   1.055   0.518  0.00  0.00     0.026 A 
HETATM   31  C   UNK N   1       5.557   0.503   0.001  0.00  0.00     0.039 A 
ENDBRANCH  24  25
ENDBRANCH  22  24
ENDBRANCH   1  20
TORSDOF 6
