REMARK  6 active torsions:
REMARK  status: ('A' for Active; 'I' for Inactive)
REMARK    1  A    between atoms: C_4  and  C_1 
REMARK    2  A    between atoms: O_19  and  C_1 
REMARK    3  A    between atoms: C_6  and  O_20 
REMARK    4  A    between atoms: C_7  and  O_21 
REMARK    5  A    between atoms: N_11  and  C_8 
REMARK    6  A    between atoms: C_10  and  N_18 
ROOT
HETATM    1  C   UNK N   1       4.654   1.884   0.655  0.00  0.00     0.183 A 
HETATM    2  C   UNK N   1       0.310   2.277  -0.104  0.00  0.00     0.188 A 
HETATM    3  C   UNK N   1       2.279   3.093   0.089  0.00  0.00     0.122 A 
HETATM    4  C   UNK N   1       3.422   3.872   0.187  0.00  0.00     0.131 A 
HETATM    5  C   UNK N   1       2.351   1.764   0.296  0.00  0.00     0.142 A 
HETATM    6  N   UNK N   1       4.603   3.245   0.467  0.00  0.00    -0.337 N 
ATOM      7  HN  UNK N   1       5.459   3.795   0.538  1.00  0.00     0.168 HD
HETATM    8  N   UNK N   1       3.513   1.131   0.584  0.00  0.00    -0.336 N 
ATOM      9  HN  UNK N   1       3.537   0.124   0.743  1.00  0.00     0.168 HD
HETATM   10  N   UNK N   1       1.007   3.448  -0.170  0.00  0.00    -0.346 N 
ATOM     11  HN  UNK N   1       0.646   4.380  -0.371  1.00  0.00     0.167 HD
HETATM   12  N   UNK N   1       1.126   1.231   0.193  0.00  0.00    -0.297 N 
ENDROOT
BRANCH  12  13
HETATM   13  C   UNK N   1       0.731  -0.154   0.464  0.00  0.00     0.262 C 
HETATM   14  C   UNK N   1       1.498  -1.203  -0.339  0.00  0.00     0.198 C 
HETATM   15  C   UNK N   1       0.610  -2.384  -0.045  0.00  0.00     0.182 C 
HETATM   16  C   UNK N   1      -0.758  -1.714  -0.235  0.00  0.00     0.179 C 
HETATM   17  O   UNK N   1      -0.648  -0.374   0.223  0.00  0.00    -0.353 OA
BRANCH  14  18
HETATM   18  O   UNK N   1       1.465  -0.900  -1.706  0.00  0.00    -0.388 OA
HETATM   19  H   UNK N   1       1.635  -0.776  -2.653  0.00  0.00     0.210 HD
ENDBRANCH  14  18
BRANCH  15  20
HETATM   20  O   UNK N   1       0.784  -2.773   1.293  0.00  0.00    -0.390 OA
HETATM   21  H   UNK N   1       0.610  -3.012   2.217  0.00  0.00     0.210 HD
ENDBRANCH  15  20
BRANCH  16  22
HETATM   22  C   UNK N   1      -1.885  -2.436   0.499  0.00  0.00     0.198 C 
BRANCH  22  23
HETATM   23  O   UNK N   1      -1.997  -3.757   0.063  0.00  0.00    -0.398 OA
HETATM   24  H   UNK N   1      -2.831  -4.149  -0.240  0.00  0.00     0.209 HD
ENDBRANCH  22  23
ENDBRANCH  16  22
ENDBRANCH  12  13
BRANCH   4  25
HETATM   25  N   UNK N   1       3.371   5.272   0.025  0.00  0.00    -0.383 N 
HETATM   26  H   UNK N   1       4.200   5.791  -0.087  0.00  0.00     0.157 HD
HETATM   27  H   UNK N   1       2.502   5.733   0.025  0.00  0.00     0.157 HD
ENDBRANCH   4  25
TORSDOF 6
