REMARK  5 active torsions:
REMARK  status: ('A' for Active; 'I' for Inactive)
REMARK    1  A    between atoms: C_2  and  N_3 
REMARK    2  A    between atoms: C_2  and  C_18 
REMARK    3  A    between atoms: N_3  and  C_4 
REMARK    4  A    between atoms: C_18  and  C_19 
REMARK    5  A    between atoms: C_18  and  C_25 
ROOT
HETATM    1  N   UNK N   1      -0.538   0.669  -0.830  0.00  0.00    -0.370 N 
HETATM    2  H   UNK N   1      -1.284   1.048  -1.348  0.00  0.00     0.161 HD
ENDROOT
BRANCH   1   3
HETATM    3  C   UNK N   1       0.500   1.547  -0.339  0.00  0.00     0.092 C 
HETATM    4  C   UNK N   1       0.615   1.421   1.186  0.00  0.00     0.033 C 
BRANCH   3   5
HETATM    5  C   UNK N   1       0.343   3.023  -0.769  0.00  0.00     0.074 C 
BRANCH   5   6
HETATM    6  C   UNK N   1       1.649   3.779  -0.485  0.00  0.00    -0.048 A 
HETATM    7  C   UNK N   1       1.747   5.160  -0.716  0.00  0.00     0.008 A 
HETATM    8  C   UNK N   1       2.950   5.837  -0.483  0.00  0.00     0.001 A 
HETATM    9  C   UNK N   1       4.077   5.139  -0.042  0.00  0.00     0.000 A 
HETATM   10  C   UNK N   1       4.005   3.764   0.169  0.00  0.00     0.001 A 
HETATM   11  C   UNK N   1       2.803   3.091  -0.050  0.00  0.00     0.008 A 
ENDBRANCH   5   6
BRANCH   5  12
HETATM   12  C   UNK N   1      -0.927   3.687  -0.226  0.00  0.00    -0.048 A 
HETATM   13  C   UNK N   1      -1.853   2.973   0.559  0.00  0.00     0.008 A 
HETATM   14  C   UNK N   1      -3.029   3.576   1.009  0.00  0.00     0.001 A 
HETATM   15  C   UNK N   1      -3.298   4.904   0.681  0.00  0.00     0.000 A 
HETATM   16  C   UNK N   1      -2.396   5.625  -0.104  0.00  0.00     0.001 A 
HETATM   17  C   UNK N   1      -1.223   5.016  -0.564  0.00  0.00     0.008 A 
ENDBRANCH   5  12
ENDBRANCH   3   5
ENDBRANCH   1   3
BRANCH   1  18
HETATM   18  C   UNK N   1      -0.503  -0.736  -0.578  0.00  0.00     0.115 A 
HETATM   19  N   UNK N   1      -1.679  -1.409  -0.488  0.00  0.00    -0.338 N 
HETATM   20  C   UNK N   1      -1.720  -2.727  -0.153  0.00  0.00     0.182 A 
ATOM     21  HN  UNK N   1      -2.551  -0.916  -0.677  1.00  0.00     0.168 HD
HETATM   22  N   UNK N   1      -0.572  -3.404   0.114  0.00  0.00    -0.351 N 
HETATM   23  C   UNK N   1       0.634  -2.794   0.021  0.00  0.00     0.050 A 
ATOM     24  HN  UNK N   1      -0.619  -4.386   0.387  1.00  0.00     0.166 HD
HETATM   25  C   UNK N   1       0.709  -1.435  -0.344  0.00  0.00     0.037 A 
HETATM   26  C   UNK N   1       1.806  -3.507   0.302  0.00  0.00     0.076 A 
HETATM   27  C   UNK N   1       1.969  -0.828  -0.457  0.00  0.00     0.063 A 
HETATM   28  C   UNK N   1       3.134  -1.542  -0.189  0.00  0.00     0.155 A 
HETATM   29  F   UNK N   1       4.338  -0.930  -0.303  0.00  0.00    -0.203 F 
HETATM   30  C   UNK N   1       3.053  -2.880   0.204  0.00  0.00     0.157 A 
HETATM   31  F   UNK N   1       4.183  -3.573   0.486  0.00  0.00    -0.203 F 
ENDBRANCH   1  18
TORSDOF 5
