REMARK  13 active torsions:
REMARK  status: ('A' for Active; 'I' for Inactive)
REMARK    1  A    between atoms: C_9  and  C_6 
REMARK    2  A    between atoms: C_12  and  C_6 
REMARK    3  A    between atoms: C_11  and  C_7 
REMARK    4  A    between atoms: O_24  and  C_7 
REMARK    5  A    between atoms: O_19  and  C_8 
REMARK    6  A    between atoms: C_13  and  C_11 
REMARK    7  A    between atoms: C_11  and  N_16 
REMARK    8  A    between atoms: B_14  and  C_12 
REMARK    9  A    between atoms: C_12  and  N_17 
REMARK   10  A    between atoms: O_21  and  C_13 
REMARK   11  A    between atoms: O_22  and  B_14 
REMARK   12  A    between atoms: O_23  and  B_14 
REMARK   13  A    between atoms: O_24  and  B_14 
ROOT
HETATM    1  C   UNK N   1      -0.901   2.221  -0.437  0.00  0.00     0.152 C 
ENDROOT
BRANCH   1   2
HETATM    2  C   UNK N   1      -1.467   3.179   0.625  0.00  0.00     0.062 C 
BRANCH   2   3
HETATM    3  C   UNK N   1      -2.962   3.326   0.493  0.00  0.00    -0.057 A 
HETATM    4  C   UNK N   1      -3.508   4.567   0.143  0.00  0.00     0.009 A 
HETATM    5  C   UNK N   1      -4.889   4.698  -0.052  0.00  0.00     0.024 A 
HETATM    6  C   UNK N   1      -5.726   3.587   0.097  0.00  0.00     0.034 A 
HETATM    7  C   UNK N   1      -5.188   2.351   0.461  0.00  0.00     0.024 A 
HETATM    8 Cl   UNK N   1      -7.447   3.738  -0.187  0.00  0.00    -0.084 Cl
HETATM    9  C   UNK N   1      -3.811   2.222   0.662  0.00  0.00     0.009 A 
ENDBRANCH   2   3
ENDBRANCH   1   2
BRANCH   1  10
HETATM   10  B   UNK N   1       0.707   2.440  -0.684  0.00  0.00     0.629 B 
BRANCH  10  11
HETATM   11  O   UNK N   1       1.098   1.678  -1.884  0.00  0.00    -0.408 OA
HETATM   12  H   UNK N   1       0.792   1.204  -2.674  0.00  0.00     0.188 HD
ENDBRANCH  10  11
BRANCH  10  13
HETATM   13  O   UNK N   1       0.931   3.877  -0.946  0.00  0.00    -0.408 OA
HETATM   14  H   UNK N   1       1.822   4.221  -1.118  0.00  0.00     0.188 HD
ENDBRANCH  10  13
BRANCH  10  15
HETATM   15  O   UNK N   1       1.529   2.007   0.482  0.00  0.00    -0.395 OA
BRANCH  15  16
HETATM   16  C   UNK N   1       2.875   2.322   0.211  0.00  0.00     0.184 C 
BRANCH  16  17
HETATM   17  C   UNK N   1       3.842   1.269   0.762  0.00  0.00     0.195 C 
BRANCH  17  18
HETATM   18  C   UNK N   1       4.068   0.127  -0.203  0.00  0.00     0.165 C 
HETATM   19  O   UNK N   1       5.191  -0.119  -0.620  0.00  0.00    -0.648 OA
BRANCH  18  20
HETATM   20  O   UNK N   1       3.043  -0.652  -0.588  0.00  0.00    -0.775 OA
HETATM   21  H   UNK N   1       2.215  -0.304  -0.856  0.00  0.00     0.167 HD
ENDBRANCH  18  20
ENDBRANCH  17  18
BRANCH  17  22
HETATM   22  N   UNK N   1       5.106   1.929   1.049  0.00  0.00    -0.416 N 
HETATM   23  H   UNK N   1       5.950   1.393   1.251  0.00  0.00     0.150 HD
HETATM   24  H   UNK N   1       5.149   2.948   1.049  0.00  0.00     0.150 HD
ENDBRANCH  17  22
ENDBRANCH  16  17
ENDBRANCH  15  16
ENDBRANCH  10  15
ENDBRANCH   1  10
BRANCH   1  25
HETATM   25  N   UNK N   1      -1.425   0.878  -0.191  0.00  0.00    -0.370 N 
HETATM   26  C   UNK N   1      -0.815  -0.235   0.063  0.00  0.00     0.106 C 
HETATM   27  C   UNK N   1      -1.623  -1.464   0.275  0.00  0.00     0.097 C 
ATOM     28  HN  UNK N   1      -2.441   0.805  -0.226  1.00  0.00     0.161 HD
BRANCH  26  29
HETATM   29  O   UNK N   1       0.518  -0.314   0.160  0.00  0.00    -0.350 OA
HETATM   30  H   UNK N   1       0.936  -1.149   0.228  0.00  0.00     0.219 HD
ENDBRANCH  26  29
ENDBRANCH   1  25
TORSDOF 13
