REMARK  16 active torsions:
REMARK  status: ('A' for Active; 'I' for Inactive)
REMARK    1  A    between atoms: C_5  and  C_4 
REMARK    2  A    between atoms: C_22  and  C_5 
REMARK    3  A    between atoms: C_7  and  C_6 
REMARK    4  A    between atoms: C_8  and  C_6 
REMARK    5  A    between atoms: C_9  and  C_7 
REMARK    6  A    between atoms: C_10  and  C_8 
REMARK    7  A    between atoms: C_11  and  C_9 
REMARK    8  A    between atoms: C_12  and  C_10 
REMARK    9  A    between atoms: C_13  and  C_11 
REMARK   10  A    between atoms: C_14  and  C_12 
REMARK   11  A    between atoms: C_15  and  C_13 
REMARK   12  A    between atoms: C_25  and  C_14 
REMARK   13  A    between atoms: C_32  and  C_15 
REMARK   14  A    between atoms: N_35  and  C_22 
REMARK   15  A    between atoms: O_36  and  C_27 
REMARK   16  A    between atoms: C_31  and  O_37 
REMARK       I    between atoms: N_35  and  C_32 
ROOT
HETATM    1  C   UNK N   1      15.862 -13.772   1.797  0.00  0.00     0.018 C 
HETATM    2  C   UNK N   1      21.468 -11.198   0.344  0.00  0.00     0.037 A 
HETATM    3  C   UNK N   1      20.309 -11.933   0.075  0.00  0.00     0.011 A 
HETATM    4  C   UNK N   1      14.155 -11.668   0.697  0.00  0.00     0.008 C 
HETATM    5  C   UNK N   1      13.260 -12.925   0.673  0.00  0.00     0.033 C 
HETATM    6  C   UNK N   1      17.943 -13.515  -0.323  0.00  0.00     0.010 C 
HETATM    7  C   UNK N   1      16.603 -14.227  -0.548  0.00  0.00     0.013 C 
HETATM    8  C   UNK N   1      17.888  -9.194  -0.884  0.00  0.00     0.044 C 
HETATM    9  C   UNK N   1      20.295  -9.146  -0.183  0.00  0.00     0.044 A 
HETATM   10  C   UNK N   1      16.608  -9.782  -0.251  0.00  0.00    -0.005 C 
HETATM   11  C   UNK N   1      19.141  -9.881  -0.459  0.00  0.00    -0.048 A 
HETATM   12  C   UNK N   1      21.462  -9.805   0.211  0.00  0.00     0.066 A 
HETATM   13  C   UNK N   1      19.141 -11.277  -0.344  0.00  0.00    -0.047 A 
HETATM   14  C   UNK N   1      17.847 -12.006  -0.636  0.00  0.00     0.024 C 
HETATM   15  C   UNK N   1      15.409 -12.081  -0.054  0.00  0.00     0.001 C 
HETATM   16  C   UNK N   1      14.102 -14.016   0.015  0.00  0.00     0.126 C 
HETATM   17  C   UNK N   1      16.724 -11.296   0.182  0.00  0.00     0.003 C 
HETATM   18  C   UNK N   1      15.528 -13.562   0.306  0.00  0.00    -0.014 C 
ENDROOT
BRANCH  10  19
HETATM   19  C   UNK N   1      16.229  -8.863   0.915  0.00  0.00     0.005 C 
BRANCH  19  20
HETATM   20  C   UNK N   1      14.735  -8.705   1.130  0.00  0.00     0.000 C 
BRANCH  20  21
HETATM   21  C   UNK N   1      14.211  -7.501   0.358  0.00  0.00     0.000 C 
BRANCH  21  22
HETATM   22  C   UNK N   1      13.965  -7.842  -1.105  0.00  0.00     0.000 C 
BRANCH  22  23
HETATM   23  C   UNK N   1      12.509  -8.206  -1.366  0.00  0.00     0.000 C 
BRANCH  23  24
HETATM   24  C   UNK N   1      12.157  -9.582  -0.831  0.00  0.00     0.000 C 
BRANCH  24  25
HETATM   25  C   UNK N   1      11.795  -9.497   0.642  0.00  0.00     0.000 C 
BRANCH  25  26
HETATM   26  C   UNK N   1      11.102 -10.776   1.064  0.00  0.00     0.000 C 
BRANCH  26  27
HETATM   27  C   UNK N   1       9.601 -10.600   1.031  0.00  0.00     0.009 C 
BRANCH  27  28
HETATM   28  C   UNK N   1       9.102 -10.256  -0.365  0.00  0.00     0.103 C 
BRANCH  28  29
HETATM   29  C   UNK N   1       7.803  -9.531  -0.216  0.00  0.00     0.219 C 
HETATM   30  N   UNK N   1       6.691 -10.172   0.249  0.00  0.00    -0.356 N 
HETATM   31  C   UNK N   1       6.734 -11.585   0.560  0.00  0.00     0.152 C 
HETATM   32  O   UNK N   1       7.767  -8.341  -0.483  0.00  0.00    -0.273 OA
BRANCH  30  33
HETATM   33  C   UNK N   1       5.490  -9.403   0.528  0.00  0.00     0.125 C 
BRANCH  33  34
HETATM   34  C   UNK N   1       4.216 -10.225   0.420  0.00  0.00     0.019 C 
BRANCH  34  35
HETATM   35  C   UNK N   1       3.733 -10.239  -1.013  0.00  0.00    -0.003 C 
HETATM   36  C   UNK N   1       2.437 -11.015  -1.088  0.00  0.00     0.005 C 
ENDBRANCH  34  35
ENDBRANCH  33  34
ENDBRANCH  30  33
ENDBRANCH  28  29
ENDBRANCH  27  28
ENDBRANCH  26  27
ENDBRANCH  25  26
ENDBRANCH  24  25
ENDBRANCH  23  24
ENDBRANCH  22  23
ENDBRANCH  21  22
ENDBRANCH  20  21
ENDBRANCH  19  20
ENDBRANCH  10  19
BRANCH  12  37
HETATM   37  O   UNK N   1      22.577  -9.101   0.461  0.00  0.00    -0.361 OA
HETATM   38  H   UNK N   1      23.392  -9.530   0.636  0.00  0.00     0.217 HD
ENDBRANCH  12  37
BRANCH  16  39
HETATM   39  O   UNK N   1      13.813 -15.283   0.526  0.00  0.00    -0.395 OA
HETATM   40  H   UNK N   1      12.951 -15.549   0.881  0.00  0.00     0.210 HD
ENDBRANCH  16  39
TORSDOF 16
