REMARK  7 active torsions:
REMARK  status: ('A' for Active; 'I' for Inactive)
REMARK    1  A    between atoms: O_1  and  C_2 
REMARK    2  A    between atoms: C_3  and  C_2 
REMARK    3  A    between atoms: C_5  and  N_13 
REMARK    4  A    between atoms: C_7  and  O_8 
REMARK    5  A    between atoms: O_8  and  P_9 
REMARK    6  A    between atoms: P_9  and  O_10 
REMARK    7  A    between atoms: P_9  and  O_11 
ROOT
HETATM    1  C   UNK N   1       0.735  -0.387  -0.548  0.00  0.00     0.177 C 
HETATM    2  O   UNK N   1       1.827  -1.264  -0.484  0.00  0.00    -0.356 OA
HETATM    3  C   UNK N   1       1.545  -2.165   0.565  0.00  0.00     0.235 C 
HETATM    4  C   UNK N   1       0.041  -2.214   0.800  0.00  0.00     0.089 C 
HETATM    5  C   UNK N   1      -0.494  -1.191  -0.151  0.00  0.00     0.169 C 
ENDROOT
BRANCH   3   6
HETATM    6  N   UNK N   1       2.215  -3.454   0.311  0.00  0.00    -0.282 N 
HETATM    7  C   UNK N   1       3.578  -3.424   0.318  0.00  0.00     0.104 A 
HETATM    8  C   UNK N   1       4.326  -4.573   0.086  0.00  0.00     0.092 A 
HETATM    9  C   UNK N   1       3.662  -5.765  -0.159  0.00  0.00     0.250 A 
HETATM   10  O   UNK N   1       4.294  -6.783  -0.369  0.00  0.00    -0.268 OA
HETATM   11  N   UNK N   1       2.296  -5.794  -0.167  0.00  0.00    -0.275 N 
HETATM   12  C   UNK N   1       1.564  -4.658   0.064  0.00  0.00     0.331 A 
HETATM   13  H   UNK N   1       1.830  -6.643  -0.342  0.00  0.00     0.173 HD
HETATM   14  O   UNK N   1       0.349  -4.726   0.036  0.00  0.00    -0.246 OA
ENDBRANCH   3   6
BRANCH   1  15
HETATM   15  C   UNK N   1       1.012   0.830   0.330  0.00  0.00     0.198 C 
BRANCH  15  16
HETATM   16  O   UNK N   1       0.458   1.965  -0.261  0.00  0.00    -0.398 OA
HETATM   17  H   UNK N   1       0.949   2.694  -0.672  0.00  0.00     0.209 HD
ENDBRANCH  15  16
ENDBRANCH   1  15
BRANCH   5  18
HETATM   18  O   UNK N   1      -1.479  -0.416   0.475  0.00  0.00    -0.289 OA
BRANCH  18  19
HETATM   19  P   UNK N   1      -2.728  -0.173  -0.709  0.00  0.00     0.391 P 
HETATM   20  O   UNK N   1      -2.429   1.259  -0.190  0.00  0.00    -0.632 OA
BRANCH  19  21
HETATM   21  O   UNK N   1      -4.271   0.406  -0.168  0.00  0.00    -0.307 OA
HETATM   22  H   UNK N   1      -4.422   1.315   0.135  0.00  0.00     0.222 HD
ENDBRANCH  19  21
BRANCH  19  23
HETATM   23  O   UNK N   1      -3.345  -1.192   0.555  0.00  0.00    -0.307 OA
HETATM   24  H   UNK N   1      -4.011  -1.178   1.261  0.00  0.00     0.222 HD
ENDBRANCH  19  23
ENDBRANCH  18  19
ENDBRANCH   5  18
TORSDOF 7
