REMARK  19 active torsions:
REMARK  status: ('A' for Active; 'I' for Inactive)
REMARK    1  A    between atoms: P_1  and  O_10 
REMARK    2  A    between atoms: P_1  and  O_12 
REMARK    3  A    between atoms: P_1  and  O_14 
REMARK    4  A    between atoms: P_2  and  O_11 
REMARK    5  A    between atoms: P_2  and  O_13 
REMARK    6  A    between atoms: P_2  and  O_15 
REMARK    7  A    between atoms: P_3  and  O_12 
REMARK    8  A    between atoms: P_3  and  O_13 
REMARK    9  A    between atoms: P_3  and  O_20 
REMARK   10  A    between atoms: C_36  and  O_6 
REMARK   11  A    between atoms: C_37  and  O_7 
REMARK   12  A    between atoms: C_38  and  O_8 
REMARK   13  A    between atoms: C_39  and  O_9 
REMARK   14  A    between atoms: O_10  and  C_44 
REMARK   15  A    between atoms: O_11  and  C_45 
REMARK   16  A    between atoms: C_40  and  N_22 
REMARK   17  A    between atoms: C_41  and  N_23 
REMARK       I    between atoms: N_34  and  C_54 
REMARK       I    between atoms: N_35  and  C_55 
REMARK   18  A    between atoms: C_42  and  C_44 
REMARK   19  A    between atoms: C_43  and  C_45 
ROOT
HETATM    1  P   UNK N   1      18.964 -12.014   1.378  0.00  0.00     0.410 P 
HETATM    2  O   UNK N   1      19.333 -12.074  -0.131  0.00  0.00    -0.631 OA
ENDROOT
BRANCH   1   3
HETATM    3  O   UNK N   1      17.440 -11.652   0.583  0.00  0.00    -0.195 OA
BRANCH   3   4
HETATM    4  P   UNK N   1      16.713 -13.130  -0.048  0.00  0.00     0.401 P 
HETATM    5  O   UNK N   1      15.185 -12.856  -0.062  0.00  0.00    -0.631 OA
BRANCH   4   6
HETATM    6  O   UNK N   1      16.899 -14.606   0.878  0.00  0.00    -0.294 OA
BRANCH   6   7
HETATM    7  C   UNK N   1      18.264 -14.824   1.135  0.00  0.00     0.215 C 
BRANCH   7   8
HETATM    8  C   UNK N   1      19.098 -15.104  -0.138  0.00  0.00     0.180 C 
HETATM    9  O   UNK N   1      18.516 -16.164  -0.829  0.00  0.00    -0.353 OA
HETATM   10  C   UNK N   1      19.015 -17.202  -0.059  0.00  0.00     0.262 C 
HETATM   11  C   UNK N   1      20.499 -17.069  -0.060  0.00  0.00     0.198 C 
HETATM   12  C   UNK N   1      20.521 -15.571   0.232  0.00  0.00     0.182 C 
BRANCH  10  13
HETATM   13  N   UNK N   1      18.275 -18.438  -0.196  0.00  0.00    -0.297 N 
HETATM   14  C   UNK N   1      16.945 -18.481  -0.129  0.00  0.00     0.159 A 
HETATM   15  N   UNK N   1      16.098 -17.433  -0.016  0.00  0.00    -0.174 N 
HETATM   16  C   UNK N   1      16.537 -19.756  -0.173  0.00  0.00     0.147 A 
HETATM   17  C   UNK N   1      14.758 -17.684   0.046  0.00  0.00     0.680 A 
HETATM   18  H   UNK N   1      16.440 -16.510   0.019  0.00  0.00     0.186 HD
HETATM   19  N   UNK N   1      14.301 -18.980   0.016  0.00  0.00    -0.154 N 
HETATM   20  N   UNK N   1      13.849 -16.614   0.141  0.00  0.00    -0.234 N 
HETATM   21  C   UNK N   1      15.179 -20.038  -0.090  0.00  0.00     0.290 A 
ATOM     22  HN  UNK N   1      13.299 -19.162   0.072  1.00  0.00     0.187 HD
HETATM   23  O   UNK N   1      14.772 -21.186  -0.103  0.00  0.00    -0.265 OA
HETATM   24  H   UNK N   1      14.179 -15.689   0.207  0.00  0.00     0.174 HD
HETATM   25  H   UNK N   1      12.881 -16.791   0.141  0.00  0.00     0.174 HD
HETATM   26  N   UNK N   1      17.605 -20.573  -0.280  0.00  0.00    -0.345 N 
HETATM   27  C   UNK N   1      18.680 -19.725  -0.290  0.00  0.00     0.188 A 
ATOM     28  HN  UNK N   1      17.610 -21.591  -0.341  1.00  0.00     0.167 HD
ENDBRANCH  10  13
BRANCH  11  29
HETATM   29  O   UNK N   1      21.068 -17.776   0.998  0.00  0.00    -0.388 OA
HETATM   30  H   UNK N   1      20.840 -18.365   1.734  0.00  0.00     0.210 HD
ENDBRANCH  11  29
BRANCH  12  31
HETATM   31  O   UNK N   1      21.463 -14.942  -0.581  0.00  0.00    -0.390 OA
HETATM   32  H   UNK N   1      22.169 -15.291  -1.147  0.00  0.00     0.210 HD
ENDBRANCH  12  31
ENDBRANCH   7   8
ENDBRANCH   6   7
ENDBRANCH   4   6
BRANCH   4  33
HETATM   33  O   UNK N   1      17.112 -13.382  -1.720  0.00  0.00    -0.307 OA
HETATM   34  H   UNK N   1      17.102 -13.646  -2.653  0.00  0.00     0.222 HD
ENDBRANCH   4  33
ENDBRANCH   3   4
ENDBRANCH   1   3
BRANCH   1  35
HETATM   35  O   UNK N   1      20.347 -10.881   1.274  0.00  0.00    -0.195 OA
BRANCH  35  36
HETATM   36  P   UNK N   1      20.257  -9.337   0.355  0.00  0.00     0.401 P 
HETATM   37  O   UNK N   1      18.866  -9.670  -0.238  0.00  0.00    -0.631 OA
BRANCH  36  38
HETATM   38  O   UNK N   1      20.576  -9.073  -1.337  0.00  0.00    -0.294 OA
BRANCH  38  39
HETATM   39  C   UNK N   1      21.252  -7.851  -1.479  0.00  0.00     0.215 C 
BRANCH  39  40
HETATM   40  C   UNK N   1      20.458  -6.614  -1.038  0.00  0.00     0.180 C 
HETATM   41  O   UNK N   1      19.048  -6.765  -1.021  0.00  0.00    -0.353 OA
HETATM   42  C   UNK N   1      18.642  -6.100   0.166  0.00  0.00     0.262 C 
HETATM   43  C   UNK N   1      19.791  -5.224   0.665  0.00  0.00     0.198 C 
HETATM   44  C   UNK N   1      20.878  -6.188   0.350  0.00  0.00     0.182 C 
BRANCH  42  45
HETATM   45  N   UNK N   1      17.306  -5.487   0.056  0.00  0.00    -0.297 N 
HETATM   46  C   UNK N   1      16.910  -4.200   0.074  0.00  0.00     0.159 A 
HETATM   47  N   UNK N   1      17.673  -3.086   0.162  0.00  0.00    -0.174 N 
HETATM   48  C   UNK N   1      15.568  -4.140  -0.029  0.00  0.00     0.147 A 
HETATM   49  C   UNK N   1      17.064  -1.864   0.134  0.00  0.00     0.680 A 
HETATM   50  H   UNK N   1      18.652  -3.155   0.245  0.00  0.00     0.186 HD
HETATM   51  N   UNK N   1      15.698  -1.774   0.034  0.00  0.00    -0.154 N 
HETATM   52  N   UNK N   1      17.844  -0.693   0.194  0.00  0.00    -0.234 N 
HETATM   53  C   UNK N   1      14.923  -2.911  -0.045  0.00  0.00     0.290 A 
ATOM     54  HN  UNK N   1      15.252  -0.857   0.017  1.00  0.00     0.187 HD
HETATM   55  O   UNK N   1      13.711  -2.830  -0.132  0.00  0.00    -0.265 OA
HETATM   56  H   UNK N   1      18.825  -0.756   0.237  0.00  0.00     0.174 HD
HETATM   57  H   UNK N   1      17.407   0.190   0.194  0.00  0.00     0.174 HD
HETATM   58  N   UNK N   1      15.060  -5.382  -0.109  0.00  0.00    -0.345 N 
HETATM   59  C   UNK N   1      16.152  -6.198  -0.057  0.00  0.00     0.188 A 
ATOM     60  HN  UNK N   1      14.080  -5.653  -0.189  1.00  0.00     0.167 HD
ENDBRANCH  42  45
BRANCH  43  61
HETATM   61  O   UNK N   1      19.972  -4.098  -0.146  0.00  0.00    -0.388 OA
HETATM   62  H   UNK N   1      20.711  -3.817  -0.708  0.00  0.00     0.210 HD
ENDBRANCH  43  61
BRANCH  44  63
HETATM   63  O   UNK N   1      22.141  -5.594   0.352  0.00  0.00    -0.390 OA
HETATM   64  H   UNK N   1      22.937  -6.147   0.354  0.00  0.00     0.210 HD
ENDBRANCH  44  63
ENDBRANCH  39  40
ENDBRANCH  38  39
ENDBRANCH  36  38
BRANCH  36  65
HETATM   65  O   UNK N   1      21.348 -10.480  -0.377  0.00  0.00    -0.307 OA
HETATM   66  H   UNK N   1      21.101 -11.325  -0.784  0.00  0.00     0.222 HD
ENDBRANCH  36  65
ENDBRANCH  35  36
ENDBRANCH   1  35
BRANCH   1  67
HETATM   67  O   UNK N   1      18.308 -10.546   2.042  0.00  0.00    -0.307 OA
HETATM   68  H   UNK N   1      18.834  -9.820   2.412  0.00  0.00     0.222 HD
ENDBRANCH   1  67
TORSDOF 19
