REMARK  16 active torsions:
REMARK  status: ('A' for Active; 'I' for Inactive)
REMARK    1  A    between atoms: C_18  and  C_15 
REMARK    2  A    between atoms: C_22  and  C_15 
REMARK    3  A    between atoms: C_20  and  C_16 
REMARK    4  A    between atoms: C_23  and  C_16 
REMARK    5  A    between atoms: C_19  and  C_17 
REMARK    6  A    between atoms: C_24  and  C_17 
REMARK    7  A    between atoms: O_32  and  C_21 
REMARK    8  A    between atoms: C_25  and  C_22 
REMARK    9  A    between atoms: C_22  and  N_28 
REMARK   10  A    between atoms: C_27  and  C_23 
REMARK   11  A    between atoms: C_23  and  N_30 
REMARK   12  A    between atoms: C_26  and  C_24 
REMARK   13  A    between atoms: C_24  and  S_37 
REMARK   14  A    between atoms: C_25  and  O_33 
REMARK   15  A    between atoms: C_26  and  O_34 
REMARK   16  A    between atoms: O_36  and  C_27 
ROOT
HETATM    1  C   UNK N   1      -4.893   2.903  -0.402  0.00  0.00     0.162 C 
ENDROOT
BRANCH   1   2
HETATM    2  C   UNK N   1      -3.525   3.436  -0.865  0.00  0.00     0.072 C 
BRANCH   2   3
HETATM    3  C   UNK N   1      -2.316   2.680  -0.395  0.00  0.00    -0.056 A 
HETATM    4  C   UNK N   1      -1.383   3.297   0.447  0.00  0.00     0.007 A 
HETATM    5  C   UNK N   1      -0.220   2.614   0.824  0.00  0.00     0.001 A 
HETATM    6  C   UNK N   1       0.018   1.319   0.352  0.00  0.00     0.000 A 
HETATM    7  C   UNK N   1      -0.905   0.705  -0.497  0.00  0.00     0.001 A 
HETATM    8  C   UNK N   1      -2.064   1.387  -0.876  0.00  0.00     0.007 A 
ENDBRANCH   2   3
ENDBRANCH   1   2
BRANCH   1   9
HETATM    9  C   UNK N   1      -5.926   3.472  -1.369  0.00  0.00     0.135 C 
HETATM   10  N   UNK N   1      -6.960   4.176  -1.027  0.00  0.00    -0.358 N 
ATOM     11  HN  UNK N   1      -7.523   4.534  -1.798  1.00  0.00     0.162 HD
BRANCH  10  12
HETATM   12  C   UNK N   1      -7.427   4.523   0.305  0.00  0.00     0.185 C 
BRANCH  12  13
HETATM   13  C   UNK N   1      -7.307   6.032   0.516  0.00  0.00     0.074 C 
BRANCH  13  14
HETATM   14  C   UNK N   1      -5.902   6.511   0.346  0.00  0.00    -0.056 A 
HETATM   15  C   UNK N   1      -4.886   6.067   1.200  0.00  0.00     0.010 A 
HETATM   16  C   UNK N   1      -3.571   6.497   1.005  0.00  0.00     0.037 A 
HETATM   17  C   UNK N   1      -3.271   7.374  -0.042  0.00  0.00     0.065 A 
HETATM   18  C   UNK N   1      -4.287   7.826  -0.889  0.00  0.00     0.037 A 
HETATM   19  C   UNK N   1      -5.601   7.395  -0.695  0.00  0.00     0.010 A 
BRANCH  17  20
HETATM   20  O   UNK N   1      -2.007   7.781  -0.234  0.00  0.00    -0.361 OA
HETATM   21  H   UNK N   1      -1.319   7.159  -0.369  0.00  0.00     0.217 HD
ENDBRANCH  17  20
ENDBRANCH  13  14
ENDBRANCH  12  13
BRANCH  12  22
HETATM   22  C   UNK N   1      -8.877   4.144   0.397  0.00  0.00     0.163 C 
HETATM   23  O   UNK N   1      -9.257   3.355   1.248  0.00  0.00    -0.648 OA
BRANCH  22  24
HETATM   24  O   UNK N   1      -9.768   4.666  -0.470  0.00  0.00    -0.775 OA
HETATM   25  H   UNK N   1      -9.762   5.384  -1.073  0.00  0.00     0.167 HD
ENDBRANCH  22  24
ENDBRANCH  12  22
ENDBRANCH  10  12
BRANCH   9  26
HETATM   26  O   UNK N   1      -5.740   3.227  -2.681  0.00  0.00    -0.348 OA
HETATM   27  H   UNK N   1      -5.823   3.030  -3.594  0.00  0.00     0.219 HD
ENDBRANCH   9  26
ENDBRANCH   1   9
BRANCH   1  28
HETATM   28  N   UNK N   1      -4.923   1.455  -0.480  0.00  0.00    -0.361 N 
HETATM   29  C   UNK N   1      -5.895   0.739  -0.023  0.00  0.00     0.126 C 
ATOM     30  HN  UNK N   1      -4.136   0.978  -0.919  1.00  0.00     0.162 HD
BRANCH  29  31
HETATM   31  C   UNK N   1      -5.835  -0.762  -0.149  0.00  0.00     0.122 C 
BRANCH  31  32
HETATM   32  C   UNK N   1      -7.094  -1.394   0.461  0.00  0.00     0.061 C 
BRANCH  32  33
HETATM   33  C   UNK N   1      -7.268  -2.857   0.193  0.00  0.00    -0.057 A 
HETATM   34  C   UNK N   1      -6.380  -3.801   0.726  0.00  0.00     0.007 A 
HETATM   35  C   UNK N   1      -6.585  -5.165   0.501  0.00  0.00     0.001 A 
HETATM   36  C   UNK N   1      -7.685  -5.591  -0.250  0.00  0.00     0.000 A 
HETATM   37  C   UNK N   1      -8.578  -4.653  -0.776  0.00  0.00     0.001 A 
HETATM   38  C   UNK N   1      -8.371  -3.288  -0.551  0.00  0.00     0.007 A 
ENDBRANCH  32  33
ENDBRANCH  31  32
BRANCH  31  39
HETATM   39  S   UNK N   1      -4.334  -1.359   0.700  0.00  0.00    -0.169 SA
HETATM   40  H   UNK N   1      -4.160  -2.551   1.332  0.00  0.00     0.102 HD
ENDBRANCH  31  39
ENDBRANCH  29  31
BRANCH  29  41
HETATM   41  O   UNK N   1      -6.955   1.328   0.576  0.00  0.00    -0.349 OA
HETATM   42  H   UNK N   1      -6.969   2.168   0.991  0.00  0.00     0.219 HD
ENDBRANCH  29  41
ENDBRANCH   1  28
TORSDOF 16
