REMARK  14 active torsions:
REMARK  status: ('A' for Active; 'I' for Inactive)
REMARK    1  A    between atoms: C_5  and  C_4 
REMARK    2  A    between atoms: C_6  and  C_4 
REMARK    3  A    between atoms: C_12  and  C_5 
REMARK    4  A    between atoms: N_22  and  C_6 
REMARK    5  A    between atoms: C_12  and  C_11 
REMARK    6  A    between atoms: C_13  and  C_12 
REMARK    7  A    between atoms: C_14  and  C_13 
REMARK    8  A    between atoms: C_13  and  N_23 
REMARK    9  A    between atoms: O_31  and  C_14 
REMARK       I    between atoms: N_21  and  C_15 
REMARK       I    between atoms: N_22  and  C_15 
REMARK   10  A    between atoms: N_27  and  C_16 
REMARK   11  A    between atoms: C_16  and  O_32 
REMARK   12  A    between atoms: N_28  and  C_17 
REMARK   13  A    between atoms: O_33  and  C_17 
REMARK   14  A    between atoms: N_25  and  C_18 
ROOT
HETATM    1  C   UNK N   1      -1.381   1.467   0.009  0.00  0.00     0.193 C 
ENDROOT
BRANCH   1   2
HETATM    2  C   UNK N   1       0.139   1.812  -0.036  0.00  0.00     0.080 C 
BRANCH   2   3
HETATM    3  C   UNK N   1       0.967   0.636   0.496  0.00  0.00     0.015 C 
BRANCH   3   4
HETATM    4  C   UNK N   1       2.172   1.062   1.318  0.00  0.00     0.021 C 
BRANCH   4   5
HETATM    5  C   UNK N   1       3.452   0.917   0.529  0.00  0.00     0.138 C 
BRANCH   5   6
HETATM    6  N   UNK N   1       3.863   2.208   0.050  0.00  0.00    -0.227 N 
HETATM    7  C   UNK N   1       5.133   2.402  -0.544  0.00  0.00     0.665 C 
HETATM    8  N   UNK N   1       5.471   3.569  -0.948  0.00  0.00    -0.235 N 
HETATM    9  N   UNK N   1       6.049   1.331  -0.649  0.00  0.00    -0.235 N 
HETATM   10  H   UNK N   1       6.378   3.792  -1.259  0.00  0.00     0.174 HD
ATOM     11  HN  UNK N   1       4.765   4.305  -0.948  1.00  0.00     0.174 HD
HETATM   12  H   UNK N   1       5.722   0.405  -0.722  0.00  0.00     0.174 HD
HETATM   13  H   UNK N   1       7.017   1.511  -0.649  0.00  0.00     0.174 HD
HETATM   14  H   UNK N   1       3.249   2.973   0.137  0.00  0.00     0.177 HD
ENDBRANCH   5   6
ENDBRANCH   4   5
ENDBRANCH   3   4
ENDBRANCH   2   3
BRANCH   2  15
HETATM   15  C   UNK N   1       0.592   2.196  -1.415  0.00  0.00     0.238 C 
HETATM   16  O   UNK N   1       1.020   3.320  -1.630  0.00  0.00    -0.306 OA
ENDBRANCH   2  15
ENDBRANCH   1   2
BRANCH   1  17
HETATM   17  C   UNK N   1      -1.719   0.152  -0.670  0.00  0.00     0.164 C 
HETATM   18  O   UNK N   1      -1.243  -0.894  -0.259  0.00  0.00    -0.648 OA
BRANCH  17  19
HETATM   19  O   UNK N   1      -2.585   0.119  -1.704  0.00  0.00    -0.775 OA
HETATM   20  H   UNK N   1      -2.906   0.628  -2.422  0.00  0.00     0.167 HD
ENDBRANCH  17  19
ENDBRANCH   1  17
BRANCH   1  21
HETATM   21  N   UNK N   1      -2.234   2.491  -0.575  0.00  0.00    -0.341 N 
HETATM   22  C   UNK N   1      -2.217   3.758  -0.325  0.00  0.00     0.215 C 
ATOM     23  HN  UNK N   1      -2.923   2.172  -1.257  1.00  0.00     0.164 HD
BRANCH  22  24
HETATM   24  N   UNK N   1      -3.235   4.586  -0.865  0.00  0.00    -0.345 N 
HETATM   25  C   UNK N   1      -3.265   5.980  -0.499  0.00  0.00     0.146 C 
HETATM   26  C   UNK N   1      -4.259   6.122   0.645  0.00  0.00     0.146 C 
HETATM   27  N   UNK N   1      -5.507   5.496   0.256  0.00  0.00    -0.345 N 
HETATM   28  C   UNK N   1      -5.498   4.122  -0.209  0.00  0.00     0.146 C 
HETATM   29  C   UNK N   1      -4.466   3.986  -1.332  0.00  0.00     0.146 C 
BRANCH  27  30
HETATM   30  C   UNK N   1      -6.691   6.272   0.170  0.00  0.00     0.215 C 
HETATM   31  N   UNK N   1      -6.653   7.523   0.502  0.00  0.00    -0.348 N 
ATOM     32  HN  UNK N   1      -5.780   7.868   0.902  1.00  0.00     0.163 HD
BRANCH  31  33
HETATM   33  C   UNK N   1      -7.733   8.479   0.361  0.00  0.00     0.022 C 
HETATM   34  C   UNK N   1      -7.816   8.943  -1.083  0.00  0.00     0.037 C 
HETATM   35  C   UNK N   1      -9.077   7.927   0.808  0.00  0.00     0.037 C 
HETATM   36  C   UNK N   1      -7.410   9.678   1.225  0.00  0.00     0.037 C 
ENDBRANCH  31  33
BRANCH  30  37
HETATM   37  O   UNK N   1      -7.833   5.702  -0.270  0.00  0.00    -0.333 OA
HETATM   38  H   UNK N   1      -8.572   6.191  -0.575  0.00  0.00     0.220 HD
ENDBRANCH  30  37
ENDBRANCH  27  30
ENDBRANCH  22  24
BRANCH  22  39
HETATM   39  O   UNK N   1      -1.290   4.299   0.489  0.00  0.00    -0.333 OA
HETATM   40  H   UNK N   1      -0.642   3.929   1.055  0.00  0.00     0.220 HD
ENDBRANCH  22  39
ENDBRANCH   1  21
TORSDOF 14
