REMARK  9 active torsions:
REMARK  status: ('A' for Active; 'I' for Inactive)
REMARK    1  A    between atoms: C_4  and  C_2 
REMARK    2  A    between atoms: O_7  and  C_2 
REMARK    3  A    between atoms: C_5  and  C_3 
REMARK    4  A    between atoms: C_3  and  O_8 
REMARK    5  A    between atoms: C_6  and  C_4 
REMARK    6  A    between atoms: C_4  and  O_9 
REMARK    7  A    between atoms: C_6  and  C_5 
REMARK    8  A    between atoms: C_5  and  O_10 
REMARK    9  A    between atoms: C_6  and  O_11 
ROOT
HETATM    1  C   UNK N   1      -0.091  -1.038   0.394  0.00  0.00     0.180 C 
ENDROOT
BRANCH   1   2
HETATM    2  C   UNK N   1      -1.333  -1.694  -0.261  0.00  0.00     0.173 C 
BRANCH   2   3
HETATM    3  C   UNK N   1      -2.611  -1.446   0.538  0.00  0.00     0.198 C 
BRANCH   3   4
HETATM    4  O   UNK N   1      -3.049  -0.129   0.394  0.00  0.00    -0.398 OA
HETATM    5  H   UNK N   1      -2.408   0.592   0.294  0.00  0.00     0.209 HD
ENDBRANCH   3   4
ENDBRANCH   2   3
BRANCH   2   6
HETATM    6  O   UNK N   1      -1.159  -3.076  -0.343  0.00  0.00    -0.391 OA
HETATM    7  H   UNK N   1      -1.931  -3.661  -0.401  0.00  0.00     0.210 HD
ENDBRANCH   2   6
ENDBRANCH   1   2
BRANCH   1   8
HETATM    8  C   UNK N   1       1.208  -1.295  -0.420  0.00  0.00     0.177 C 
BRANCH   8   9
HETATM    9  C   UNK N   1       2.461  -0.684   0.241  0.00  0.00     0.145 C 
HETATM   10  C   UNK N   1       3.702  -1.002  -0.577  0.00  0.00     0.042 C 
BRANCH   9  11
HETATM   11  O   UNK N   1       2.347   0.703   0.344  0.00  0.00    -0.393 OA
HETATM   12  H   UNK N   1       3.143   1.253   0.416  0.00  0.00     0.210 HD
ENDBRANCH   9  11
ENDBRANCH   8   9
BRANCH   8  13
HETATM   13  O   UNK N   1       1.414  -2.672  -0.555  0.00  0.00    -0.390 OA
HETATM   14  H   UNK N   1       0.659  -3.273  -0.648  0.00  0.00     0.210 HD
ENDBRANCH   8  13
ENDBRANCH   1   8
BRANCH   1  15
HETATM   15  O   UNK N   1      -0.305   0.340   0.504  0.00  0.00    -0.390 OA
HETATM   16  H   UNK N   1       0.447   0.947   0.580  0.00  0.00     0.210 HD
ENDBRANCH   1  15
TORSDOF 9
