REMARK  7 active torsions:
REMARK  status: ('A' for Active; 'I' for Inactive)
REMARK    1  A    between atoms: C_2  and  C_3 
REMARK    2  A    between atoms: C_3  and  C_4 
REMARK    3  A    between atoms: C_4  and  C_5 
REMARK    4  A    between atoms: C_5  and  C_6 
REMARK    5  A    between atoms: C_6  and  C_7 
REMARK    6  A    between atoms: C_7  and  C_8 
REMARK    7  A    between atoms: C_11  and  O_12 
ROOT
HETATM    1  C   UNK N   1       2.114  -3.023   0.000  0.00  0.00    -0.058 A 
HETATM    2  C   UNK N   1       3.393  -2.453  -0.000  0.00  0.00     0.010 A 
HETATM    3  C   UNK N   1       4.528  -3.273  -0.000  0.00  0.00     0.037 A 
HETATM    4  C   UNK N   1       4.390  -4.665  -0.000  0.00  0.00     0.065 A 
HETATM    5  C   UNK N   1       3.119  -5.240   0.000  0.00  0.00     0.037 A 
HETATM    6  C   UNK N   1       1.988  -4.425   0.000  0.00  0.00     0.010 A 
ENDROOT
BRANCH   1   7
HETATM    7  C   UNK N   1       0.903  -2.126   0.000  0.00  0.00     0.038 C 
BRANCH   7   8
HETATM    8  C   UNK N   1      -0.384  -2.937   0.000  0.00  0.00     0.005 C 
BRANCH   8   9
HETATM    9  C   UNK N   1      -1.636  -2.094  -0.000  0.00  0.00     0.000 C 
BRANCH   9  10
HETATM   10  C   UNK N   1      -2.783  -3.081  -0.000  0.00  0.00     0.000 C 
BRANCH  10  11
HETATM   11  C   UNK N   1      -4.130  -2.399  -0.000  0.00  0.00    -0.000 C 
BRANCH  11  12
HETATM   12  C   UNK N   1      -5.189  -3.482  -0.000  0.00  0.00    -0.005 C 
HETATM   13  C   UNK N   1      -6.568  -2.862  -0.000  0.00  0.00     0.005 C 
ENDBRANCH  11  12
ENDBRANCH  10  11
ENDBRANCH   9  10
ENDBRANCH   8   9
ENDBRANCH   7   8
ENDBRANCH   1   7
BRANCH   4  14
HETATM   14  O   UNK N   1       5.478  -5.451  -0.000  0.00  0.00    -0.361 OA
HETATM   15  H   UNK N   1       5.383  -6.383  -0.000  0.00  0.00     0.217 HD
ENDBRANCH   4  14
TORSDOF 7
