REMARK  0 active torsions:
REMARK  status: ('A' for Active; 'I' for Inactive)
ROOT
HETATM    1  C   UNK N   1      -0.648   1.931   0.000  0.00  0.00     0.049 C 
HETATM    2  C   UNK N   1      -0.545   0.443  -0.000  0.00  0.00    -0.055 A 
HETATM    3  C   UNK N   1      -1.722  -0.310  -0.000  0.00  0.00     0.007 A 
HETATM    4  C   UNK N   1      -1.669  -1.703  -0.000  0.00  0.00     0.002 A 
HETATM    5  C   UNK N   1      -0.437  -2.351  -0.000  0.00  0.00     0.017 A 
HETATM    6  C   UNK N   1       0.753  -1.610  -0.000  0.00  0.00     0.038 A 
HETATM    7  C   UNK N   1       0.707  -0.208  -0.000  0.00  0.00    -0.035 A 
HETATM    8  C   UNK N   1       1.973   0.604  -0.000  0.00  0.00     0.060 A 
HETATM    9  C   UNK N   1       3.301  -0.169  -0.000  0.00  0.00     0.127 A 
HETATM   10  N   UNK N   1       3.204  -1.616   0.000  0.00  0.00    -0.357 N 
HETATM   11  C   UNK N   1       2.043  -2.310   0.000  0.00  0.00     0.252 A 
HETATM   12  O   UNK N   1       2.074  -3.530   0.000  0.00  0.00    -0.268 OA
HETATM   13  H   UNK N   1       4.044  -2.131   0.000  0.00  0.00     0.162 HD
ENDROOT
TORSDOF 0
