REMARK  4 active torsions:
REMARK  status: ('A' for Active; 'I' for Inactive)
REMARK    1  A    between atoms: C_2  and  C_1 
REMARK    2  A    between atoms: C_3  and  C_1 
REMARK    3  A    between atoms: C_1  and  N_7 
REMARK    4  A    between atoms: O_9  and  C_2 
ROOT
HETATM    1  C   UNK N   1       1.539   1.048   0.081  0.00  0.00     0.282 C 
ENDROOT
BRANCH   1   2
HETATM    2  C   UNK N   1       0.883  -0.252   0.478  0.00  0.00     0.172 C 
HETATM    3  O   UNK N   1       1.560  -1.265   0.567  0.00  0.00    -0.648 OA
BRANCH   2   4
HETATM    4  O   UNK N   1      -0.442  -0.320   0.717  0.00  0.00    -0.775 OA
HETATM    5  H   UNK N   1      -0.943   0.454   0.883  0.00  0.00     0.167 HD
ENDBRANCH   2   4
ENDBRANCH   1   2
BRANCH   1   6
HETATM    6  C   UNK N   1       0.562   2.228  -0.037  0.00  0.00     0.416 C 
HETATM    7  F   UNK N   1       0.010   2.532   1.196  0.00  0.00    -0.168 F 
HETATM    8  F   UNK N   1      -0.453   1.927  -0.928  0.00  0.00    -0.168 F 
HETATM    9  F   UNK N   1       1.241   3.339  -0.507  0.00  0.00    -0.168 F 
ENDBRANCH   1   6
BRANCH   1  10
HETATM   10  N   UNK N   1       2.576   1.376   1.048  0.00  0.00    -0.411 N 
HETATM   11  H   UNK N   1       3.138   0.861   1.725  0.00  0.00     0.151 HD
HETATM   12  H   UNK N   1       2.796   2.372   1.048  0.00  0.00     0.151 HD
ENDBRANCH   1  10
TORSDOF 4
