REMARK  9 active torsions:
REMARK  status: ('A' for Active; 'I' for Inactive)
REMARK    1  A    between atoms: C_2  and  N_1 
REMARK    2  A    between atoms: C_2  and  C_3 
REMARK    3  A    between atoms: C_2  and  C_11 
REMARK    4  A    between atoms: C_3  and  C_4 
REMARK    5  A    between atoms: C_4  and  C_5 
REMARK    6  A    between atoms: C_4  and  C_8 
REMARK    7  A    between atoms: C_5  and  O_6 
REMARK    8  A    between atoms: C_8  and  O_9 
REMARK    9  A    between atoms: C_11  and  O_12 
ROOT
HETATM    1  C   UNK N   1       3.842  -0.744  -0.475  0.00  0.00     0.061 C 
ENDROOT
BRANCH   1   2
HETATM    2  C   UNK N   1       4.774   0.159   0.333  0.00  0.00     0.174 C 
BRANCH   2   3
HETATM    3  N   UNK N   1       4.431   1.557   0.115  0.00  0.00    -0.418 N 
HETATM    4  H   UNK N   1       5.160   2.255  -0.037  0.00  0.00     0.150 HD
HETATM    5  H   UNK N   1       3.452   1.842   0.115  0.00  0.00     0.150 HD
ENDBRANCH   2   3
BRANCH   2   6
HETATM    6  C   UNK N   1       6.215  -0.078  -0.016  0.00  0.00     0.163 C 
HETATM    7  O   UNK N   1       6.702  -1.192   0.145  0.00  0.00    -0.648 OA
BRANCH   6   8
HETATM    8  O   UNK N   1       6.991   0.924  -0.465  0.00  0.00    -0.775 OA
HETATM    9  H   UNK N   1       7.866   0.805  -0.777  0.00  0.00     0.167 HD
ENDBRANCH   6   8
ENDBRANCH   2   6
ENDBRANCH   1   2
BRANCH   1  10
HETATM   10  C   UNK N   1       2.561  -1.046   0.312  0.00  0.00     0.183 C 
BRANCH  10  11
HETATM   11  C   UNK N   1       2.139  -2.484   0.077  0.00  0.00     0.154 C 
HETATM   12  O   UNK N   1       2.942  -3.383   0.279  0.00  0.00    -0.649 OA
BRANCH  11  13
HETATM   13  O   UNK N   1       0.891  -2.801  -0.319  0.00  0.00    -0.776 OA
HETATM   14  H   UNK N   1       0.266  -2.159  -0.594  0.00  0.00     0.167 HD
ENDBRANCH  11  13
ENDBRANCH  10  11
BRANCH  10  15
HETATM   15  C   UNK N   1       1.490   0.006   0.073  0.00  0.00     0.154 C 
HETATM   16  O   UNK N   1       1.730   1.178   0.318  0.00  0.00    -0.649 OA
BRANCH  15  17
HETATM   17  O   UNK N   1       0.265  -0.324  -0.377  0.00  0.00    -0.776 OA
HETATM   18  H   UNK N   1      -0.360   0.299  -0.691  0.00  0.00     0.167 HD
ENDBRANCH  15  17
ENDBRANCH  10  15
ENDBRANCH   1  10
TORSDOF 9
