REMARK  4 active torsions:
REMARK  status: ('A' for Active; 'I' for Inactive)
REMARK    1  A    between atoms: O_1  and  C_2 
REMARK    2  A    between atoms: C_3  and  C_2 
REMARK    3  A    between atoms: C_7  and  O_8 
REMARK    4  A    between atoms: C_9  and  O_10 
ROOT
HETATM    1  C   UNK N   1       1.795   0.756   0.193  0.00  0.00     0.206 C 
HETATM    2  O   UNK N   1       1.561  -0.545  -0.302  0.00  0.00    -0.275 OA
HETATM    3  N   UNK N   1       0.509  -1.048   0.401  0.00  0.00    -0.299 N 
HETATM    4  C   UNK N   1      -0.715  -0.416  -0.097  0.00  0.00     0.180 C 
HETATM    5  C   UNK N   1      -0.659   1.063   0.263  0.00  0.00     0.169 C 
HETATM    6  C   UNK N   1       0.639   1.657  -0.271  0.00  0.00     0.182 C 
HETATM    7  H   UNK N   1       0.564  -1.744   1.145  0.00  0.00     0.187 HD
ENDROOT
BRANCH   1   8
HETATM    8  C   UNK N   1       3.141   1.241  -0.329  0.00  0.00     0.201 C 
BRANCH   8   9
HETATM    9  O   UNK N   1       3.460   2.493   0.198  0.00  0.00    -0.398 OA
HETATM   10  H   UNK N   1       4.324   2.737   0.565  0.00  0.00     0.209 HD
ENDBRANCH   8   9
ENDBRANCH   1   8
BRANCH   6  11
HETATM   11  O   UNK N   1       0.786   2.958   0.213  0.00  0.00    -0.390 OA
HETATM   12  H   UNK N   1       1.620   3.322   0.549  0.00  0.00     0.210 HD
ENDBRANCH   6  11
BRANCH   5  13
HETATM   13  O   UNK N   1      -1.760   1.735  -0.269  0.00  0.00    -0.391 OA
HETATM   14  H   UNK N   1      -1.737   2.632  -0.639  0.00  0.00     0.210 HD
ENDBRANCH   5  13
TORSDOF 4
