REMARK  5 active torsions:
REMARK  status: ('A' for Active; 'I' for Inactive)
REMARK    1  A    between atoms: C_2  and  N_1 
REMARK    2  A    between atoms: C_2  and  C_3 
REMARK    3  A    between atoms: C_2  and  C_6 
REMARK    4  A    between atoms: C_3  and  O_4 
REMARK    5  A    between atoms: C_10  and  O_11 
ROOT
HETATM    1  C   UNK N   1       0.721  -0.511  -0.001  0.00  0.00    -0.024 A 
HETATM    2  C   UNK N   1      -0.552   0.072  -0.000  0.00  0.00     0.036 A 
HETATM    3  C   UNK N   1      -0.692   1.462   0.001  0.00  0.00     0.067 A 
HETATM    4 Cl   UNK N   1      -2.301   2.159   0.002  0.00  0.00    -0.081 Cl
HETATM    5  C   UNK N   1       0.449   2.280   0.001  0.00  0.00     0.087 A 
HETATM    6  C   UNK N   1       1.720   1.701  -0.000  0.00  0.00     0.039 A 
HETATM    7  C   UNK N   1       1.854   0.313  -0.001  0.00  0.00     0.012 A 
ENDROOT
BRANCH   1   8
HETATM    8  C   UNK N   1       0.864  -2.009  -0.002  0.00  0.00     0.207 C 
BRANCH   8   9
HETATM    9  N   UNK N   1      -0.350  -2.813  -0.000  0.00  0.00    -0.414 N 
HETATM   10  H   UNK N   1      -1.263  -2.358   0.001  0.00  0.00     0.151 HD
HETATM   11  H   UNK N   1      -0.287  -3.831  -0.000  0.00  0.00     0.151 HD
ENDBRANCH   8   9
BRANCH   8  12
HETATM   12  C   UNK N   1       2.179  -2.740  -0.000  0.00  0.00     0.167 C 
HETATM   13  O   UNK N   1       3.231  -2.126   0.000  0.00  0.00    -0.648 OA
BRANCH  12  14
HETATM   14  O   UNK N   1       2.197  -4.087   0.000  0.00  0.00    -0.775 OA
HETATM   15  H   UNK N   1       1.392  -4.566   0.001  0.00  0.00     0.167 HD
ENDBRANCH  12  14
ENDBRANCH   8  12
ENDBRANCH   1   8
BRANCH   5  16
HETATM   16  O   UNK N   1       0.331   3.618   0.001  0.00  0.00    -0.359 OA
HETATM   17  H   UNK N   1       1.098   4.156   0.002  0.00  0.00     0.217 HD
ENDBRANCH   5  16
TORSDOF 5
