REMARK  14 active torsions:
REMARK  status: ('A' for Active; 'I' for Inactive)
REMARK    1  A    between atoms: C_2  and  C_3 
REMARK    2  A    between atoms: C_3  and  C_4 
REMARK    3  A    between atoms: C_4  and  C_5 
REMARK    4  A    between atoms: C_5  and  C_6 
REMARK    5  A    between atoms: C_6  and  C_7 
REMARK    6  A    between atoms: C_7  and  C_8 
REMARK    7  A    between atoms: C_8  and  C_9 
REMARK    8  A    between atoms: C_9  and  C_10 
REMARK    9  A    between atoms: C_10  and  C_11 
REMARK   10  A    between atoms: C_11  and  C_12 
REMARK   11  A    between atoms: C_12  and  C_13 
REMARK   12  A    between atoms: C_13  and  C_14 
REMARK   13  A    between atoms: C_14  and  C_15 
REMARK   14  A    between atoms: C_15  and  C_16 
ROOT
HETATM    1  C   UNK N   1      13.696   5.500  -0.000  0.00  0.00     0.000 C 
ENDROOT
BRANCH   1   2
HETATM    2  C   UNK N   1      12.491   4.593   0.000  0.00  0.00     0.000 C 
BRANCH   2   3
HETATM    3  C   UNK N   1      11.259   5.461   0.000  0.00  0.00     0.000 C 
BRANCH   3   4
HETATM    4  C   UNK N   1      10.019   4.601   0.000  0.00  0.00     0.000 C 
BRANCH   4   5
HETATM    5  C   UNK N   1       8.826   5.524  -0.000  0.00  0.00     0.000 C 
BRANCH   5   6
HETATM    6  C   UNK N   1       7.544   4.729   0.000  0.00  0.00     0.000 C 
BRANCH   6   7
HETATM    7  C   UNK N   1       6.394   5.710  -0.000  0.00  0.00    -0.000 C 
BRANCH   7   8
HETATM    8  C   UNK N   1       5.078   4.968   0.000  0.00  0.00    -0.005 C 
HETATM    9  C   UNK N   1       3.950   5.977   0.000  0.00  0.00     0.005 C 
ENDBRANCH   7   8
ENDBRANCH   6   7
ENDBRANCH   5   6
ENDBRANCH   4   5
ENDBRANCH   3   4
ENDBRANCH   2   3
ENDBRANCH   1   2
BRANCH   1  10
HETATM   10  C   UNK N   1      14.956   4.672  -0.000  0.00  0.00     0.000 C 
BRANCH  10  11
HETATM   11  C   UNK N   1      16.133   5.615  -0.000  0.00  0.00     0.000 C 
BRANCH  11  12
HETATM   12  C   UNK N   1      17.419   4.826  -0.000  0.00  0.00     0.000 C 
BRANCH  12  13
HETATM   13  C   UNK N   1      18.568   5.806   0.000  0.00  0.00     0.000 C 
BRANCH  13  14
HETATM   14  C   UNK N   1      19.879   5.059   0.000  0.00  0.00     0.007 C 
BRANCH  14  15
HETATM   15  C   UNK N   1      21.013   6.070   0.000  0.00  0.00     0.069 C 
BRANCH  15  16
HETATM   16  C   UNK N   1      22.365   5.423  -0.000  0.00  0.00     0.231 C 
HETATM   17  O   UNK N   1      22.493   4.208  -0.000  0.00  0.00    -0.307 OA
ENDBRANCH  15  16
ENDBRANCH  14  15
ENDBRANCH  13  14
ENDBRANCH  12  13
ENDBRANCH  11  12
ENDBRANCH  10  11
ENDBRANCH   1  10
TORSDOF 14
