REMARK  8 active torsions:
REMARK  status: ('A' for Active; 'I' for Inactive)
REMARK    1  A    between atoms: C_2  and  N_1 
REMARK    2  A    between atoms: C_11  and  C_14 
REMARK    3  A    between atoms: C_12  and  O_15 
REMARK    4  A    between atoms: C_13  and  N_16 
REMARK    5  A    between atoms: C_14  and  O_17 
REMARK    6  A    between atoms: O_17  and  P_18 
REMARK    7  A    between atoms: P_18  and  O_19 
REMARK    8  A    between atoms: P_18  and  O_20 
ROOT
HETATM    1  C   UNK N   1       0.868  -0.587  -0.514  0.00  0.00     0.235 C 
HETATM    2  O   UNK N   1      -0.162   0.352  -0.699  0.00  0.00    -0.356 OA
HETATM    3  C   UNK N   1       0.442  -1.496   0.616  0.00  0.00     0.088 C 
HETATM    4  C   UNK N   1      -1.349  -0.367  -0.478  0.00  0.00     0.177 C 
HETATM    5  C   UNK N   1      -1.052  -1.511   0.476  0.00  0.00     0.153 C 
ENDROOT
BRANCH   1   6
HETATM    6  N   UNK N   1       2.164   0.059  -0.238  0.00  0.00    -0.282 N 
HETATM    7  C   UNK N   1       3.322  -0.689  -0.116  0.00  0.00     0.330 A 
HETATM    8  N   UNK N   1       4.527  -0.067   0.082  0.00  0.00    -0.295 N 
HETATM    9  O   UNK N   1       3.284  -1.907  -0.198  0.00  0.00    -0.246 OA
HETATM   10  C   UNK N   1       4.609   1.285   0.162  0.00  0.00     0.103 A 
ATOM     11  HN  UNK N   1       5.374  -0.629   0.170  1.00  0.00     0.172 HD
HETATM   12  C   UNK N   1       3.459   2.058   0.055  0.00  0.00     0.065 A 
HETATM   13  C   UNK N   1       2.238   1.420  -0.149  0.00  0.00     0.102 A 
BRANCH  10  14
HETATM   14  N   UNK N   1       5.861   1.906   0.339  0.00  0.00    -0.385 N 
HETATM   15  H   UNK N   1       6.674   1.365   0.462  0.00  0.00     0.157 HD
HETATM   16  H   UNK N   1       5.923   2.889   0.339  0.00  0.00     0.157 HD
ENDBRANCH  10  14
ENDBRANCH   1   6
BRANCH   4  17
HETATM   17  C   UNK N   1      -2.410   0.573   0.089  0.00  0.00     0.215 C 
BRANCH  17  18
HETATM   18  O   UNK N   1      -3.481  -0.134   0.653  0.00  0.00    -0.294 OA
BRANCH  18  19
HETATM   19  P   UNK N   1      -4.748  -0.154  -0.539  0.00  0.00     0.390 P 
HETATM   20  O   UNK N   1      -5.291   0.873   0.491  0.00  0.00    -0.632 OA
BRANCH  19  21
HETATM   21  O   UNK N   1      -4.581  -1.717   0.199  0.00  0.00    -0.307 OA
HETATM   22  H   UNK N   1      -5.290  -2.234   0.611  0.00  0.00     0.222 HD
ENDBRANCH  19  21
BRANCH  19  23
HETATM   23  O   UNK N   1      -6.298  -0.810  -0.117  0.00  0.00    -0.307 OA
HETATM   24  H   UNK N   1      -7.049  -0.243   0.118  0.00  0.00     0.222 HD
ENDBRANCH  19  23
ENDBRANCH  18  19
ENDBRANCH  17  18
ENDBRANCH   4  17
BRANCH   5  25
HETATM   25  O   UNK N   1      -1.467  -2.707  -0.113  0.00  0.00    -0.393 OA
HETATM   26  H   UNK N   1      -2.331  -2.872  -0.522  0.00  0.00     0.210 HD
ENDBRANCH   5  25
TORSDOF 8
