REMARK  6 active torsions:
REMARK  status: ('A' for Active; 'I' for Inactive)
REMARK    1  A    between atoms: C_4  and  C_3 
REMARK    2  A    between atoms: S_11  and  C_3 
REMARK    3  A    between atoms: C_5  and  C_4 
REMARK    4  A    between atoms: C_4  and  N_7 
REMARK    5  A    between atoms: O_9  and  C_5 
REMARK    6  A    between atoms: S_11  and  As_6 
ROOT
HETATM    1  C   UNK N   1      -1.646   0.708  -0.221  0.00  0.00     0.183 C 
ENDROOT
BRANCH   1   2
HETATM    2  C   UNK N   1      -0.695   0.474   0.943  0.00  0.00     0.121 C 
BRANCH   2   3
HETATM    3  S   UNK N   1       0.192  -1.122   0.861  0.00  0.00    -0.095 SA
BRANCH   3   4
HETATM    4 As   UNK N   1       1.758  -0.469  -0.660  0.00  0.00     0.000 As
HETATM    5  C   UNK N   1       3.559   0.152  -0.173  0.00  0.00     0.000 C 
HETATM    6  C   UNK N   1       2.229   0.306   1.090  0.00  0.00     0.000 C 
HETATM    7  O   UNK N   1       2.404  -1.965  -0.436  0.00  0.00     0.000 OA
ENDBRANCH   3   4
ENDBRANCH   2   3
ENDBRANCH   1   2
BRANCH   1   8
HETATM    8  C   UNK N   1      -2.272   2.064  -0.044  0.00  0.00     0.163 C 
HETATM    9  O   UNK N   1      -3.484   2.184   0.061  0.00  0.00    -0.648 OA
BRANCH   8  10
HETATM   10  O   UNK N   1      -1.490   3.159   0.010  0.00  0.00    -0.775 OA
HETATM   11  H   UNK N   1      -0.558   3.069   0.048  0.00  0.00     0.167 HD
ENDBRANCH   8  10
ENDBRANCH   1   8
BRANCH   1  12
HETATM   12  N   UNK N   1      -2.663  -0.334  -0.255  0.00  0.00    -0.417 N 
HETATM   13  H   UNK N   1      -3.651  -0.082  -0.278  0.00  0.00     0.150 HD
HETATM   14  H   UNK N   1      -2.387  -1.316  -0.255  0.00  0.00     0.150 HD
ENDBRANCH   1  12
TORSDOF 6
