REMARK  10 active torsions:
REMARK  status: ('A' for Active; 'I' for Inactive)
REMARK    1  A    between atoms: C_8  and  C_3 
REMARK    2  A    between atoms: N_14  and  C_3 
REMARK    3  A    between atoms: C_7  and  C_4 
REMARK    4  A    between atoms: O_24  and  C_4 
REMARK    5  A    between atoms: N_14  and  C_9 
REMARK    6  A    between atoms: O_18  and  C_10 
REMARK    7  A    between atoms: O_19  and  C_11 
REMARK    8  A    between atoms: P_25  and  O_20 
REMARK    9  A    between atoms: P_25  and  O_21 
REMARK   10  A    between atoms: P_25  and  O_24 
ROOT
HETATM    1  C   UNK N   1       6.363   5.371   0.306  0.00  0.00     0.071 C 
HETATM    2  C   UNK N   1       2.730   4.944  -0.380  0.00  0.00     0.098 A 
HETATM    3  C   UNK N   1       5.041   4.715   0.099  0.00  0.00     0.039 A 
HETATM    4  C   UNK N   1       2.549   3.562  -0.343  0.00  0.00    -0.008 A 
HETATM    5  C   UNK N   1       3.649   2.722  -0.067  0.00  0.00     0.004 A 
HETATM    6  C   UNK N   1       4.918   3.317   0.155  0.00  0.00     0.096 A 
HETATM    7  N   UNK N   1       3.954   5.486  -0.158  0.00  0.00    -0.367 N 
ATOM      8  HN  UNK N   1       4.060   6.501  -0.185  1.00  0.00     0.165 HD
ENDROOT
BRANCH   5   9
HETATM    9  C   UNK N   1       3.409   1.229  -0.051  0.00  0.00     0.162 C 
BRANCH   9  10
HETATM   10  N   UNK N   1       4.557   0.414   0.261  0.00  0.00    -0.384 N 
ATOM     11  HN  UNK N   1       5.411   0.859   0.597  1.00  0.00     0.160 HD
BRANCH  10  12
HETATM   12  C   UNK N   1       4.523  -0.866   0.124  0.00  0.00     0.085 A 
HETATM   13  C   UNK N   1       5.647  -1.807   0.415  0.00  0.00     0.262 A 
HETATM   14  O   UNK N   1       5.044  -3.020   0.067  0.00  0.00    -0.272 OA
HETATM   15  N   UNK N   1       3.797  -2.892  -0.359  0.00  0.00    -0.243 N 
HETATM   16  C   UNK N   1       3.435  -1.680  -0.350  0.00  0.00     0.185 A 
ATOM     17  HN  UNK N   1       3.206  -3.668  -0.656  1.00  0.00     0.196 HD
BRANCH  16  18
HETATM   18  O   UNK N   1       2.214  -1.266  -0.743  0.00  0.00    -0.343 OA
HETATM   19  H   UNK N   1       2.038  -0.386  -1.015  0.00  0.00     0.219 HD
ENDBRANCH  16  18
ENDBRANCH  10  12
ENDBRANCH   9  10
ENDBRANCH   5   9
BRANCH   4  20
HETATM   20  C   UNK N   1       1.186   3.025  -0.663  0.00  0.00     0.221 C 
BRANCH  20  21
HETATM   21  O   UNK N   1       0.627   2.328   0.415  0.00  0.00    -0.292 OA
BRANCH  21  22
HETATM   22  P   UNK N   1      -0.492   1.216  -0.324  0.00  0.00     0.391 P 
HETATM   23  O   UNK N   1       0.162   0.325   0.764  0.00  0.00    -0.632 OA
BRANCH  22  24
HETATM   24  O   UNK N   1      -1.867   0.609   0.544  0.00  0.00    -0.307 OA
HETATM   25  H   UNK N   1      -2.545   1.105   1.029  0.00  0.00     0.222 HD
ENDBRANCH  22  24
BRANCH  22  26
HETATM   26  O   UNK N   1      -1.385   2.497   0.440  0.00  0.00    -0.307 OA
HETATM   27  H   UNK N   1      -1.016   3.286   0.866  0.00  0.00     0.222 HD
ENDBRANCH  22  26
ENDBRANCH  21  22
ENDBRANCH  20  21
ENDBRANCH   4  20
BRANCH   6  28
HETATM   28  O   UNK N   1       6.009   2.569   0.403  0.00  0.00    -0.358 OA
HETATM   29  H   UNK N   1       5.937   1.650   0.576  0.00  0.00     0.217 HD
ENDBRANCH   6  28
TORSDOF 10
