REMARK  1 active torsions:
REMARK  status: ('A' for Active; 'I' for Inactive)
REMARK    1  A    between atoms: C_13  and  N_14 
ROOT
HETATM    1  C   UNK N   1      -1.196   1.774   0.007  0.00  0.00     0.158 C 
HETATM    2  N   UNK N   1      -0.708   0.406   0.003  0.00  0.00    -0.332 N 
HETATM    3  C   UNK N   1      -1.492  -0.701   0.004  0.00  0.00     0.184 A 
HETATM    4  N   UNK N   1      -0.744  -1.838   0.001  0.00  0.00    -0.346 N 
ATOM      5  HN  UNK N   1      -1.074  -2.803   0.001  1.00  0.00     0.167 HD
HETATM    6  C   UNK N   1       0.529  -1.402  -0.002  0.00  0.00     0.122 A 
HETATM    7  C   UNK N   1       0.556  -0.052  -0.001  0.00  0.00     0.142 A 
HETATM    8  N   UNK N   1       1.732   0.644  -0.001  0.00  0.00    -0.332 N 
HETATM    9  C   UNK N   1       1.789   2.096   0.005  0.00  0.00     0.158 C 
HETATM   10  C   UNK N   1       2.901  -0.070  -0.006  0.00  0.00     0.185 A 
HETATM   11  N   UNK N   1       2.883  -1.443  -0.006  0.00  0.00    -0.337 N 
ATOM     12  HN  UNK N   1       3.764  -1.957  -0.009  1.00  0.00     0.168 HD
HETATM   13  C   UNK N   1       1.703  -2.130  -0.004  0.00  0.00     0.131 A 
ENDROOT
BRANCH  13  14
HETATM   14  N   UNK N   1       1.689  -3.538   0.001  0.00  0.00    -0.383 N 
HETATM   15  H   UNK N   1       0.832  -4.022   0.004  0.00  0.00     0.157 HD
HETATM   16  H   UNK N   1       2.537  -4.039   0.001  0.00  0.00     0.157 HD
ENDBRANCH  13  14
TORSDOF 1
