REMARK  3 active torsions:
REMARK  status: ('A' for Active; 'I' for Inactive)
REMARK    1  A    between atoms: N_2  and  C_4 
REMARK    2  A    between atoms: C_7  and  C_10 
REMARK    3  A    between atoms: C_10  and  C_11 
ROOT
HETATM    1  C   UNK N   1       2.373  -4.074   0.169  0.00  0.00    -0.005 C 
HETATM    2  C   UNK N   1       1.193  -4.809   0.089  0.00  0.00    -0.024 A 
HETATM    3  C   UNK N   1       1.168  -6.300   0.028  0.00  0.00     0.014 A 
HETATM    4  C   UNK N   1       0.023  -6.991  -0.085  0.00  0.00     0.030 A 
HETATM    5  C   UNK N   1      -1.290  -6.291  -0.152  0.00  0.00     0.029 A 
HETATM    6  C   UNK N   1      -1.284  -4.813  -0.096  0.00  0.00     0.030 A 
HETATM    7  C   UNK N   1      -0.138  -4.139   0.016  0.00  0.00     0.014 A 
HETATM    8  N   UNK N   1      -2.406  -6.951  -0.252  0.00  0.00    -0.390 N 
HETATM    9  C   UNK N   1      -3.676  -6.262  -0.313  0.00  0.00     0.149 C 
HETATM   10  C   UNK N   1      -2.422  -8.392  -0.303  0.00  0.00     0.149 C 
ENDROOT
BRANCH   1  11
HETATM   11  C   UNK N   1       2.319  -2.542   0.222  0.00  0.00    -0.024 A 
HETATM   12  C   UNK N   1       3.424  -1.764  -0.169  0.00  0.00     0.014 A 
HETATM   13  C   UNK N   1       3.350  -0.369  -0.224  0.00  0.00     0.030 A 
HETATM   14  C   UNK N   1       2.161   0.294   0.114  0.00  0.00     0.029 A 
HETATM   15  C   UNK N   1       1.068  -0.463   0.546  0.00  0.00     0.030 A 
HETATM   16  C   UNK N   1       1.151  -1.852   0.597  0.00  0.00     0.014 A 
BRANCH  14  17
HETATM   17  N   UNK N   1       2.053   1.712  -0.011  0.00  0.00    -0.390 N 
HETATM   18  C   UNK N   1       0.806   2.383   0.260  0.00  0.00     0.149 C 
HETATM   19  C   UNK N   1       3.160   2.497  -0.496  0.00  0.00     0.149 C 
ENDBRANCH  14  17
ENDBRANCH   1  11
BRANCH   1  20
HETATM   20  C   UNK N   1       3.745  -4.761   0.157  0.00  0.00    -0.024 A 
HETATM   21  C   UNK N   1       4.920  -4.026   0.412  0.00  0.00     0.012 A 
HETATM   22  C   UNK N   1       6.182  -4.628   0.389  0.00  0.00     0.001 A 
HETATM   23  C   UNK N   1       6.299  -5.988   0.113  0.00  0.00     0.000 A 
HETATM   24  C   UNK N   1       5.155  -6.744  -0.134  0.00  0.00     0.001 A 
HETATM   25  C   UNK N   1       3.897  -6.136  -0.111  0.00  0.00     0.012 A 
ENDBRANCH   1  20
TORSDOF 3
