REMARK  9 active torsions:
REMARK  status: ('A' for Active; 'I' for Inactive)
REMARK    1  A    between atoms: C_4  and  C_2 
REMARK    2  A    between atoms: O_9  and  C_2 
REMARK    3  A    between atoms: C_3  and  O_10 
REMARK    4  A    between atoms: C_6  and  C_4 
REMARK    5  A    between atoms: C_4  and  O_11 
REMARK    6  A    between atoms: C_5  and  O_12 
REMARK    7  A    between atoms: C_8  and  C_7 
REMARK    8  A    between atoms: O_14  and  C_7 
REMARK    9  A    between atoms: C_8  and  O_15 
ROOT
HETATM    1  C   UNK N   1       2.121   1.013   1.119  0.00  0.00     0.114 C 
HETATM    2  C   UNK N   1       1.306   2.085   0.384  0.00  0.00     0.155 C 
HETATM    3  C   UNK N   1      -0.141   1.591   0.126  0.00  0.00     0.178 C 
HETATM    4  C   UNK N   1      -0.203   0.041   0.158  0.00  0.00     0.187 C 
HETATM    5  C   UNK N   1       2.093  -0.342   0.345  0.00  0.00     0.253 C 
HETATM    6  O   UNK N   1       0.944  -0.474  -0.497  0.00  0.00    -0.336 OA
ENDROOT
BRANCH   4   7
HETATM    7  C   UNK N   1      -1.483  -0.551  -0.456  0.00  0.00     0.173 C 
BRANCH   7   8
HETATM    8  C   UNK N   1      -2.718  -0.123   0.332  0.00  0.00     0.198 C 
BRANCH   8   9
HETATM    9  O   UNK N   1      -3.865  -0.727  -0.186  0.00  0.00    -0.398 OA
HETATM   10  H   UNK N   1      -4.626  -0.247  -0.546  0.00  0.00     0.209 HD
ENDBRANCH   8   9
ENDBRANCH   7   8
BRANCH   7  11
HETATM   11  O   UNK N   1      -1.396  -1.946  -0.430  0.00  0.00    -0.391 OA
HETATM   12  H   UNK N   1      -2.204  -2.482  -0.412  0.00  0.00     0.210 HD
ENDBRANCH   7  11
ENDBRANCH   4   7
BRANCH   3  13
HETATM   13  O   UNK N   1      -1.003   2.103   1.099  0.00  0.00    -0.390 OA
HETATM   14  H   UNK N   1      -0.995   2.798   1.775  0.00  0.00     0.210 HD
ENDBRANCH   3  13
BRANCH   2  15
HETATM   15  O   UNK N   1       1.931   2.361  -0.834  0.00  0.00    -0.393 OA
HETATM   16  H   UNK N   1       2.314   2.081  -1.680  0.00  0.00     0.210 HD
ENDBRANCH   2  15
BRANCH   5  17
HETATM   17  C   UNK N   1       3.330  -0.472  -0.510  0.00  0.00     0.205 C 
HETATM   18  O   UNK N   1       3.542   0.316  -1.418  0.00  0.00    -0.646 OA
BRANCH  17  19
HETATM   19  O   UNK N   1       4.206  -1.471  -0.289  0.00  0.00    -0.772 OA
HETATM   20  H   UNK N   1       3.909  -2.347  -0.135  0.00  0.00     0.167 HD
ENDBRANCH  17  19
ENDBRANCH   5  17
BRANCH   5  21
HETATM   21  O   UNK N   1       2.095  -1.381   1.283  0.00  0.00    -0.357 OA
HETATM   22  H   UNK N   1       1.471  -1.742   1.932  0.00  0.00     0.213 HD
ENDBRANCH   5  21
TORSDOF 9
