REMARK  7 active torsions:
REMARK  status: ('A' for Active; 'I' for Inactive)
REMARK    1  A    between atoms: C_3  and  C_2 
REMARK    2  A    between atoms: C_4  and  C_2 
REMARK    3  A    between atoms: C_5  and  C_3 
REMARK    4  A    between atoms: O_9  and  C_4 
REMARK    5  A    between atoms: C_6  and  C_5 
REMARK    6  A    between atoms: C_5  and  N_7 
REMARK    7  A    between atoms: O_11  and  C_6 
ROOT
HETATM    1  C   UNK N   1       0.395  -0.274  -0.052  0.00  0.00     0.177 C 
ENDROOT
BRANCH   1   2
HETATM    2  C   UNK N   1       1.387   0.768   0.524  0.00  0.00     0.024 C 
HETATM    3  C   UNK N   1       1.608   1.926  -0.444  0.00  0.00     0.013 C 
BRANCH   2   4
HETATM    4  C   UNK N   1       2.732   0.145   0.939  0.00  0.00     0.116 C 
BRANCH   4   5
HETATM    5  C   UNK N   1       3.608  -0.318  -0.188  0.00  0.00     0.139 C 
HETATM    6  O   UNK N   1       3.846  -1.506  -0.325  0.00  0.00    -0.650 OA
BRANCH   5   7
HETATM    7  O   UNK N   1       4.196   0.580  -1.001  0.00  0.00    -0.776 OA
HETATM    8  H   UNK N   1       4.941   0.539  -1.567  0.00  0.00     0.167 HD
ENDBRANCH   5   7
ENDBRANCH   4   5
ENDBRANCH   2   4
ENDBRANCH   1   2
BRANCH   1   9
HETATM    9  C   UNK N   1      -0.987   0.298  -0.290  0.00  0.00     0.163 C 
HETATM   10  O   UNK N   1      -1.865  -0.415  -0.752  0.00  0.00    -0.648 OA
BRANCH   9  11
HETATM   11  O   UNK N   1      -1.274   1.578   0.020  0.00  0.00    -0.775 OA
HETATM   12  H   UNK N   1      -0.603   2.196   0.235  0.00  0.00     0.167 HD
ENDBRANCH   9  11
ENDBRANCH   1   9
BRANCH   1  13
HETATM   13  N   UNK N   1       0.270  -1.391   0.873  0.00  0.00    -0.417 N 
HETATM   14  H   UNK N   1      -0.451  -1.706   1.522  0.00  0.00     0.150 HD
HETATM   15  H   UNK N   1       1.091  -1.996   0.873  0.00  0.00     0.150 HD
ENDBRANCH   1  13
TORSDOF 7
