REMARK  5 active torsions:
REMARK  status: ('A' for Active; 'I' for Inactive)
REMARK    1  A    between atoms: C_2  and  N_1 
REMARK    2  A    between atoms: C_2  and  C_3 
REMARK    3  A    between atoms: C_2  and  C_7 
REMARK    4  A    between atoms: C_3  and  C_4 
REMARK       I    between atoms: C_4  and  N_5 
REMARK    5  A    between atoms: C_7  and  O_8 
ROOT
HETATM    1  C   UNK N   1       2.303   0.829  -0.000  0.00  0.00     0.182 C 
ENDROOT
BRANCH   1   2
HETATM    2  N   UNK N   1       2.246  -0.628   0.000  0.00  0.00    -0.417 N 
HETATM    3  H   UNK N   1       1.343  -1.103   0.000  0.00  0.00     0.150 HD
HETATM    4  H   UNK N   1       3.109  -1.172   0.000  0.00  0.00     0.150 HD
ENDBRANCH   1   2
BRANCH   1   5
HETATM    5  C   UNK N   1       1.032   1.685   0.000  0.00  0.00     0.138 C 
BRANCH   5   6
HETATM    6  C   UNK N   1      -0.312   1.014  -0.000  0.00  0.00     0.217 C 
HETATM    7  N   UNK N   1      -1.419   1.777   0.000  0.00  0.00    -0.370 N 
HETATM    8  H   UNK N   1      -1.341   2.759   0.000  0.00  0.00     0.159 HD
HETATM    9  H   UNK N   1      -2.308   1.354   0.000  0.00  0.00     0.159 HD
HETATM   10  O   UNK N   1      -0.419  -0.203  -0.000  0.00  0.00    -0.274 OA
ENDBRANCH   5   6
ENDBRANCH   1   5
BRANCH   1  11
HETATM   11  C   UNK N   1       3.649   1.482   0.000  0.00  0.00     0.163 C 
HETATM   12  O   UNK N   1       3.728   2.705   0.000  0.00  0.00    -0.648 OA
BRANCH  11  13
HETATM   13  O   UNK N   1       4.771   0.745   0.000  0.00  0.00    -0.775 OA
HETATM   14  H   UNK N   1       4.717  -0.191   0.000  0.00  0.00     0.167 HD
ENDBRANCH  11  13
ENDBRANCH   1  11
TORSDOF 5
