REMARK  3 active torsions:
REMARK  status: ('A' for Active; 'I' for Inactive)
REMARK    1  A    between atoms: C_2  and  C_3 
REMARK    2  A    between atoms: C_3  and  C_4 
REMARK    3  A    between atoms: C_4  and  N_5 
ROOT
HETATM    1  C   UNK N   1       0.658   0.608  -0.000  0.00  0.00     0.111 C 
ENDROOT
BRANCH   1   2
HETATM    2  C   UNK N   1       1.180  -0.813   0.000  0.00  0.00     0.019 C 
BRANCH   2   3
HETATM    3  C   UNK N   1       2.692  -0.771   0.000  0.00  0.00    -0.003 C 
HETATM    4  C   UNK N   1       3.245  -2.180  -0.000  0.00  0.00     0.005 C 
ENDBRANCH   2   3
ENDBRANCH   1   2
BRANCH   1   5
HETATM    5  N   UNK N   1      -0.790   0.598   0.000  0.00  0.00    -0.430 N 
HETATM    6  H   UNK N   1      -1.306   1.478   0.000  0.00  0.00     0.149 HD
HETATM    7  H   UNK N   1      -1.294  -0.289   0.000  0.00  0.00     0.149 HD
ENDBRANCH   1   5
TORSDOF 3
