REMARK  6 active torsions:
REMARK  status: ('A' for Active; 'I' for Inactive)
REMARK    1  A    between atoms: C_2  and  N_4 
REMARK       I    between atoms: N_4  and  C_5 
REMARK    2  A    between atoms: N_4  and  C_15 
REMARK    3  A    between atoms: C_5  and  C_7 
REMARK    4  A    between atoms: C_16  and  C_26 
REMARK    5  A    between atoms: C_18  and  C_20 
REMARK    6  A    between atoms: C_26  and  O_27 
ROOT
HETATM    1  C   UNK N   1       1.140  -1.756  -0.029  0.00  0.00     0.063 A 
HETATM    2  C   UNK N   1       2.282  -2.617   0.115  0.00  0.00     0.106 A 
HETATM    3  S   UNK N   1       1.688  -4.169   0.210  0.00  0.00    -0.081 SA
HETATM    4  C   UNK N   1       0.072  -3.877   0.083  0.00  0.00     0.018 A 
HETATM    5  C   UNK N   1      -0.088  -2.501  -0.045  0.00  0.00     0.051 A 
ENDROOT
BRANCH   1   6
HETATM    6  N   UNK N   1       1.142  -0.303  -0.164  0.00  0.00    -0.308 N 
HETATM    7  C   UNK N   1      -0.006   0.427   0.183  0.00  0.00     0.260 C 
HETATM    8  O   UNK N   1      -0.966  -0.179   0.633  0.00  0.00    -0.267 OA
BRANCH   6   9
HETATM    9  C   UNK N   1       2.298   0.303  -0.815  0.00  0.00     0.085 C 
HETATM   10  C   UNK N   1       3.157   1.197   0.070  0.00  0.00     0.032 C 
HETATM   11  C   UNK N   1       1.942   0.945  -2.149  0.00  0.00     0.032 C 
ENDBRANCH   6   9
BRANCH   7  12
HETATM   12  C   UNK N   1      -0.170   1.937   0.099  0.00  0.00     0.054 A 
HETATM   13  C   UNK N   1      -1.464   2.544   0.100  0.00  0.00     0.051 A 
HETATM   14 Cl   UNK N   1      -2.968   1.626   0.053  0.00  0.00    -0.083 Cl
HETATM   15  C   UNK N   1      -1.589   3.938   0.112  0.00  0.00     0.048 A 
HETATM   16  C   UNK N   1      -0.461   4.753   0.132  0.00  0.00     0.035 A 
HETATM   17 Cl   UNK N   1      -0.636   6.493   0.183  0.00  0.00    -0.084 Cl
HETATM   18  C   UNK N   1       0.804   4.180   0.119  0.00  0.00     0.025 A 
HETATM   19  C   UNK N   1       0.938   2.793   0.102  0.00  0.00     0.020 A 
ENDBRANCH   7  12
ENDBRANCH   1   6
BRANCH   2  20
HETATM   20  C   UNK N   1       3.741  -2.375   0.250  0.00  0.00     0.185 C 
HETATM   21  O   UNK N   1       4.206  -1.257   0.300  0.00  0.00    -0.646 OA
BRANCH  20  22
HETATM   22  O   UNK N   1       4.573  -3.427   0.380  0.00  0.00    -0.772 OA
HETATM   23  H   UNK N   1       4.230  -4.294   0.471  0.00  0.00     0.167 HD
ENDBRANCH  20  22
ENDBRANCH   2  20
BRANCH   4  24
HETATM   24  C   UNK N   1      -1.009  -4.877   0.113  0.00  0.00    -0.019 A 
HETATM   25  C   UNK N   1      -0.716  -6.236   0.297  0.00  0.00     0.013 A 
HETATM   26  C   UNK N   1      -1.747  -7.180   0.334  0.00  0.00     0.001 A 
HETATM   27  C   UNK N   1      -3.075  -6.771   0.184  0.00  0.00     0.000 A 
HETATM   28  C   UNK N   1      -3.374  -5.419  -0.002  0.00  0.00     0.001 A 
HETATM   29  C   UNK N   1      -2.345  -4.474  -0.035  0.00  0.00     0.013 A 
ENDBRANCH   4  24
TORSDOF 6
