REMARK  18 active torsions:
REMARK  status: ('A' for Active; 'I' for Inactive)
REMARK    1  A    between atoms: C_5  and  C_1 
REMARK    2  A    between atoms: O_31  and  C_1 
REMARK    3  A    between atoms: P_35  and  C_4 
REMARK    4  A    between atoms: P_36  and  C_4 
REMARK    5  A    between atoms: C_7  and  O_20 
REMARK    6  A    between atoms: C_8  and  O_21 
REMARK    7  A    between atoms: N_12  and  C_9 
REMARK    8  A    between atoms: C_11  and  N_19 
REMARK    9  A    between atoms: P_35  and  O_22 
REMARK   10  A    between atoms: P_36  and  O_24 
REMARK   11  A    between atoms: P_37  and  O_26 
REMARK   12  A    between atoms: P_37  and  O_27 
REMARK   13  A    between atoms: P_38  and  O_29 
REMARK   14  A    between atoms: P_38  and  O_31 
REMARK   15  A    between atoms: P_35  and  O_33 
REMARK   16  A    between atoms: P_37  and  O_33 
REMARK   17  A    between atoms: P_36  and  O_34 
REMARK   18  A    between atoms: P_38  and  O_34 
ROOT
HETATM    1  C   UNK N   1       0.059  -0.559  -0.711  0.00  0.00     0.180 C 
HETATM    2  C   UNK N   1       1.152  -1.597  -0.848  0.00  0.00     0.182 C 
HETATM    3  C   UNK N   1       2.274  -0.933  -0.083  0.00  0.00     0.198 C 
HETATM    4  C   UNK N   1       1.525   0.078   0.830  0.00  0.00     0.262 C 
HETATM    5  O   UNK N   1       0.140  -0.152   0.636  0.00  0.00    -0.353 OA
ENDROOT
BRANCH   1   6
HETATM    6  C   UNK N   1      -1.307  -1.128  -1.079  0.00  0.00     0.215 C 
BRANCH   6   7
HETATM    7  O   UNK N   1      -2.315  -0.685  -0.225  0.00  0.00    -0.294 OA
BRANCH   7   8
HETATM    8  P   UNK N   1      -2.784  -2.100   0.684  0.00  0.00     0.400 P 
HETATM    9  O   UNK N   1      -1.541  -2.659   1.431  0.00  0.00    -0.631 OA
BRANCH   8  10
HETATM   10  O   UNK N   1      -3.879  -1.618   1.941  0.00  0.00    -0.307 OA
HETATM   11  H   UNK N   1      -3.952  -0.954   2.643  0.00  0.00     0.222 HD
ENDBRANCH   8  10
BRANCH   8  12
HETATM   12  O   UNK N   1      -3.545  -3.346  -0.293  0.00  0.00    -0.218 OA
BRANCH  12  13
HETATM   13  P   UNK N   1      -2.347  -4.518  -0.810  0.00  0.00     0.258 P 
HETATM   14  O   UNK N   1      -1.376  -3.766  -1.754  0.00  0.00    -0.653 OA
BRANCH  13  15
HETATM   15  C   UNK N   1      -1.377  -5.492   0.522  0.00  0.00     0.250 C 
BRANCH  15  16
HETATM   16  P   UNK N   1      -2.229  -7.035   1.242  0.00  0.00     0.258 P 
HETATM   17  O   UNK N   1      -1.656  -7.180  -0.193  0.00  0.00    -0.653 OA
BRANCH  16  18
HETATM   18  O   UNK N   1      -2.802  -5.490   1.786  0.00  0.00    -0.328 OA
HETATM   19  H   UNK N   1      -2.214  -4.780   2.090  0.00  0.00     0.220 HD
ENDBRANCH  16  18
BRANCH  16  20
HETATM   20  O   UNK N   1      -3.803  -7.140   0.497  0.00  0.00    -0.218 OA
BRANCH  20  21
HETATM   21  P   UNK N   1      -4.165  -8.834   0.298  0.00  0.00     0.398 P 
HETATM   22  O   UNK N   1      -4.137  -9.512   1.694  0.00  0.00    -0.631 OA
BRANCH  21  23
HETATM   23  O   UNK N   1      -3.014  -9.644  -0.721  0.00  0.00    -0.307 OA
HETATM   24  H   UNK N   1      -3.085 -10.427  -1.289  0.00  0.00     0.222 HD
ENDBRANCH  21  23
BRANCH  21  25
HETATM   25  O   UNK N   1      -5.772  -9.036  -0.325  0.00  0.00    -0.307 OA
HETATM   26  H   UNK N   1      -6.319  -8.315  -0.673  0.00  0.00     0.222 HD
ENDBRANCH  21  25
ENDBRANCH  20  21
ENDBRANCH  16  20
ENDBRANCH  15  16
ENDBRANCH  13  15
BRANCH  13  27
HETATM   27  O   UNK N   1      -3.171  -5.562  -1.925  0.00  0.00    -0.328 OA
HETATM   28  H   UNK N   1      -3.906  -5.455  -2.548  0.00  0.00     0.220 HD
ENDBRANCH  13  27
ENDBRANCH  12  13
ENDBRANCH   8  12
ENDBRANCH   7   8
ENDBRANCH   6   7
ENDBRANCH   1   6
BRANCH   2  29
HETATM   29  O   UNK N   1       0.774  -2.756  -0.161  0.00  0.00    -0.390 OA
HETATM   30  H   UNK N   1      -0.053  -2.931   0.315  0.00  0.00     0.210 HD
ENDBRANCH   2  29
BRANCH   3  31
HETATM   31  O   UNK N   1       3.144  -0.301  -0.973  0.00  0.00    -0.388 OA
HETATM   32  H   UNK N   1       3.827  -0.605  -1.592  0.00  0.00     0.210 HD
ENDBRANCH   3  31
BRANCH   4  33
HETATM   33  N   UNK N   1       1.825   1.489   0.516  0.00  0.00    -0.297 N 
HETATM   34  C   UNK N   1       0.920   2.447   0.168  0.00  0.00     0.188 A 
HETATM   35  N   UNK N   1       1.521   3.646  -0.060  0.00  0.00    -0.346 N 
HETATM   36  C   UNK N   1       2.827   3.409   0.155  0.00  0.00     0.122 A 
ATOM     37  HN  UNK N   1       1.081   4.525  -0.333  1.00  0.00     0.167 HD
HETATM   38  C   UNK N   1       3.909   4.265   0.056  0.00  0.00     0.131 A 
HETATM   39  C   UNK N   1       3.008   2.121   0.507  0.00  0.00     0.142 A 
HETATM   40  N   UNK N   1       5.150   3.758   0.319  0.00  0.00    -0.337 N 
HETATM   41  C   UNK N   1       5.315   2.441   0.675  0.00  0.00     0.183 A 
ATOM     42  HN  UNK N   1       5.966   4.366   0.250  1.00  0.00     0.168 HD
HETATM   43  N   UNK N   1       4.233   1.607   0.776  0.00  0.00    -0.336 N 
ATOM     44  HN  UNK N   1       4.346   0.629   1.044  1.00  0.00     0.168 HD
BRANCH  38  45
HETATM   45  N   UNK N   1       3.744   5.617  -0.307  0.00  0.00    -0.383 N 
HETATM   46  H   UNK N   1       4.504   6.189  -0.561  0.00  0.00     0.157 HD
HETATM   47  H   UNK N   1       2.838   6.002  -0.307  0.00  0.00     0.157 HD
ENDBRANCH  38  45
ENDBRANCH   4  33
TORSDOF 18
