REMARK  11 active torsions:
REMARK  status: ('A' for Active; 'I' for Inactive)
REMARK    1  A    between atoms: C_5  and  C_4 
REMARK    2  A    between atoms: C_12  and  C_4 
REMARK    3  A    between atoms: O_27  and  C_5 
REMARK    4  A    between atoms: C_14  and  C_9 
REMARK    5  A    between atoms: C_9  and  O_21 
REMARK    6  A    between atoms: P_29  and  O_22 
REMARK    7  A    between atoms: P_29  and  O_23 
REMARK    8  A    between atoms: P_30  and  O_25 
REMARK    9  A    between atoms: P_30  and  O_27 
REMARK   10  A    between atoms: P_29  and  O_28 
REMARK   11  A    between atoms: P_30  and  O_28 
ROOT
HETATM    1  C   UNK N   1      -0.760  -0.885  -0.722  0.00  0.00     0.069 C 
HETATM    2  C   UNK N   1       6.941   2.005   0.873  0.00  0.00     0.089 C 
HETATM    3  C   UNK N   1       4.313  -0.050  -0.790  0.00  0.00     0.102 A 
HETATM    4  C   UNK N   1       1.903   0.424  -1.365  0.00  0.00     0.170 C 
HETATM    5  C   UNK N   1      -0.270   0.414  -0.158  0.00  0.00     0.019 C 
HETATM    6  C   UNK N   1       5.635   1.583   0.300  0.00  0.00     0.078 A 
HETATM    7  C   UNK N   1       3.216   0.809  -0.754  0.00  0.00     0.019 A 
HETATM    8  C   UNK N   1      -0.823   1.023   0.879  0.00  0.00     0.006 C 
HETATM    9  C   UNK N   1       3.369   2.062  -0.164  0.00  0.00     0.114 A 
HETATM   10  C   UNK N   1       0.899   2.495  -0.235  0.00  0.00     0.189 C 
HETATM   11  N   UNK N   1       5.501   0.348  -0.254  0.00  0.00    -0.355 N 
ATOM     12  HN  UNK N   1       6.298  -0.288  -0.268  1.00  0.00     0.166 HD
HETATM   13  N   UNK N   1       4.576   2.429   0.344  0.00  0.00    -0.332 N 
ATOM     14  HN  UNK N   1       4.687   3.353   0.764  1.00  0.00     0.168 HD
HETATM   15  N   UNK N   1       2.269   2.932  -0.037  0.00  0.00    -0.338 N 
HETATM   16  N   UNK N   1       0.811   1.120  -0.711  0.00  0.00    -0.342 N 
HETATM   17  S   UNK N   1       0.054   2.498   1.394  0.00  0.00    -0.076 SA
HETATM   18  H   UNK N   1       2.435   3.874   0.196  0.00  0.00     0.164 HD
ENDROOT
BRANCH   8  19
HETATM   19  C   UNK N   1      -2.034   0.539   1.603  0.00  0.00     0.075 C 
BRANCH  19  20
HETATM   20  C   UNK N   1      -3.275   0.965   0.832  0.00  0.00     0.185 C 
BRANCH  20  21
HETATM   21  O   UNK N   1      -3.985   1.926   1.561  0.00  0.00    -0.296 OA
BRANCH  21  22
HETATM   22  P   UNK N   1      -3.818   3.447   0.713  0.00  0.00     0.401 P 
HETATM   23  O   UNK N   1      -3.873   3.208  -0.823  0.00  0.00    -0.631 OA
BRANCH  22  24
HETATM   24  O   UNK N   1      -2.286   4.177   1.050  0.00  0.00    -0.307 OA
HETATM   25  H   UNK N   1      -1.502   3.638   1.240  0.00  0.00     0.222 HD
ENDBRANCH  22  24
BRANCH  22  26
HETATM   26  O   UNK N   1      -5.074   4.607   1.198  0.00  0.00    -0.195 OA
BRANCH  26  27
HETATM   27  P   UNK N   1      -6.685   4.416   0.457  0.00  0.00     0.399 P 
HETATM   28  O   UNK N   1      -6.489   2.915   0.803  0.00  0.00    -0.631 OA
BRANCH  27  29
HETATM   29  O   UNK N   1      -6.782   3.593  -1.067  0.00  0.00    -0.307 OA
HETATM   30  H   UNK N   1      -7.207   3.410  -1.919  0.00  0.00     0.222 HD
ENDBRANCH  27  29
BRANCH  27  31
HETATM   31  O   UNK N   1      -5.681   5.099  -0.786  0.00  0.00    -0.307 OA
HETATM   32  H   UNK N   1      -5.071   4.805  -1.480  0.00  0.00     0.222 HD
ENDBRANCH  27  31
ENDBRANCH  26  27
ENDBRANCH  22  26
ENDBRANCH  21  22
ENDBRANCH  20  21
ENDBRANCH  19  20
ENDBRANCH   8  19
BRANCH  10  33
HETATM   33  C   UNK N   1       0.123   3.440  -1.178  0.00  0.00     0.174 C 
HETATM   34  C   UNK N   1       0.684   3.434  -2.588  0.00  0.00     0.044 C 
BRANCH  33  35
HETATM   35  O   UNK N   1       0.149   4.746  -0.684  0.00  0.00    -0.391 OA
HETATM   36  H   UNK N   1       0.944   5.184  -0.342  0.00  0.00     0.210 HD
ENDBRANCH  33  35
ENDBRANCH  10  33
TORSDOF 11
