REMARK WARNING: 32 MAX_TORS EXCEEDED!!!
REMARK  37 active torsions:
REMARK  status: ('A' for Active; 'I' for Inactive)
REMARK    1  A    between atoms: C_5  and  C_4 
REMARK    2  A    between atoms: C_6  and  C_5 
REMARK    3  A    between atoms: C_10  and  C_6 
REMARK    4  A    between atoms: C_8  and  C_7 
REMARK    5  A    between atoms: C_18  and  C_7 
REMARK    6  A    between atoms: N_32  and  C_8 
REMARK    7  A    between atoms: C_11  and  C_9 
REMARK    8  A    between atoms: N_30  and  C_9 
REMARK    9  A    between atoms: S_61  and  C_10 
REMARK   10  A    between atoms: S_62  and  C_11 
REMARK   11  A    between atoms: C_17  and  C_12 
REMARK   12  A    between atoms: O_53  and  C_12 
REMARK   13  A    between atoms: C_19  and  C_13 
REMARK   14  A    between atoms: S_61  and  C_13 
REMARK   15  A    between atoms: C_28  and  C_14 
REMARK   16  A    between atoms: O_54  and  C_14 
REMARK   17  A    between atoms: N_30  and  C_18 
REMARK   18  A    between atoms: O_41  and  C_18 
REMARK   19  A    between atoms: S_62  and  C_19 
REMARK   20  A    between atoms: C_21  and  O_43 
REMARK   21  A    between atoms: C_22  and  O_56 
REMARK   22  A    between atoms: C_26  and  C_23 
REMARK   23  A    between atoms: C_28  and  C_23 
REMARK   24  A    between atoms: C_23  and  O_44 
REMARK   25  A    between atoms: N_29  and  C_24 
REMARK   26  A    between atoms: N_32  and  C_26 
REMARK   27  A    between atoms: O_45  and  C_26 
REMARK   28  A    between atoms: C_27  and  N_40 
REMARK   29  A    between atoms: P_58  and  O_46 
REMARK   30  A    between atoms: P_58  and  O_47 
REMARK   31  A    between atoms: P_59  and  O_49 
REMARK   32  A    between atoms: P_60  and  O_51 
REMARK   33  A    between atoms: P_59  and  O_53 
REMARK   34  A    between atoms: P_60  and  O_54 
REMARK   35  A    between atoms: P_58  and  O_56 
REMARK   36  A    between atoms: P_59  and  O_57 
REMARK   37  A    between atoms: P_60  and  O_57 
ROOT
HETATM    1  O   UNK N   1      10.377  22.741  -1.404  0.00  0.00    -0.195 OA
ENDROOT
BRANCH   1   2
HETATM    2  P   UNK N   1       9.420  23.946  -0.580  0.00  0.00     0.401 P 
HETATM    3  O   UNK N   1      10.514  23.423   0.381  0.00  0.00    -0.631 OA
BRANCH   2   4
HETATM    4  O   UNK N   1       9.986  24.582  -2.104  0.00  0.00    -0.307 OA
HETATM    5  H   UNK N   1      10.450  24.486  -2.950  0.00  0.00     0.222 HD
ENDBRANCH   2   4
BRANCH   2   6
HETATM    6  O   UNK N   1      10.157  25.429   0.108  0.00  0.00    -0.294 OA
BRANCH   6   7
HETATM    7  C   UNK N   1      11.340  25.923  -0.511  0.00  0.00     0.215 C 
BRANCH   7   8
HETATM    8  C   UNK N   1      12.474  26.100   0.503  0.00  0.00     0.180 C 
HETATM    9  C   UNK N   1      13.557  24.994   0.405  0.00  0.00     0.197 C 
HETATM   10  C   UNK N   1      14.682  25.744  -0.278  0.00  0.00     0.199 C 
HETATM   11  C   UNK N   1      14.493  27.086   0.400  0.00  0.00     0.262 C 
HETATM   12  O   UNK N   1      13.114  27.354   0.292  0.00  0.00    -0.353 OA
BRANCH   9  13
HETATM   13  O   UNK N   1      13.132  23.846  -0.336  0.00  0.00    -0.286 OA
BRANCH  13  14
HETATM   14  P   UNK N   1      13.499  22.229   0.334  0.00  0.00     0.391 P 
HETATM   15  O   UNK N   1      12.825  22.773   1.623  0.00  0.00    -0.632 OA
BRANCH  14  16
HETATM   16  O   UNK N   1      14.703  22.246   1.583  0.00  0.00    -0.307 OA
HETATM   17  H   UNK N   1      15.047  21.667   2.281  0.00  0.00     0.222 HD
ENDBRANCH  14  16
BRANCH  14  18
HETATM   18  O   UNK N   1      15.069  22.775  -0.150  0.00  0.00    -0.307 OA
HETATM   19  H   UNK N   1      15.774  22.167  -0.421  0.00  0.00     0.222 HD
ENDBRANCH  14  18
ENDBRANCH  13  14
ENDBRANCH   9  13
BRANCH  10  20
HETATM   20  O   UNK N   1      15.927  25.183   0.009  0.00  0.00    -0.388 OA
HETATM   21  H   UNK N   1      16.022  24.238   0.209  0.00  0.00     0.210 HD
ENDBRANCH  10  20
BRANCH  11  22
HETATM   22  N   UNK N   1      15.315  28.194  -0.105  0.00  0.00    -0.297 N 
HETATM   23  C   UNK N   1      14.881  29.447  -0.407  0.00  0.00     0.188 A 
HETATM   24  N   UNK N   1      15.925  30.292  -0.644  0.00  0.00    -0.346 N 
HETATM   25  C   UNK N   1      17.018  29.526  -0.484  0.00  0.00     0.122 A 
ATOM     26  HN  UNK N   1      15.886  31.282  -0.889  1.00  0.00     0.167 HD
HETATM   27  C   UNK N   1      18.363  29.866  -0.538  0.00  0.00     0.131 A 
HETATM   28  C   UNK N   1      16.654  28.265  -0.180  0.00  0.00     0.142 A 
HETATM   29  N   UNK N   1      19.283  28.880  -0.320  0.00  0.00    -0.337 N 
HETATM   30  C   UNK N   1      18.888  27.595  -0.041  0.00  0.00     0.183 A 
ATOM     31  HN  UNK N   1      20.278  29.103  -0.364  1.00  0.00     0.168 HD
HETATM   32  N   UNK N   1      17.559  27.286   0.054  0.00  0.00    -0.336 N 
ATOM     33  HN  UNK N   1      17.257  26.342   0.295  1.00  0.00     0.168 HD
BRANCH  27  34
HETATM   34  N   UNK N   1      18.774  31.194  -0.768  0.00  0.00    -0.383 N 
HETATM   35  H   UNK N   1      19.722  31.409  -0.928  0.00  0.00     0.157 HD
HETATM   36  H   UNK N   1      18.106  31.917  -0.768  0.00  0.00     0.157 HD
ENDBRANCH  27  34
ENDBRANCH  11  22
ENDBRANCH   7   8
ENDBRANCH   6   7
ENDBRANCH   2   6
ENDBRANCH   1   2
BRANCH   1  37
HETATM   37  P   UNK N   1       9.419  21.271  -1.472  0.00  0.00     0.401 P 
HETATM   38  O   UNK N   1       7.970  21.650  -1.887  0.00  0.00    -0.631 OA
BRANCH  37  39
HETATM   39  O   UNK N   1       9.999  20.222  -2.724  0.00  0.00    -0.307 OA
HETATM   40  H   UNK N   1       9.653  19.647  -3.425  0.00  0.00     0.222 HD
ENDBRANCH  37  39
BRANCH  37  41
HETATM   41  O   UNK N   1       9.313  20.431   0.052  0.00  0.00    -0.296 OA
BRANCH  41  42
HETATM   42  C   UNK N   1      10.611  20.423   0.574  0.00  0.00     0.192 C 
BRANCH  42  43
HETATM   43  C   UNK N   1      10.885  19.182   1.430  0.00  0.00     0.008 C 
HETATM   44  C   UNK N   1      12.179  19.443   2.184  0.00  0.00     0.020 C 
HETATM   45  C   UNK N   1       9.803  19.050   2.488  0.00  0.00     0.020 C 
BRANCH  43  46
HETATM   46  C   UNK N   1      11.083  17.903   0.562  0.00  0.00     0.202 C 
BRANCH  46  47
HETATM   47  C   UNK N   1       9.990  17.558  -0.440  0.00  0.00     0.141 C 
BRANCH  47  48
HETATM   48  N   UNK N   1       8.822  17.117  -0.116  0.00  0.00    -0.372 N 
ATOM     49  HN  UNK N   1       8.168  16.930  -0.876  1.00  0.00     0.161 HD
BRANCH  48  50
HETATM   50  C   UNK N   1       8.358  16.864   1.227  0.00  0.00     0.129 C 
BRANCH  50  51
HETATM   51  C   UNK N   1       7.037  17.584   1.521  0.00  0.00     0.103 C 
BRANCH  51  52
HETATM   52  C   UNK N   1       6.228  17.889   0.297  0.00  0.00     0.112 C 
BRANCH  52  53
HETATM   53  N   UNK N   1       5.837  19.099   0.088  0.00  0.00    -0.374 N 
ATOM     54  HN  UNK N   1       6.083  19.810   0.777  1.00  0.00     0.161 HD
BRANCH  53  55
HETATM   55  C   UNK N   1       5.068  19.505  -1.071  0.00  0.00     0.132 C 
BRANCH  55  56
HETATM   56  C   UNK N   1       3.739  18.755  -1.231  0.00  0.00     0.102 C 
BRANCH  56  57
HETATM   57  S   UNK N   1       2.960  18.260   0.348  0.00  0.00    -0.090 SA
BRANCH  57  58
HETATM   58  C   UNK N   1       2.420  19.919   0.756  0.00  0.00     0.195 C 
HETATM   59  O   UNK N   1       3.186  20.679   1.324  0.00  0.00    -0.285 OA
BRANCH  58  60
HETATM   60  C   UNK N   1       1.019  20.352   0.479  0.00  0.00     0.164 C 
BRANCH  60  61
HETATM   61  S   UNK N   1       0.678  20.395  -1.308  0.00  0.00    -0.161 SA
BRANCH  61  62
HETATM   62  C   UNK N   1       0.015  18.700  -1.334  0.00  0.00     0.074 C 
BRANCH  62  63
HETATM   63  C   UNK N   1      -1.489  18.709  -1.131  0.00  0.00     0.010 C 
BRANCH  63  64
HETATM   64  C   UNK N   1      -1.818  18.876   0.343  0.00  0.00     0.000 C 
BRANCH  64  65
HETATM   65  C   UNK N   1      -3.315  19.023   0.542  0.00  0.00    -0.005 C 
HETATM   66  C   UNK N   1      -4.002  17.679   0.401  0.00  0.00     0.005 C 
ENDBRANCH  64  65
ENDBRANCH  63  64
ENDBRANCH  62  63
ENDBRANCH  61  62
ENDBRANCH  60  61
ENDBRANCH  58  60
ENDBRANCH  57  58
ENDBRANCH  56  57
ENDBRANCH  55  56
ENDBRANCH  53  55
ENDBRANCH  52  53
BRANCH  52  67
HETATM   67  O   UNK N   1       5.916  16.899  -0.568  0.00  0.00    -0.350 OA
HETATM   68  H   UNK N   1       5.213  16.743  -1.167  0.00  0.00     0.219 HD
ENDBRANCH  52  67
ENDBRANCH  51  52
ENDBRANCH  50  51
ENDBRANCH  48  50
ENDBRANCH  47  48
BRANCH  47  69
HETATM   69  O   UNK N   1      10.281  17.669  -1.749  0.00  0.00    -0.348 OA
HETATM   70  H   UNK N   1      10.449  17.531  -2.661  0.00  0.00     0.219 HD
ENDBRANCH  47  69
ENDBRANCH  46  47
BRANCH  46  71
HETATM   71  O   UNK N   1      11.353  16.791   1.366  0.00  0.00    -0.387 OA
HETATM   72  H   UNK N   1      10.779  16.243   1.924  0.00  0.00     0.210 HD
ENDBRANCH  46  71
ENDBRANCH  43  46
ENDBRANCH  42  43
ENDBRANCH  41  42
ENDBRANCH  37  41
ENDBRANCH   1  37
TORSDOF 37
