REMARK WARNING: 32 MAX_TORS EXCEEDED!!!
REMARK  41 active torsions:
REMARK  status: ('A' for Active; 'I' for Inactive)
REMARK    1  A    between atoms: C_5  and  C_4 
REMARK    2  A    between atoms: C_6  and  C_5 
REMARK    3  A    between atoms: C_8  and  C_6 
REMARK    4  A    between atoms: C_9  and  C_7 
REMARK    5  A    between atoms: C_10  and  C_7 
REMARK    6  A    between atoms: C_21  and  C_8 
REMARK    7  A    between atoms: C_21  and  C_9 
REMARK    8  A    between atoms: C_24  and  C_10 
REMARK    9  A    between atoms: C_12  and  C_11 
REMARK   10  A    between atoms: C_23  and  C_11 
REMARK   11  A    between atoms: N_37  and  C_12 
REMARK   12  A    between atoms: C_15  and  C_13 
REMARK   13  A    between atoms: N_35  and  C_13 
REMARK   14  A    between atoms: C_16  and  C_14 
REMARK   15  A    between atoms: S_66  and  C_15 
REMARK   16  A    between atoms: S_65  and  C_16 
REMARK   17  A    between atoms: C_22  and  C_17 
REMARK   18  A    between atoms: O_57  and  C_17 
REMARK   19  A    between atoms: C_33  and  C_18 
REMARK   20  A    between atoms: O_58  and  C_18 
REMARK   21  A    between atoms: C_21  and  S_65 
REMARK   22  A    between atoms: N_35  and  C_23 
REMARK   23  A    between atoms: O_45  and  C_23 
REMARK   24  A    between atoms: S_66  and  C_24 
REMARK   25  A    between atoms: C_26  and  O_47 
REMARK   26  A    between atoms: C_27  and  O_60 
REMARK   27  A    between atoms: C_31  and  C_28 
REMARK   28  A    between atoms: C_33  and  C_28 
REMARK   29  A    between atoms: N_34  and  C_29 
REMARK   30  A    between atoms: N_37  and  C_31 
REMARK   31  A    between atoms: C_31  and  O_49 
REMARK   32  A    between atoms: C_32  and  N_43 
REMARK   33  A    between atoms: P_62  and  O_51 
REMARK   34  A    between atoms: P_62  and  O_52 
REMARK   35  A    between atoms: P_63  and  O_53 
REMARK   36  A    between atoms: P_64  and  O_56 
REMARK   37  A    between atoms: P_63  and  O_57 
REMARK   38  A    between atoms: P_64  and  O_58 
REMARK   39  A    between atoms: P_62  and  O_60 
REMARK   40  A    between atoms: P_63  and  O_61 
REMARK   41  A    between atoms: P_64  and  O_61 
ROOT
HETATM    1  O   UNK N   1       7.779  17.402  -1.562  0.00  0.00    -0.631 OA
HETATM    2  P   UNK N   1       9.320  17.361  -1.365  0.00  0.00     0.401 P 
ENDROOT
BRANCH   2   3
HETATM    3  O   UNK N   1       9.844  16.124  -2.458  0.00  0.00    -0.307 OA
HETATM    4  H   UNK N   1       9.390  15.524  -3.071  0.00  0.00     0.222 HD
ENDBRANCH   2   3
BRANCH   2   5
HETATM    5  O   UNK N   1       9.682  16.908   0.300  0.00  0.00    -0.296 OA
BRANCH   5   6
HETATM    6  C   UNK N   1       8.494  16.894   1.055  0.00  0.00     0.197 C 
BRANCH   6   7
HETATM    7  C   UNK N   1       8.048  15.485   1.517  0.00  0.00     0.040 C 
HETATM    8  C   UNK N   1       9.178  14.747   2.221  0.00  0.00     0.025 C 
HETATM    9  C   UNK N   1       6.958  15.697   2.559  0.00  0.00     0.025 C 
BRANCH   7  10
HETATM   10  C   UNK N   1       7.542  14.677   0.327  0.00  0.00     0.184 C 
HETATM   11  O   UNK N   1       8.334  14.266  -0.501  0.00  0.00    -0.292 OA
BRANCH  10  12
HETATM   12  C   UNK N   1       6.081  14.470   0.048  0.00  0.00     0.285 C 
BRANCH  12  13
HETATM   13  N   UNK N   1       5.444  13.579   1.025  0.00  0.00    -0.391 N 
HETATM   14  H   UNK N   1       4.835  13.878   1.787  0.00  0.00     0.156 HD
BRANCH  13  15
HETATM   15  C   UNK N   1       5.821  12.190   0.733  0.00  0.00     0.124 C 
BRANCH  15  16
HETATM   16  C   UNK N   1       4.692  11.338   0.110  0.00  0.00     0.103 C 
BRANCH  16  17
HETATM   17  C   UNK N   1       3.516  12.115  -0.391  0.00  0.00     0.112 C 
BRANCH  17  18
HETATM   18  N   UNK N   1       3.685  13.014  -1.292  0.00  0.00    -0.374 N 
ATOM     19  HN  UNK N   1       4.598  13.111  -1.736  1.00  0.00     0.161 HD
BRANCH  18  20
HETATM   20  C   UNK N   1       2.617  13.886  -1.687  0.00  0.00     0.132 C 
BRANCH  20  21
HETATM   21  C   UNK N   1       2.834  15.194  -0.967  0.00  0.00     0.102 C 
BRANCH  21  22
HETATM   22  S   UNK N   1       2.543  15.030   0.837  0.00  0.00    -0.086 SA
BRANCH  22  23
HETATM   23  C   UNK N   1       1.946  16.678   0.735  0.00  0.00     0.208 C 
HETATM   24  O   UNK N   1       2.728  17.613   0.827  0.00  0.00    -0.281 OA
BRANCH  23  25
HETATM   25  C   UNK N   1       0.568  16.883   0.291  0.00  0.00     0.058 C 
BRANCH  25  26
HETATM   26  C   UNK N   1       0.291  17.907  -0.509  0.00  0.00    -0.021 C 
BRANCH  26  27
HETATM   27  C   UNK N   1      -1.096  18.213  -0.935  0.00  0.00     0.042 C 
BRANCH  27  28
HETATM   28  C   UNK N   1      -1.785  18.943   0.212  0.00  0.00     0.051 C 
BRANCH  28  29
HETATM   29  C   UNK N   1      -3.188  19.338  -0.202  0.00  0.00     0.015 C 
BRANCH  29  30
HETATM   30  C   UNK N   1      -3.962  19.864   0.996  0.00  0.00     0.001 C 
BRANCH  30  31
HETATM   31  C   UNK N   1      -5.042  20.819   0.537  0.00  0.00    -0.000 C 
BRANCH  31  32
HETATM   32  C   UNK N   1      -4.415  22.125   0.086  0.00  0.00    -0.005 C 
HETATM   33  C   UNK N   1      -5.485  23.018  -0.499  0.00  0.00     0.005 C 
ENDBRANCH  31  32
ENDBRANCH  30  31
ENDBRANCH  29  30
ENDBRANCH  28  29
BRANCH  28  34
HETATM   34  S   UNK N   1      -0.834  20.423   0.798  0.00  0.00    -0.157 SA
BRANCH  34  35
HETATM   35  C   UNK N   1      -0.293  21.049  -0.835  0.00  0.00     0.143 C 
BRANCH  35  36
HETATM   36  C   UNK N   1       1.135  21.506  -0.797  0.00  0.00     0.241 C 
HETATM   37  O   UNK N   1       2.048  20.721  -0.590  0.00  0.00    -0.306 OA
ENDBRANCH  35  36
ENDBRANCH  34  35
ENDBRANCH  28  34
ENDBRANCH  27  28
ENDBRANCH  26  27
ENDBRANCH  25  26
ENDBRANCH  23  25
ENDBRANCH  22  23
ENDBRANCH  21  22
ENDBRANCH  20  21
ENDBRANCH  18  20
ENDBRANCH  17  18
BRANCH  17  38
HETATM   38  O   UNK N   1       2.299  11.905   0.155  0.00  0.00    -0.350 OA
HETATM   39  H   UNK N   1       1.751  12.564   0.533  0.00  0.00     0.219 HD
ENDBRANCH  17  38
ENDBRANCH  16  17
ENDBRANCH  15  16
ENDBRANCH  13  15
ENDBRANCH  12  13
BRANCH  12  40
HETATM   40  O   UNK N   1       5.460  15.718   0.054  0.00  0.00    -0.370 OA
HETATM   41  H   UNK N   1       5.996  16.526   0.058  0.00  0.00     0.212 HD
ENDBRANCH  12  40
ENDBRANCH  10  12
ENDBRANCH   7  10
ENDBRANCH   6   7
ENDBRANCH   5   6
ENDBRANCH   2   5
BRANCH   2  42
HETATM   42  O   UNK N   1       9.925  18.875  -1.996  0.00  0.00    -0.195 OA
BRANCH  42  43
HETATM   43  P   UNK N   1      11.152  19.581  -0.970  0.00  0.00     0.401 P 
HETATM   44  O   UNK N   1      10.394  20.756  -0.297  0.00  0.00    -0.631 OA
BRANCH  43  45
HETATM   45  O   UNK N   1      12.369  20.402  -1.900  0.00  0.00    -0.307 OA
HETATM   46  H   UNK N   1      13.106  20.043  -2.418  0.00  0.00     0.222 HD
ENDBRANCH  43  45
BRANCH  43  47
HETATM   47  O   UNK N   1      11.808  18.696   0.385  0.00  0.00    -0.294 OA
BRANCH  47  48
HETATM   48  C   UNK N   1      12.500  17.553  -0.052  0.00  0.00     0.215 C 
BRANCH  48  49
HETATM   49  C   UNK N   1      13.047  16.861   1.211  0.00  0.00     0.180 C 
HETATM   50  C   UNK N   1      13.764  15.488   1.158  0.00  0.00     0.197 C 
HETATM   51  C   UNK N   1      15.095  15.883   0.672  0.00  0.00     0.199 C 
HETATM   52  C   UNK N   1      15.308  17.129   1.532  0.00  0.00     0.262 C 
HETATM   53  O   UNK N   1      14.035  17.746   1.732  0.00  0.00    -0.353 OA
BRANCH  50  54
HETATM   54  O   UNK N   1      13.276  14.284   0.596  0.00  0.00    -0.286 OA
BRANCH  54  55
HETATM   55  P   UNK N   1      12.469  14.397  -0.941  0.00  0.00     0.391 P 
HETATM   56  O   UNK N   1      12.990  15.563  -1.821  0.00  0.00    -0.632 OA
BRANCH  55  57
HETATM   57  O   UNK N   1      12.673  12.933  -1.850  0.00  0.00    -0.307 OA
HETATM   58  H   UNK N   1      12.021  12.426  -2.358  0.00  0.00     0.222 HD
ENDBRANCH  55  57
BRANCH  55  59
HETATM   59  O   UNK N   1      10.802  14.613  -0.620  0.00  0.00    -0.307 OA
HETATM   60  H   UNK N   1      10.436  15.493  -0.438  0.00  0.00     0.222 HD
ENDBRANCH  55  59
ENDBRANCH  54  55
ENDBRANCH  50  54
BRANCH  51  61
HETATM   61  O   UNK N   1      16.046  14.888   0.915  0.00  0.00    -0.388 OA
HETATM   62  H   UNK N   1      15.777  13.971   1.084  0.00  0.00     0.210 HD
ENDBRANCH  51  61
BRANCH  52  63
HETATM   63  N   UNK N   1      16.252  18.027   0.864  0.00  0.00    -0.297 N 
HETATM   64  C   UNK N   1      16.045  19.315   0.491  0.00  0.00     0.188 A 
HETATM   65  N   UNK N   1      17.124  19.816  -0.179  0.00  0.00    -0.346 N 
HETATM   66  C   UNK N   1      17.998  18.794  -0.214  0.00  0.00     0.122 A 
HETATM   67  H   UNK N   1      17.237  20.720  -0.551  0.00  0.00     0.167 HD
HETATM   68  C   UNK N   1      19.247  18.706  -0.809  0.00  0.00     0.131 A 
HETATM   69  C   UNK N   1      17.483  17.728   0.424  0.00  0.00     0.142 A 
HETATM   70  N   UNK N   1      19.919  17.519  -0.721  0.00  0.00    -0.337 N 
HETATM   71  C   UNK N   1      19.375  16.447  -0.057  0.00  0.00     0.183 A 
ATOM     72  HN  UNK N   1      20.838  17.428  -1.155  1.00  0.00     0.168 HD
HETATM   73  N   UNK N   1      18.140  16.549   0.522  0.00  0.00    -0.336 N 
ATOM     74  HN  UNK N   1      17.725  15.757   1.014  1.00  0.00     0.168 HD
BRANCH  68  75
HETATM   75  N   UNK N   1      19.802  19.794  -1.510  0.00  0.00    -0.383 N 
HETATM   76  H   UNK N   1      20.655  19.839  -2.000  0.00  0.00     0.157 HD
HETATM   77  H   UNK N   1      19.266  20.620  -1.510  0.00  0.00     0.157 HD
ENDBRANCH  68  75
ENDBRANCH  52  63
ENDBRANCH  48  49
ENDBRANCH  47  48
ENDBRANCH  43  47
ENDBRANCH  42  43
ENDBRANCH   2  42
TORSDOF 41
