REMARK  8 active torsions:
REMARK  status: ('A' for Active; 'I' for Inactive)
REMARK    1  A    between atoms: O_1  and  C_2 
REMARK    2  A    between atoms: C_2  and  C_3 
REMARK    3  A    between atoms: C_3  and  O_4 
REMARK    4  A    between atoms: C_3  and  C_5 
REMARK    5  A    between atoms: C_5  and  O_6 
REMARK    6  A    between atoms: C_5  and  C_7 
REMARK    7  A    between atoms: C_7  and  C_9 
REMARK    8  A    between atoms: C_9  and  O_10 
ROOT
HETATM    1  C   UNK N   1       3.827   1.596  -0.434  0.00  0.00     0.220 C 
ENDROOT
BRANCH   1   2
HETATM    2  C   UNK N   1       2.642   2.241   0.301  0.00  0.00     0.177 C 
BRANCH   2   3
HETATM    3  C   UNK N   1       1.314   1.651  -0.159  0.00  0.00     0.198 C 
BRANCH   3   4
HETATM    4  O   UNK N   1       1.173   0.337   0.290  0.00  0.00    -0.398 OA
HETATM    5  H   UNK N   1       0.333  -0.034   0.602  0.00  0.00     0.209 HD
ENDBRANCH   3   4
ENDBRANCH   2   3
BRANCH   2   6
HETATM    6  O   UNK N   1       2.614   3.616   0.059  0.00  0.00    -0.390 OA
HETATM    7  H   UNK N   1       3.432   4.110  -0.109  0.00  0.00     0.210 HD
ENDBRANCH   2   6
ENDBRANCH   1   2
BRANCH   1   8
HETATM    8  O   UNK N   1       3.839   0.218  -0.193  0.00  0.00    -0.385 OA
HETATM    9  H   UNK N   1       3.015  -0.266  -0.026  0.00  0.00     0.210 HD
ENDBRANCH   1   8
BRANCH   1  10
HETATM   10  C   UNK N   1       5.150   2.210  -0.033  0.00  0.00     0.181 C 
HETATM   11  O   UNK N   1       5.361   3.392  -0.257  0.00  0.00    -0.293 OA
BRANCH  10  12
HETATM   12  C   UNK N   1       6.221   1.396   0.628  0.00  0.00     0.245 C 
BRANCH  12  13
HETATM   13  O   UNK N   1       6.612   0.345  -0.203  0.00  0.00    -0.393 OA
HETATM   14  H   UNK N   1       6.115  -0.255  -0.780  0.00  0.00     0.209 HD
ENDBRANCH  12  13
ENDBRANCH  10  12
ENDBRANCH   1  10
TORSDOF 8
