REMARK  7 active torsions:
REMARK  status: ('A' for Active; 'I' for Inactive)
REMARK    1  A    between atoms: C_8  and  C_5 
REMARK    2  A    between atoms: C_11  and  C_6 
REMARK    3  A    between atoms: N_14  and  C_6 
REMARK    4  A    between atoms: C_12  and  C_7 
REMARK    5  A    between atoms: N_17  and  C_7 
REMARK    6  A    between atoms: O_18  and  C_9 
REMARK    7  A    between atoms: O_19  and  C_12 
ROOT
HETATM    1  C   UNK N   1      -0.248   1.193   0.031  0.00  0.00     0.046 C 
HETATM    2  C   UNK N   1      -1.553   0.874   0.117  0.00  0.00     0.103 A 
HETATM    3  C   UNK N   1      -3.383  -0.306   0.283  0.00  0.00     0.104 A 
HETATM    4  C   UNK N   1      -2.671   1.794   0.233  0.00  0.00     0.276 A 
HETATM    5  N   UNK N   1      -2.104  -0.432   0.159  0.00  0.00    -0.340 N 
ATOM      6  HN  UNK N   1      -1.585  -1.309   0.103  1.00  0.00     0.167 HD
HETATM    7  N   UNK N   1      -3.790   1.056   0.343  0.00  0.00    -0.290 N 
HETATM    8  O   UNK N   1      -2.623   3.013   0.284  0.00  0.00    -0.265 OA
ENDROOT
BRANCH   1   9
HETATM    9  C   UNK N   1       0.858   0.202   0.000  0.00  0.00    -0.034 A 
HETATM   10  C   UNK N   1       0.627  -1.181   0.084  0.00  0.00     0.014 A 
HETATM   11  C   UNK N   1       1.698  -2.078   0.107  0.00  0.00     0.037 A 
HETATM   12  C   UNK N   1       3.010  -1.601   0.048  0.00  0.00     0.065 A 
HETATM   13  C   UNK N   1       3.250  -0.228  -0.041  0.00  0.00     0.037 A 
HETATM   14  C   UNK N   1       2.178   0.669  -0.062  0.00  0.00     0.014 A 
BRANCH  12  15
HETATM   15  O   UNK N   1       4.039  -2.462   0.078  0.00  0.00    -0.361 OA
HETATM   16  H   UNK N   1       3.878  -3.385   0.100  0.00  0.00     0.217 HD
ENDBRANCH  12  15
ENDBRANCH   1   9
BRANCH   7  17
HETATM   17  C   UNK N   1      -5.138   1.529   0.596  0.00  0.00     0.243 C 
BRANCH  17  18
HETATM   18  C   UNK N   1      -5.629   2.495  -0.439  0.00  0.00     0.158 C 
HETATM   19  O   UNK N   1      -5.159   3.619  -0.505  0.00  0.00    -0.649 OA
BRANCH  18  20
HETATM   20  O   UNK N   1      -6.649   2.151  -1.245  0.00  0.00    -0.775 OA
HETATM   21  H   UNK N   1      -7.212   2.647  -1.806  0.00  0.00     0.167 HD
ENDBRANCH  18  20
ENDBRANCH  17  18
ENDBRANCH   7  17
BRANCH   3  22
HETATM   22  C   UNK N   1      -4.303  -1.480   0.391  0.00  0.00     0.188 C 
BRANCH  22  23
HETATM   23  N   UNK N   1      -5.212  -1.505  -0.740  0.00  0.00    -0.424 N 
HETATM   24  H   UNK N   1      -5.546  -0.961  -1.535  0.00  0.00     0.150 HD
HETATM   25  H   UNK N   1      -5.697  -2.402  -0.740  0.00  0.00     0.150 HD
ENDBRANCH  22  23
ENDBRANCH   3  22
TORSDOF 7
