REMARK WARNING: 32 MAX_TORS EXCEEDED!!!
REMARK  34 active torsions:
REMARK  status: ('A' for Active; 'I' for Inactive)
REMARK    1  A    between atoms: C_8  and  C_7 
REMARK    2  A    between atoms: C_20  and  C_7 
REMARK    3  A    between atoms: N_33  and  C_8 
REMARK    4  A    between atoms: C_10  and  C_9 
REMARK    5  A    between atoms: N_31  and  C_9 
REMARK    6  A    between atoms: S_63  and  C_10 
REMARK    7  A    between atoms: C_19  and  C_11 
REMARK    8  A    between atoms: O_55  and  C_11 
REMARK    9  A    between atoms: C_18  and  C_12 
REMARK   10  A    between atoms: S_63  and  C_12 
REMARK   11  A    between atoms: C_29  and  C_13 
REMARK   12  A    between atoms: O_56  and  C_13 
REMARK   13  A    between atoms: C_18  and  C_16 
REMARK   14  A    between atoms: O_42  and  C_17 
REMARK   15  A    between atoms: N_31  and  C_20 
REMARK   16  A    between atoms: O_44  and  C_20 
REMARK   17  A    between atoms: C_22  and  O_45 
REMARK   18  A    between atoms: C_23  and  O_58 
REMARK   19  A    between atoms: C_27  and  C_24 
REMARK   20  A    between atoms: C_29  and  C_24 
REMARK   21  A    between atoms: C_24  and  O_46 
REMARK   22  A    between atoms: N_30  and  C_25 
REMARK   23  A    between atoms: N_33  and  C_27 
REMARK   24  A    between atoms: O_47  and  C_27 
REMARK   25  A    between atoms: C_28  and  N_41 
REMARK   26  A    between atoms: P_60  and  O_48 
REMARK   27  A    between atoms: P_60  and  O_49 
REMARK   28  A    between atoms: P_61  and  O_51 
REMARK   29  A    between atoms: P_62  and  O_53 
REMARK   30  A    between atoms: P_61  and  O_55 
REMARK   31  A    between atoms: P_62  and  O_56 
REMARK   32  A    between atoms: P_60  and  O_58 
REMARK   33  A    between atoms: P_61  and  O_59 
REMARK   34  A    between atoms: P_62  and  O_59 
ROOT
HETATM    1  O   UNK N   1      -1.549  10.542   2.126  0.00  0.00    -0.631 OA
HETATM    2  P   UNK N   1      -1.103   9.186   1.515  0.00  0.00     0.401 P 
ENDROOT
BRANCH   2   3
HETATM    3  O   UNK N   1      -1.300   8.026   2.792  0.00  0.00    -0.307 OA
HETATM    4  H   UNK N   1      -1.917   7.798   3.505  0.00  0.00     0.222 HD
ENDBRANCH   2   3
BRANCH   2   5
HETATM    5  O   UNK N   1       0.577   9.373   1.109  0.00  0.00    -0.296 OA
BRANCH   5   6
HETATM    6  C   UNK N   1       0.616  10.093  -0.087  0.00  0.00     0.192 C 
BRANCH   6   7
HETATM    7  C   UNK N   1       1.933   9.837  -0.822  0.00  0.00     0.008 C 
HETATM    8  C   UNK N   1       2.179   8.345  -0.993  0.00  0.00     0.020 C 
HETATM    9  C   UNK N   1       1.831  10.423  -2.221  0.00  0.00     0.020 C 
BRANCH   7  10
HETATM   10  C   UNK N   1       3.113  10.444  -0.044  0.00  0.00     0.202 C 
BRANCH  10  11
HETATM   11  C   UNK N   1       3.045  11.943   0.109  0.00  0.00     0.141 C 
BRANCH  11  12
HETATM   12  N   UNK N   1       3.116  12.689  -0.938  0.00  0.00    -0.372 N 
ATOM     13  HN  UNK N   1       3.084  12.256  -1.861  1.00  0.00     0.161 HD
BRANCH  12  14
HETATM   14  C   UNK N   1       3.242  14.119  -0.835  0.00  0.00     0.129 C 
BRANCH  14  15
HETATM   15  C   UNK N   1       4.666  14.542  -1.218  0.00  0.00     0.103 C 
BRANCH  15  16
HETATM   16  C   UNK N   1       5.721  13.662  -0.597  0.00  0.00     0.112 C 
BRANCH  16  17
HETATM   17  N   UNK N   1       5.878  12.453  -1.023  0.00  0.00    -0.374 N 
ATOM     18  HN  UNK N   1       5.291  12.121  -1.788  1.00  0.00     0.161 HD
BRANCH  17  19
HETATM   19  C   UNK N   1       6.854  11.557  -0.457  0.00  0.00     0.131 C 
BRANCH  19  20
HETATM   20  C   UNK N   1       6.236  10.761   0.679  0.00  0.00     0.094 C 
BRANCH  20  21
HETATM   21  S   UNK N   1       7.174  11.054   2.198  0.00  0.00    -0.160 SA
BRANCH  21  22
HETATM   22  C   UNK N   1       8.184   9.541   2.024  0.00  0.00     0.157 C 
BRANCH  22  23
HETATM   23  C   UNK N   1       9.028   9.512   0.776  0.00  0.00     0.168 C 
HETATM   24  O   UNK N   1       8.908   8.561   0.018  0.00  0.00    -0.291 OA
BRANCH  23  25
HETATM   25  C   UNK N   1       9.998  10.588   0.453  0.00  0.00     0.011 A 
HETATM   26  C   UNK N   1      10.820  10.473  -0.679  0.00  0.00     0.018 A 
HETATM   27  C   UNK N   1      11.730  11.486  -0.997  0.00  0.00     0.037 A 
HETATM   28  C   UNK N   1      11.816  12.626  -0.192  0.00  0.00     0.065 A 
HETATM   29  C   UNK N   1      10.999  12.750   0.933  0.00  0.00     0.037 A 
HETATM   30  C   UNK N   1      10.099  11.733   1.257  0.00  0.00     0.018 A 
BRANCH  28  31
HETATM   31  O   UNK N   1      12.686  13.601  -0.500  0.00  0.00    -0.361 OA
HETATM   32  H   UNK N   1      13.579  13.415  -0.714  0.00  0.00     0.217 HD
ENDBRANCH  28  31
ENDBRANCH  23  25
ENDBRANCH  22  23
ENDBRANCH  21  22
ENDBRANCH  20  21
ENDBRANCH  19  20
ENDBRANCH  17  19
ENDBRANCH  16  17
BRANCH  16  33
HETATM   33  O   UNK N   1       6.484  14.143   0.405  0.00  0.00    -0.350 OA
HETATM   34  H   UNK N   1       7.039  13.850   1.101  0.00  0.00     0.219 HD
ENDBRANCH  16  33
ENDBRANCH  15  16
ENDBRANCH  14  15
ENDBRANCH  12  14
ENDBRANCH  11  12
BRANCH  11  35
HETATM   35  O   UNK N   1       3.012  12.495   1.343  0.00  0.00    -0.348 OA
HETATM   36  H   UNK N   1       3.332  12.707   2.198  0.00  0.00     0.219 HD
ENDBRANCH  11  35
ENDBRANCH  10  11
BRANCH  10  37
HETATM   37  O   UNK N   1       3.219   9.853   1.221  0.00  0.00    -0.387 OA
HETATM   38  H   UNK N   1       2.901   9.584   2.098  0.00  0.00     0.210 HD
ENDBRANCH  10  37
ENDBRANCH   7  10
ENDBRANCH   6   7
ENDBRANCH   5   6
ENDBRANCH   2   5
BRANCH   2  39
HETATM   39  O   UNK N   1      -2.194   8.859   0.188  0.00  0.00    -0.195 OA
BRANCH  39  40
HETATM   40  P   UNK N   1      -1.399   7.838  -0.991  0.00  0.00     0.401 P 
HETATM   41  O   UNK N   1      -2.497   6.922  -1.590  0.00  0.00    -0.631 OA
BRANCH  40  42
HETATM   42  O   UNK N   1      -0.852   8.781  -2.340  0.00  0.00    -0.307 OA
HETATM   43  H   UNK N   1      -0.243   8.780  -3.095  0.00  0.00     0.222 HD
ENDBRANCH  40  42
BRANCH  40  44
HETATM   44  O   UNK N   1      -0.116   6.804  -0.403  0.00  0.00    -0.294 OA
BRANCH  44  45
HETATM   45  C   UNK N   1      -0.697   5.975   0.552  0.00  0.00     0.215 C 
BRANCH  45  46
HETATM   46  C   UNK N   1      -1.016   4.602  -0.026  0.00  0.00     0.180 C 
HETATM   47  C   UNK N   1      -2.026   3.916   0.887  0.00  0.00     0.197 C 
HETATM   48  C   UNK N   1      -1.779   2.477   0.523  0.00  0.00     0.199 C 
HETATM   49  C   UNK N   1      -0.243   2.564   0.602  0.00  0.00     0.262 C 
HETATM   50  O   UNK N   1       0.124   3.745  -0.101  0.00  0.00    -0.353 OA
BRANCH  47  51
HETATM   51  O   UNK N   1      -3.341   4.441   0.939  0.00  0.00    -0.286 OA
BRANCH  51  52
HETATM   52  P   UNK N   1      -4.284   4.324  -0.532  0.00  0.00     0.391 P 
HETATM   53  O   UNK N   1      -4.928   5.725  -0.715  0.00  0.00    -0.632 OA
BRANCH  52  54
HETATM   54  O   UNK N   1      -3.426   3.996  -2.004  0.00  0.00    -0.307 OA
HETATM   55  H   UNK N   1      -3.345   3.489  -2.827  0.00  0.00     0.222 HD
ENDBRANCH  52  54
BRANCH  52  56
HETATM   56  O   UNK N   1      -5.622   3.242  -0.324  0.00  0.00    -0.307 OA
HETATM   57  H   UNK N   1      -6.521   3.587  -0.207  0.00  0.00     0.222 HD
ENDBRANCH  52  56
ENDBRANCH  51  52
ENDBRANCH  47  51
BRANCH  48  58
HETATM   58  O   UNK N   1      -2.331   1.600   1.458  0.00  0.00    -0.388 OA
HETATM   59  H   UNK N   1      -3.050   1.627   2.107  0.00  0.00     0.210 HD
ENDBRANCH  48  58
BRANCH  49  60
HETATM   60  N   UNK N   1       0.529   1.380   0.193  0.00  0.00    -0.297 N 
HETATM   61  C   UNK N   1       1.887   1.342   0.151  0.00  0.00     0.188 A 
HETATM   62  N   UNK N   1       2.350   0.083  -0.087  0.00  0.00    -0.346 N 
HETATM   63  C   UNK N   1       1.240  -0.667  -0.174  0.00  0.00     0.122 A 
ATOM     64  HN  UNK N   1       3.319  -0.220  -0.179  1.00  0.00     0.167 HD
HETATM   65  C   UNK N   1       1.112  -2.039  -0.322  0.00  0.00     0.131 A 
HETATM   66  C   UNK N   1       0.144   0.109  -0.027  0.00  0.00     0.142 A 
HETATM   67  N   UNK N   1      -0.148  -2.567  -0.327  0.00  0.00    -0.337 N 
HETATM   68  C   UNK N   1      -1.252  -1.760  -0.188  0.00  0.00     0.183 A 
ATOM     69  HN  UNK N   1      -0.271  -3.574  -0.436  1.00  0.00     0.168 HD
HETATM   70  N   UNK N   1      -1.108  -0.407  -0.023  0.00  0.00    -0.336 N 
ATOM     71  HN  UNK N   1      -1.922   0.195   0.099  1.00  0.00     0.168 HD
BRANCH  65  72
HETATM   72  N   UNK N   1       2.243  -2.876  -0.418  0.00  0.00    -0.383 N 
HETATM   73  H   UNK N   1       2.132  -3.852  -0.484  0.00  0.00     0.157 HD
HETATM   74  H   UNK N   1       3.146  -2.482  -0.418  0.00  0.00     0.157 HD
ENDBRANCH  65  72
ENDBRANCH  49  60
ENDBRANCH  45  46
ENDBRANCH  44  45
ENDBRANCH  40  44
ENDBRANCH  39  40
ENDBRANCH   2  39
TORSDOF 34
