REMARK  6 active torsions:
REMARK  status: ('A' for Active; 'I' for Inactive)
REMARK    1  A    between atoms: C_3  and  C_2 
REMARK    2  A    between atoms: O_8  and  C_2 
REMARK    3  A    between atoms: C_4  and  O_9 
REMARK    4  A    between atoms: C_5  and  O_10 
REMARK    5  A    between atoms: C_6  and  S_13 
REMARK    6  A    between atoms: C_7  and  O_11 
ROOT
HETATM    1  C   UNK N   1       2.001   0.801  -0.198  0.00  0.00     0.164 C 
HETATM    2  C   UNK N   1      -0.487   0.850   0.122  0.00  0.00     0.167 C 
HETATM    3  C   UNK N   1      -0.523  -0.525  -0.564  0.00  0.00     0.203 C 
HETATM    4  C   UNK N   1       0.724   1.663  -0.377  0.00  0.00     0.107 C 
HETATM    5  C   UNK N   1       0.836  -1.219  -0.333  0.00  0.00     0.290 C 
HETATM    6  O   UNK N   1       1.872  -0.428  -0.898  0.00  0.00    -0.350 OA
ENDROOT
BRANCH   1   7
HETATM    7  C   UNK N   1       3.248   1.515  -0.715  0.00  0.00     0.197 C 
BRANCH   7   8
HETATM    8  O   UNK N   1       3.507   2.666   0.031  0.00  0.00    -0.398 OA
HETATM    9  H   UNK N   1       4.289   2.910   0.550  0.00  0.00     0.209 HD
ENDBRANCH   7   8
ENDBRANCH   1   7
BRANCH   4  10
HETATM   10  S   UNK N   1       0.501   2.158  -2.128  0.00  0.00    -0.172 SA
HETATM   11  H   UNK N   1       0.737   2.485  -3.427  0.00  0.00     0.102 HD
ENDBRANCH   4  10
BRANCH   2  12
HETATM   12  O   UNK N   1      -1.678   1.546  -0.105  0.00  0.00    -0.392 OA
HETATM   13  H   UNK N   1      -1.674   2.503  -0.262  0.00  0.00     0.210 HD
ENDBRANCH   2  12
BRANCH   5  14
HETATM   14  O   UNK N   1       0.845  -2.473  -0.988  0.00  0.00    -0.363 OA
HETATM   15  C   UNK N   1       0.578  -3.489  -0.054  0.00  0.00     0.204 C 
ENDBRANCH   5  14
BRANCH   3  16
HETATM   16  O   UNK N   1      -1.560  -1.293  -0.030  0.00  0.00    -0.388 OA
HETATM   17  H   UNK N   1      -2.383  -0.936   0.341  0.00  0.00     0.210 HD
ENDBRANCH   3  16
TORSDOF 6
