REMARK WARNING: 32 MAX_TORS EXCEEDED!!!
REMARK  33 active torsions:
REMARK  status: ('A' for Active; 'I' for Inactive)
REMARK    1  A    between atoms: C_1  and  N_2 
REMARK    2  A    between atoms: C_1  and  C_3 
REMARK    3  A    between atoms: C_1  and  C_4 
REMARK       I    between atoms: N_2  and  C_5 
REMARK       I    between atoms: C_3  and  N_6 
REMARK    4  A    between atoms: C_4  and  S_8 
REMARK    5  A    between atoms: C_5  and  C_9 
REMARK    6  A    between atoms: N_6  and  C_11 
REMARK    7  A    between atoms: C_9  and  C_13 
REMARK    8  A    between atoms: C_11  and  C_14 
REMARK    9  A    between atoms: S_12  and  C_15 
REMARK   10  A    between atoms: C_13  and  C_16 
REMARK       I    between atoms: C_14  and  N_17 
REMARK   11  A    between atoms: C_15  and  C_19 
REMARK   12  A    between atoms: C_16  and  C_20 
REMARK   13  A    between atoms: C_16  and  N_21 
REMARK   14  A    between atoms: N_17  and  C_22 
REMARK   15  A    between atoms: C_19  and  N_23 
REMARK   16  A    between atoms: C_19  and  C_24 
REMARK   17  A    between atoms: C_20  and  O_25 
REMARK   18  A    between atoms: C_22  and  C_27 
REMARK       I    between atoms: N_23  and  C_28 
REMARK       I    between atoms: C_24  and  N_29 
REMARK   19  A    between atoms: C_27  and  C_31 
REMARK   20  A    between atoms: C_28  and  C_32 
REMARK   21  A    between atoms: N_29  and  C_34 
REMARK   22  A    between atoms: C_31  and  C_35 
REMARK   23  A    between atoms: C_32  and  C_36 
REMARK   24  A    between atoms: C_34  and  C_37 
REMARK   25  A    between atoms: C_35  and  N_38 
REMARK   26  A    between atoms: C_36  and  C_39 
REMARK       I    between atoms: C_37  and  N_40 
REMARK   27  A    between atoms: N_38  and  C_42 
REMARK   28  A    between atoms: C_39  and  C_43 
REMARK   29  A    between atoms: C_39  and  N_44 
REMARK   30  A    between atoms: N_40  and  C_45 
REMARK   31  A    between atoms: C_42  and  C_46 
REMARK   32  A    between atoms: C_43  and  O_47 
REMARK   33  A    between atoms: C_45  and  C_46 
ROOT
HETATM    1  N   UNK N   1      24.358 -12.015   0.476  0.00  0.00    -0.421 N 
HETATM    2  H   UNK N   1      25.219 -12.446   0.141  0.00  0.00     0.153 HD
ENDROOT
BRANCH   1   3
HETATM    3  C   UNK N   1      24.053 -10.596   0.489  0.00  0.00     0.113 C 
BRANCH   3   4
HETATM    4  C   UNK N   1      23.196 -10.229  -0.707  0.00  0.00     0.021 C 
BRANCH   4   5
HETATM    5  C   UNK N   1      22.268  -9.121  -0.275  0.00  0.00     0.021 C 
BRANCH   5   6
HETATM    6  C   UNK N   1      21.738  -8.381  -1.479  0.00  0.00     0.122 C 
BRANCH   6   7
HETATM    7  N   UNK N   1      21.185  -7.127  -1.037  0.00  0.00    -0.360 N 
HETATM    8  C   UNK N   1      19.865  -6.852  -1.134  0.00  0.00     0.235 C 
HETATM    9  O   UNK N   1      19.442  -5.783  -0.724  0.00  0.00    -0.272 OA
HETATM   10  H   UNK N   1      21.786  -6.449  -0.653  0.00  0.00     0.162 HD
BRANCH   8  11
HETATM   11  C   UNK N   1      18.907  -7.853  -1.697  0.00  0.00     0.225 C 
BRANCH  11  12
HETATM   12  N   UNK N   1      18.414  -8.680  -0.625  0.00  0.00    -0.351 N 
HETATM   13  C   UNK N   1      17.308  -8.334   0.082  0.00  0.00     0.241 C 
HETATM   14  O   UNK N   1      16.687  -7.326  -0.206  0.00  0.00    -0.271 OA
HETATM   15  H   UNK N   1      18.888  -9.513  -0.401  0.00  0.00     0.163 HD
BRANCH  13  16
HETATM   16  C   UNK N   1      16.816  -9.201   1.218  0.00  0.00     0.185 C 
BRANCH  16  17
HETATM   17  N   UNK N   1      15.522  -9.721   0.838  0.00  0.00    -0.347 N 
HETATM   18  C   UNK N   1      14.388  -9.005   1.028  0.00  0.00     0.218 C 
HETATM   19  O   UNK N   1      14.418  -7.943   1.635  0.00  0.00    -0.274 OA
HETATM   20  H   UNK N   1      15.463 -10.616   0.432  0.00  0.00     0.163 HD
BRANCH  18  21
HETATM   21  C   UNK N   1      13.132  -9.411   0.336  0.00  0.00     0.105 C 
BRANCH  21  22
HETATM   22  C   UNK N   1      12.345 -10.487   1.060  0.00  0.00     0.044 C 
BRANCH  22  23
HETATM   23  C   UNK N   1      11.416 -11.210   0.081  0.00  0.00     0.173 C 
BRANCH  23  24
HETATM   24  C   UNK N   1      10.389 -10.304  -0.554  0.00  0.00     0.163 C 
HETATM   25  O   UNK N   1      10.747  -9.358  -1.236  0.00  0.00    -0.648 OA
BRANCH  24  26
HETATM   26  O   UNK N   1       9.074 -10.556  -0.408  0.00  0.00    -0.775 OA
HETATM   27  H   UNK N   1       8.465  -9.851  -0.307  0.00  0.00     0.167 HD
ENDBRANCH  24  26
ENDBRANCH  23  24
BRANCH  23  28
HETATM   28  N   UNK N   1      10.764 -12.313   0.767  0.00  0.00    -0.418 N 
HETATM   29  H   UNK N   1       9.865 -12.305   1.249  0.00  0.00     0.150 HD
HETATM   30  H   UNK N   1      11.266 -13.202   0.767  0.00  0.00     0.150 HD
ENDBRANCH  23  28
ENDBRANCH  22  23
ENDBRANCH  21  22
ENDBRANCH  18  21
ENDBRANCH  16  17
BRANCH  16  31
HETATM   31  C   UNK N   1      17.761 -10.341   1.581  0.00  0.00     0.105 C 
BRANCH  31  32
HETATM   32  S   UNK N   1      19.337  -9.718   2.246  0.00  0.00    -0.180 SA
HETATM   33  H   UNK N   1      20.329 -10.505   2.743  0.00  0.00     0.101 HD
ENDBRANCH  31  32
ENDBRANCH  16  31
ENDBRANCH  13  16
ENDBRANCH  11  12
ENDBRANCH   8  11
ENDBRANCH   6   7
ENDBRANCH   5   6
ENDBRANCH   4   5
ENDBRANCH   3   4
ENDBRANCH   1   3
BRANCH   1  34
HETATM   34  C   UNK N   1      23.204 -12.704   1.029  0.00  0.00     0.115 C 
BRANCH  34  35
HETATM   35  C   UNK N   1      22.813 -13.821   0.090  0.00  0.00     0.039 C 
BRANCH  35  36
HETATM   36  C   UNK N   1      21.565 -14.505   0.591  0.00  0.00     0.124 C 
BRANCH  36  37
HETATM   37  N   UNK N   1      21.240 -15.590  -0.299  0.00  0.00    -0.360 N 
HETATM   38  C   UNK N   1      20.099 -16.313  -0.186  0.00  0.00     0.235 C 
HETATM   39  O   UNK N   1      19.884 -17.219  -0.972  0.00  0.00    -0.272 OA
HETATM   40  H   UNK N   1      21.872 -15.816  -1.019  0.00  0.00     0.162 HD
BRANCH  38  41
HETATM   41  C   UNK N   1      19.086 -16.018   0.878  0.00  0.00     0.225 C 
BRANCH  41  42
HETATM   42  N   UNK N   1      18.632 -14.651   0.782  0.00  0.00    -0.351 N 
HETATM   43  C   UNK N   1      17.889 -14.184  -0.249  0.00  0.00     0.241 C 
HETATM   44  O   UNK N   1      17.525 -14.927  -1.150  0.00  0.00    -0.271 OA
HETATM   45  H   UNK N   1      18.875 -14.026   1.503  0.00  0.00     0.163 HD
BRANCH  43  46
HETATM   46  C   UNK N   1      17.415 -12.771  -0.195  0.00  0.00     0.185 C 
BRANCH  46  47
HETATM   47  C   UNK N   1      17.528 -11.977  -1.497  0.00  0.00     0.105 C 
BRANCH  47  48
HETATM   48  S   UNK N   1      19.261 -11.848  -2.033  0.00  0.00    -0.180 SA
HETATM   49  H   UNK N   1      19.992 -12.923  -2.434  0.00  0.00     0.101 HD
ENDBRANCH  47  48
ENDBRANCH  46  47
BRANCH  46  50
HETATM   50  N   UNK N   1      16.111 -12.747   0.426  0.00  0.00    -0.347 N 
HETATM   51  C   UNK N   1      14.942 -12.943  -0.224  0.00  0.00     0.218 C 
HETATM   52  O   UNK N   1      14.889 -12.966  -1.444  0.00  0.00    -0.274 OA
HETATM   53  H   UNK N   1      16.071 -12.575   1.394  0.00  0.00     0.163 HD
BRANCH  51  54
HETATM   54  C   UNK N   1      13.727 -13.259   0.570  0.00  0.00     0.105 C 
BRANCH  54  55
HETATM   55  C   UNK N   1      13.870 -14.659   1.159  0.00  0.00     0.044 C 
BRANCH  55  56
HETATM   56  C   UNK N   1      13.949 -15.702   0.046  0.00  0.00     0.173 C 
BRANCH  56  57
HETATM   57  C   UNK N   1      12.603 -15.927  -0.591  0.00  0.00     0.163 C 
HETATM   58  O   UNK N   1      12.097 -17.037  -0.600  0.00  0.00    -0.648 OA
BRANCH  57  59
HETATM   59  O   UNK N   1      11.955 -14.898  -1.171  0.00  0.00    -0.775 OA
HETATM   60  H   UNK N   1      12.349 -14.150  -1.575  0.00  0.00     0.167 HD
ENDBRANCH  57  59
ENDBRANCH  56  57
BRANCH  56  61
HETATM   61  N   UNK N   1      14.501 -16.940   0.573  0.00  0.00    -0.418 N 
HETATM   62  H   UNK N   1      13.942 -17.709   0.942  0.00  0.00     0.150 HD
HETATM   63  H   UNK N   1      15.515 -17.047   0.573  0.00  0.00     0.150 HD
ENDBRANCH  56  61
ENDBRANCH  55  56
ENDBRANCH  54  55
ENDBRANCH  51  54
ENDBRANCH  46  50
ENDBRANCH  43  46
ENDBRANCH  41  42
ENDBRANCH  38  41
ENDBRANCH  36  37
ENDBRANCH  35  36
ENDBRANCH  34  35
ENDBRANCH   1  34
TORSDOF 33
