REMARK  9 active torsions:
REMARK  status: ('A' for Active; 'I' for Inactive)
REMARK    1  A    between atoms: C_6  and  C_2 
REMARK    2  A    between atoms: N_11  and  C_3 
REMARK    3  A    between atoms: C_10  and  C_7 
REMARK    4  A    between atoms: N_16  and  C_7 
REMARK    5  A    between atoms: C_9  and  C_8 
REMARK    6  A    between atoms: C_10  and  C_8 
REMARK    7  A    between atoms: C_8  and  N_11 
REMARK    8  A    between atoms: O_19  and  C_9 
REMARK    9  A    between atoms: C_10  and  S_22 
ROOT
HETATM    1  C   UNK N   1       4.631   2.138   1.436  0.00  0.00     0.037 C 
HETATM    2  C   UNK N   1       3.753   1.309   0.501  0.00  0.00     0.122 C 
ENDROOT
BRANCH   2   3
HETATM    3  C   UNK N   1       3.660  -0.057   1.234  0.00  0.00     0.178 C 
BRANCH   3   4
HETATM    4  N   UNK N   1       4.066  -1.238   0.476  0.00  0.00    -0.286 N 
HETATM    5  C   UNK N   1       5.128  -2.014   0.740  0.00  0.00     0.130 A 
HETATM    6  C   UNK N   1       5.089  -3.055  -0.173  0.00  0.00     0.127 A 
HETATM    7  N   UNK N   1       3.995  -2.871  -0.943  0.00  0.00    -0.296 N 
HETATM    8  N   UNK N   1       3.392  -1.772  -0.526  0.00  0.00    -0.241 N 
ATOM      9  HN  UNK N   1       3.690  -3.472  -1.709  1.00  0.00     0.187 HD
ATOM     10  HN  UNK N   1       2.531  -1.392  -0.920  1.00  0.00     0.208 HD
ENDBRANCH   3   4
ENDBRANCH   2   3
BRANCH   2  11
HETATM   11  C   UNK N   1       2.309   1.944   0.437  0.00  0.00     0.205 C 
BRANCH  11  12
HETATM   12  C   UNK N   1       1.293   1.121  -0.326  0.00  0.00     0.165 C 
HETATM   13  O   UNK N   1       1.618   0.135  -0.962  0.00  0.00    -0.648 OA
BRANCH  12  14
HETATM   14  O   UNK N   1       0.004   1.513  -0.340  0.00  0.00    -0.775 OA
HETATM   15  H   UNK N   1      -0.207   2.426  -0.350  0.00  0.00     0.167 HD
ENDBRANCH  12  14
ENDBRANCH  11  12
BRANCH  11  16
HETATM   16  N   UNK N   1       2.250   3.268  -0.163  0.00  0.00    -0.383 N 
HETATM   17  H   UNK N   1       1.688   3.363  -0.965  0.00  0.00     0.159 HD
BRANCH  16  18
HETATM   18  C   UNK N   1       2.918   4.439   0.285  0.00  0.00     0.087 C 
HETATM   19  C   UNK N   1       2.592   5.621  -0.253  0.00  0.00     0.058 C 
BRANCH  19  20
HETATM   20  C   UNK N   1       3.262   6.879   0.133  0.00  0.00     0.260 C 
HETATM   21  O   UNK N   1       4.199   6.887   0.917  0.00  0.00    -0.302 OA
ENDBRANCH  19  20
ENDBRANCH  16  18
ENDBRANCH  11  16
ENDBRANCH   2  11
BRANCH   2  22
HETATM   22  S   UNK N   1       4.546   1.175  -1.182  0.00  0.00     0.264 S 
HETATM   23  O   UNK N   1       4.738   2.689  -1.362  0.00  0.00    -0.211 OA
HETATM   24  O   UNK N   1       5.977   1.004  -0.641  0.00  0.00    -0.211 OA
ENDBRANCH   2  22
TORSDOF 9
