REMARK  22 active torsions:
REMARK  status: ('A' for Active; 'I' for Inactive)
REMARK    1  A    between atoms: C_7  and  C_3 
REMARK    2  A    between atoms: O_27  and  C_3 
REMARK    3  A    between atoms: C_9  and  C_4 
REMARK    4  A    between atoms: O_28  and  C_4 
REMARK    5  A    between atoms: C_10  and  C_5 
REMARK    6  A    between atoms: O_40  and  C_5 
REMARK    7  A    between atoms: C_8  and  N_26 
REMARK    8  A    between atoms: C_11  and  N_26 
REMARK    9  A    between atoms: C_12  and  O_29 
REMARK   10  A    between atoms: C_13  and  O_30 
REMARK   11  A    between atoms: C_14  and  O_31 
REMARK   12  A    between atoms: C_15  and  O_32 
REMARK   13  A    between atoms: C_16  and  O_33 
REMARK   14  A    between atoms: C_17  and  O_34 
REMARK   15  A    between atoms: C_18  and  O_35 
REMARK   16  A    between atoms: C_19  and  O_36 
REMARK   17  A    between atoms: C_20  and  O_37 
REMARK   18  A    between atoms: C_21  and  O_38 
REMARK   19  A    between atoms: C_22  and  O_44 
REMARK   20  A    between atoms: C_23  and  O_39 
REMARK   21  A    between atoms: C_24  and  O_40 
REMARK   22  A    between atoms: C_25  and  O_44 
ROOT
HETATM    1  C   UNK N   1      -6.060  -9.915  -0.297  0.00  0.00     0.180 C 
HETATM    2  C   UNK N   1      -6.197 -12.401  -0.029  0.00  0.00     0.183 C 
HETATM    3  C   UNK N   1      -7.617 -12.376  -0.654  0.00  0.00     0.204 C 
HETATM    4  C   UNK N   1      -5.942 -11.109   0.739  0.00  0.00     0.187 C 
HETATM    5  C   UNK N   1      -8.059 -10.943  -1.059  0.00  0.00     0.291 C 
HETATM    6  O   UNK N   1      -6.925 -10.172  -1.410  0.00  0.00    -0.348 OA
ENDROOT
BRANCH   4   7
HETATM    7  O   UNK N   1      -4.752 -11.217   1.562  0.00  0.00    -0.348 OA
BRANCH   7   8
HETATM    8  C   UNK N   1      -3.545 -10.558   1.178  0.00  0.00     0.292 C 
HETATM    9  C   UNK N   1      -2.820 -11.282   0.034  0.00  0.00     0.204 C 
HETATM   10  C   UNK N   1      -1.579 -10.487  -0.360  0.00  0.00     0.176 C 
HETATM   11  C   UNK N   1      -2.022  -9.097  -0.844  0.00  0.00     0.137 C 
HETATM   12  C   UNK N   1      -2.833  -8.400   0.306  0.00  0.00     0.145 C 
HETATM   13  C   UNK N   1      -3.691  -7.292  -0.263  0.00  0.00     0.042 C 
HETATM   14  O   UNK N   1      -3.803  -9.192   0.949  0.00  0.00    -0.352 OA
BRANCH   9  15
HETATM   15  O   UNK N   1      -2.457 -12.567   0.454  0.00  0.00    -0.388 OA
HETATM   16  H   UNK N   1      -3.102 -13.230   0.745  0.00  0.00     0.210 HD
ENDBRANCH   9  15
BRANCH  10  17
HETATM   17  O   UNK N   1      -0.906 -11.159  -1.387  0.00  0.00    -0.391 OA
HETATM   18  H   UNK N   1      -1.076 -11.796  -2.098  0.00  0.00     0.210 HD
ENDBRANCH  10  17
BRANCH  11  19
HETATM   19  N   UNK N   1      -0.814  -8.412  -1.395  0.00  0.00    -0.402 N 
HETATM   20  H   UNK N   1      -0.175  -8.996  -1.935  0.00  0.00     0.154 HD
BRANCH  19  21
HETATM   21  C   UNK N   1      -0.430  -6.985  -1.253  0.00  0.00     0.132 C 
HETATM   22  C   UNK N   1      -1.578  -6.015  -1.319  0.00  0.00     0.008 C 
HETATM   23  C   UNK N   1      -1.701  -4.948  -0.506  0.00  0.00    -0.027 C 
HETATM   24  C   UNK N   1      -0.623  -4.587   0.498  0.00  0.00     0.180 C 
HETATM   25  C   UNK N   1       0.722  -5.265   0.162  0.00  0.00     0.182 C 
HETATM   26  C   UNK N   1       0.523  -6.767  -0.053  0.00  0.00     0.175 C 
BRANCH  23  27
HETATM   27  C   UNK N   1      -3.007  -4.210  -0.511  0.00  0.00     0.201 C 
BRANCH  27  28
HETATM   28  O   UNK N   1      -2.826  -2.880  -0.885  0.00  0.00    -0.397 OA
HETATM   29  H   UNK N   1      -1.962  -2.526  -1.145  0.00  0.00     0.209 HD
ENDBRANCH  27  28
ENDBRANCH  23  27
BRANCH  24  30
HETATM   30  O   UNK N   1      -0.427  -3.204   0.512  0.00  0.00    -0.388 OA
HETATM   31  H   UNK N   1       0.472  -2.841   0.522  0.00  0.00     0.210 HD
ENDBRANCH  24  30
BRANCH  25  32
HETATM   32  O   UNK N   1       1.641  -5.036   1.188  0.00  0.00    -0.390 OA
HETATM   33  H   UNK N   1       2.098  -5.509   1.901  0.00  0.00     0.210 HD
ENDBRANCH  25  32
BRANCH  26  34
HETATM   34  O   UNK N   1       0.031  -7.339   1.119  0.00  0.00    -0.391 OA
HETATM   35  H   UNK N   1      -0.485  -7.241   1.935  0.00  0.00     0.210 HD
ENDBRANCH  26  34
ENDBRANCH  19  21
ENDBRANCH  11  19
ENDBRANCH   7   8
ENDBRANCH   4   7
BRANCH   1  36
HETATM   36  C   UNK N   1      -6.457  -8.568   0.349  0.00  0.00     0.198 C 
BRANCH  36  37
HETATM   37  O   UNK N   1      -6.120  -8.470   1.702  0.00  0.00    -0.398 OA
HETATM   38  H   UNK N   1      -5.944  -8.639   2.640  0.00  0.00     0.209 HD
ENDBRANCH  36  37
ENDBRANCH   1  36
BRANCH   2  39
HETATM   39  O   UNK N   1      -6.064 -13.525   0.790  0.00  0.00    -0.390 OA
HETATM   40  H   UNK N   1      -6.693 -13.995   1.358  0.00  0.00     0.210 HD
ENDBRANCH   2  39
BRANCH   3  41
HETATM   41  O   UNK N   1      -7.610 -13.216  -1.771  0.00  0.00    -0.388 OA
HETATM   42  H   UNK N   1      -8.113 -13.512  -2.546  0.00  0.00     0.210 HD
ENDBRANCH   3  41
BRANCH   5  43
HETATM   43  O   UNK N   1      -8.821 -10.309  -0.040  0.00  0.00    -0.356 OA
BRANCH  43  44
HETATM   44  C   UNK N   1      -9.139  -9.022  -0.520  0.00  0.00     0.205 C 
BRANCH  44  45
HETATM   45  C   UNK N   1     -10.352  -8.391   0.137  0.00  0.00     0.180 C 
HETATM   46  C   UNK N   1     -10.352  -6.898  -0.269  0.00  0.00     0.180 C 
HETATM   47  C   UNK N   1     -11.623  -6.222   0.243  0.00  0.00     0.183 C 
HETATM   48  C   UNK N   1     -12.828  -7.011  -0.273  0.00  0.00     0.204 C 
HETATM   49  C   UNK N   1     -12.688  -8.475   0.182  0.00  0.00     0.288 C 
HETATM   50  O   UNK N   1     -11.507  -9.053  -0.349  0.00  0.00    -0.349 OA
BRANCH  46  51
HETATM   51  O   UNK N   1      -9.228  -6.250   0.253  0.00  0.00    -0.390 OA
HETATM   52  H   UNK N   1      -8.448  -6.700   0.615  0.00  0.00     0.210 HD
ENDBRANCH  46  51
BRANCH  47  53
HETATM   53  O   UNK N   1     -11.680  -4.901  -0.209  0.00  0.00    -0.390 OA
HETATM   54  H   UNK N   1     -10.905  -4.408  -0.522  0.00  0.00     0.210 HD
ENDBRANCH  47  53
BRANCH  48  55
HETATM   55  O   UNK N   1     -14.010  -6.458   0.228  0.00  0.00    -0.388 OA
HETATM   56  H   UNK N   1     -14.087  -5.556   0.576  0.00  0.00     0.210 HD
ENDBRANCH  48  55
BRANCH  49  57
HETATM   57  O   UNK N   1     -13.783  -9.204  -0.282  0.00  0.00    -0.369 OA
HETATM   58  H   UNK N   1     -14.603  -8.798  -0.604  0.00  0.00     0.212 HD
ENDBRANCH  49  57
ENDBRANCH  44  45
ENDBRANCH  43  44
ENDBRANCH   5  43
TORSDOF 22
