REMARK  5 active torsions:
REMARK  status: ('A' for Active; 'I' for Inactive)
REMARK    1  A    between atoms: C_2  and  C_4 
REMARK    2  A    between atoms: C_2  and  C_6 
REMARK    3  A    between atoms: C_4  and  O_5 
REMARK    4  A    between atoms: C_6  and  C_8 
REMARK    5  A    between atoms: C_8  and  O_9 
ROOT
HETATM    1  C   UNK N   1       0.759   0.076  -1.527  0.00  0.00     0.026 C 
HETATM    2  C   UNK N   1       0.785   1.011  -0.327  0.00  0.00     0.045 C 
HETATM    3  C   UNK N   1      -0.054   2.237  -0.673  0.00  0.00     0.026 C 
ENDROOT
BRANCH   2   4
HETATM    4  C   UNK N   1       0.168   0.317   0.888  0.00  0.00     0.181 C 
BRANCH   4   5
HETATM    5  O   UNK N   1      -1.173  -0.008   0.661  0.00  0.00    -0.400 OA
HETATM    6  H   UNK N   1      -1.833   0.685   0.504  0.00  0.00     0.209 HD
ENDBRANCH   4   5
ENDBRANCH   2   4
BRANCH   2   7
HETATM    7  C   UNK N   1       2.222   1.409  -0.016  0.00  0.00     0.232 C 
HETATM    8  O   UNK N   1       2.533   2.591   0.008  0.00  0.00    -0.285 OA
BRANCH   7   9
HETATM    9  C   UNK N   1       3.272   0.395   0.253  0.00  0.00     0.214 C 
HETATM   10  O   UNK N   1       3.013  -0.796   0.223  0.00  0.00    -0.644 OA
BRANCH   9  11
HETATM   11  O   UNK N   1       4.535   0.792   0.509  0.00  0.00    -0.771 OA
HETATM   12  H   UNK N   1       5.213   0.170   0.688  0.00  0.00     0.167 HD
ENDBRANCH   9  11
ENDBRANCH   7   9
ENDBRANCH   2   7
TORSDOF 5
