REMARK  10 active torsions:
REMARK  status: ('A' for Active; 'I' for Inactive)
REMARK    1  A    between atoms: C_6  and  C_4 
REMARK    2  A    between atoms: C_11  and  C_6 
REMARK    3  A    between atoms: C_6  and  N_17 
REMARK    4  A    between atoms: C_8  and  C_7 
REMARK    5  A    between atoms: C_10  and  C_8 
REMARK    6  A    between atoms: C_9  and  C_12 
REMARK    7  A    between atoms: C_10  and  O_24 
REMARK    8  A    between atoms: O_26  and  C_12 
REMARK    9  A    between atoms: N_15  and  C_13 
REMARK   10  A    between atoms: O_27  and  N_21 
ROOT
HETATM    1  C   UNK N   1       3.848   4.546  -0.528  0.00  0.00     0.168 C 
HETATM    2  N   UNK N   1       4.972   4.122  -0.018  0.00  0.00    -0.355 N 
ATOM      3  HN  UNK N   1       4.906   3.317   0.604  1.00  0.00     0.162 HD
ENDROOT
BRANCH   1   4
HETATM    4  C   UNK N   1       2.588   3.887  -0.132  0.00  0.00     0.132 C 
HETATM    5  N   UNK N   1       1.519   4.588   0.083  0.00  0.00    -0.261 N 
ATOM      6  HN  UNK N   1       0.649   4.112   0.321  1.00  0.00     0.194 HD
BRANCH   4   7
HETATM    7  C   UNK N   1       2.545   2.421   0.010  0.00  0.00     0.074 A 
HETATM    8  C   UNK N   1       3.588   1.588  -0.464  0.00  0.00     0.085 A 
HETATM    9  S   UNK N   1       3.080   0.046  -0.153  0.00  0.00    -0.064 SA
HETATM   10  C   UNK N   1       1.639   0.425   0.538  0.00  0.00     0.142 A 
HETATM   11  N   UNK N   1       1.463   1.765   0.556  0.00  0.00    -0.335 N 
HETATM   12  H   UNK N   1       0.664   2.215   0.913  0.00  0.00     0.168 HD
BRANCH  10  13
HETATM   13  N   UNK N   1       0.798  -0.412   1.009  0.00  0.00    -0.380 N 
HETATM   14  H   UNK N   1      -0.085  -0.173   1.372  0.00  0.00     0.158 HD
ATOM     15  HN  UNK N   1       1.060  -1.398   1.009  1.00  0.00     0.158 HD
ENDBRANCH  10  13
ENDBRANCH   4   7
BRANCH   5  16
HETATM   16  O   UNK N   1       1.533   5.903  -0.000  0.00  0.00    -0.285 OA
HETATM   17  C   UNK N   1       0.412   6.632   0.302  0.00  0.00     0.237 C 
ENDBRANCH   5  16
ENDBRANCH   1   4
BRANCH   1  18
HETATM   18  O   UNK N   1       3.788   5.607  -1.351  0.00  0.00    -0.344 OA
HETATM   19  H   UNK N   1       4.408   6.012  -1.925  0.00  0.00     0.219 HD
ENDBRANCH   1  18
BRANCH   2  20
HETATM   20  C   UNK N   1       6.312   4.661  -0.231  0.00  0.00     0.177 C 
BRANCH  20  21
HETATM   21  C   UNK N   1       7.203   4.059   0.818  0.00  0.00     0.259 C 
HETATM   22  O   UNK N   1       8.116   3.310   0.508  0.00  0.00    -0.305 OA
ENDBRANCH  20  21
BRANCH  20  23
HETATM   23  C   UNK N   1       6.318   6.202  -0.163  0.00  0.00     0.170 C 
HETATM   24  N   UNK N   1       7.610   6.862  -0.266  0.00  0.00    -0.392 N 
HETATM   25  C   UNK N   1       7.220   8.280  -0.334  0.00  0.00     0.194 C 
HETATM   26  H   UNK N   1       8.543   6.450  -0.286  0.00  0.00     0.155 HD
HETATM   27  C   UNK N   1       6.024   8.510   0.660  0.00  0.00     0.033 C 
HETATM   28  C   UNK N   1       6.363   9.403   1.843  0.00  0.00     0.029 C 
HETATM   29  C   UNK N   1       4.815   9.090  -0.061  0.00  0.00     0.029 C 
HETATM   30  S   UNK N   1       5.541   6.884   1.315  0.00  0.00    -0.130 SA
BRANCH  25  31
HETATM   31  C   UNK N   1       8.391   9.211  -0.165  0.00  0.00     0.164 C 
HETATM   32  O   UNK N   1       8.233  10.415  -0.293  0.00  0.00    -0.648 OA
BRANCH  31  33
HETATM   33  O   UNK N   1       9.618   8.726   0.104  0.00  0.00    -0.775 OA
HETATM   34  H   UNK N   1       9.753   7.818   0.291  0.00  0.00     0.167 HD
ENDBRANCH  31  33
ENDBRANCH  25  31
ENDBRANCH  20  23
ENDBRANCH   2  20
TORSDOF 10
