REMARK  9 active torsions:
REMARK  status: ('A' for Active; 'I' for Inactive)
REMARK    1  A    between atoms: C_2  and  N_1 
REMARK    2  A    between atoms: C_2  and  C_3 
REMARK    3  A    between atoms: C_2  and  C_11 
REMARK    4  A    between atoms: C_3  and  C_4 
REMARK    5  A    between atoms: C_4  and  C_5 
REMARK    6  A    between atoms: C_5  and  N_6 
REMARK    7  A    between atoms: C_8  and  N_9 
REMARK    8  A    between atoms: C_8  and  S_10 
REMARK    9  A    between atoms: C_11  and  O_12 
ROOT
HETATM    1  C   UNK N   1       2.948   1.723  -0.024  0.00  0.00     0.022 C 
ENDROOT
BRANCH   1   2
HETATM    2  C   UNK N   1       4.248   2.313   0.501  0.00  0.00     0.037 C 
BRANCH   2   3
HETATM    3  C   UNK N   1       5.435   1.957  -0.383  0.00  0.00     0.173 C 
BRANCH   3   4
HETATM    4  N   UNK N   1       6.458   2.979  -0.223  0.00  0.00    -0.418 N 
HETATM    5  H   UNK N   1       7.437   2.716  -0.111  0.00  0.00     0.150 HD
HETATM    6  H   UNK N   1       6.194   3.964  -0.223  0.00  0.00     0.150 HD
ENDBRANCH   3   4
BRANCH   3   7
HETATM    7  C   UNK N   1       5.999   0.601  -0.050  0.00  0.00     0.163 C 
HETATM    8  O   UNK N   1       5.291  -0.390  -0.126  0.00  0.00    -0.648 OA
BRANCH   7   9
HETATM    9  O   UNK N   1       7.293   0.466   0.307  0.00  0.00    -0.775 OA
HETATM   10  H   UNK N   1       7.661  -0.359   0.555  0.00  0.00     0.167 HD
ENDBRANCH   7   9
ENDBRANCH   3   7
ENDBRANCH   2   3
ENDBRANCH   1   2
BRANCH   1  11
HETATM   11  C   UNK N   1       1.879   2.806   0.067  0.00  0.00     0.121 C 
BRANCH  11  12
HETATM   12  N   UNK N   1       0.482   2.393  -0.005  0.00  0.00    -0.371 N 
HETATM   13  C   UNK N   1      -0.014   1.198  -0.021  0.00  0.00     0.130 C 
ATOM     14  HN  UNK N   1      -0.199   3.152  -0.050  1.00  0.00     0.161 HD
BRANCH  13  15
HETATM   15  N   UNK N   1       0.800   0.043   0.035  0.00  0.00    -0.380 N 
HETATM   16  H   UNK N   1       0.386  -0.849   0.074  0.00  0.00     0.158 HD
HETATM   17  H   UNK N   1       1.780   0.132   0.035  0.00  0.00     0.158 HD
ENDBRANCH  13  15
BRANCH  13  18
HETATM   18  S   UNK N   1      -1.792   1.003  -0.079  0.00  0.00    -0.108 SA
HETATM   19  H   UNK N   1      -2.596   2.100  -0.122  0.00  0.00     0.110 HD
ENDBRANCH  13  18
ENDBRANCH  11  12
ENDBRANCH   1  11
TORSDOF 9
