REMARK  5 active torsions:
REMARK  status: ('A' for Active; 'I' for Inactive)
REMARK    1  A    between atoms: O_1  and  C_2 
REMARK    2  A    between atoms: C_2  and  C_4 
REMARK       I    between atoms: C_4  and  N_6 
REMARK    3  A    between atoms: N_6  and  C_7 
REMARK    4  A    between atoms: C_8  and  C_9 
REMARK    5  A    between atoms: C_9  and  O_10 
ROOT
HETATM    1  C   UNK N   1      -0.694  -0.552  -0.196  0.00  0.00     0.095 A 
HETATM    2  C   UNK N   1       0.089  -1.719  -0.072  0.00  0.00     0.079 A 
HETATM    3  C   UNK N   1       1.493  -1.426  -0.041  0.00  0.00    -0.022 A 
HETATM    4  C   UNK N   1       1.779  -0.068  -0.154  0.00  0.00     0.009 A 
HETATM    5  C   UNK N   1       3.159   0.489  -0.085  0.00  0.00     0.161 C 
HETATM    6  N   UNK N   1       4.009  -0.434   0.674  0.00  0.00    -0.417 N 
HETATM    7  C   UNK N   1       3.988  -1.755   0.032  0.00  0.00     0.118 C 
HETATM    8  C   UNK N   1       2.603  -2.424   0.144  0.00  0.00     0.060 C 
HETATM    9  S   UNK N   1       0.350   0.746  -0.276  0.00  0.00    -0.074 SA
HETATM   10  H   UNK N   1       4.532  -0.196   1.516  0.00  0.00     0.153 HD
ENDROOT
BRANCH   1  11
HETATM   11  N   UNK N   1      -2.118  -0.508  -0.174  0.00  0.00    -0.311 N 
HETATM   12  C   UNK N   1      -2.865   0.626  -0.088  0.00  0.00     0.320 C 
HETATM   13  O   UNK N   1      -2.335   1.726  -0.038  0.00  0.00    -0.261 OA
HETATM   14  H   UNK N   1      -2.599  -1.366  -0.225  0.00  0.00     0.170 HD
BRANCH  12  15
HETATM   15  C   UNK N   1      -4.333   0.526  -0.012  0.00  0.00     0.237 C 
HETATM   16  O   UNK N   1      -5.011   1.534   0.107  0.00  0.00    -0.643 OA
BRANCH  15  17
HETATM   17  O   UNK N   1      -4.932  -0.679  -0.051  0.00  0.00    -0.769 OA
HETATM   18  H   UNK N   1      -5.867  -0.737  -0.078  0.00  0.00     0.168 HD
ENDBRANCH  15  17
ENDBRANCH  12  15
ENDBRANCH   1  11
BRANCH   2  19
HETATM   19  C   UNK N   1      -0.480  -3.086   0.048  0.00  0.00     0.179 C 
HETATM   20  O   UNK N   1      -1.689  -3.256   0.023  0.00  0.00    -0.646 OA
BRANCH  19  21
HETATM   21  O   UNK N   1       0.330  -4.154   0.177  0.00  0.00    -0.773 OA
HETATM   22  H   UNK N   1      -0.032  -5.013   0.268  0.00  0.00     0.167 HD
ENDBRANCH  19  21
ENDBRANCH   2  19
TORSDOF 5
