REMARK  10 active torsions:
REMARK  status: ('A' for Active; 'I' for Inactive)
REMARK       I    between atoms: N_1  and  C_2 
REMARK       I    between atoms: C_5  and  N_6 
REMARK    1  A    between atoms: N_6  and  C_7 
REMARK    2  A    between atoms: C_9  and  S_36 
REMARK    3  A    between atoms: C_13  and  O_14 
REMARK    4  A    between atoms: C_15  and  N_16 
REMARK    5  A    between atoms: N_18  and  C_20 
REMARK    6  A    between atoms: C_25  and  S_26 
REMARK    7  A    between atoms: S_26  and  O_27 
REMARK    8  A    between atoms: C_30  and  S_32 
REMARK    9  A    between atoms: S_32  and  O_33 
REMARK   10  A    between atoms: S_36  and  O_37 
REMARK       I    between atoms: C_42  and  N_43 
ROOT
HETATM    1  C   UNK N   1      -0.962  -0.256  -0.503  0.00  0.00     0.064 A 
HETATM    2  C   UNK N   1      -2.131  -1.001  -0.315  0.00  0.00     0.056 A 
HETATM    3  C   UNK N   1      -2.075  -2.376  -0.104  0.00  0.00     0.075 A 
HETATM    4  C   UNK N   1      -0.841  -3.032  -0.081  0.00  0.00     0.038 A 
HETATM    5  C   UNK N   1       0.343  -2.309  -0.249  0.00  0.00    -0.018 A 
HETATM    6  C   UNK N   1       0.298  -0.912  -0.446  0.00  0.00     0.037 A 
HETATM    7  C   UNK N   1       1.510  -0.190  -0.510  0.00  0.00     0.108 A 
HETATM    8  C   UNK N   1       2.761  -0.844  -0.335  0.00  0.00     0.105 A 
HETATM    9  C   UNK N   1       2.776  -2.251  -0.184  0.00  0.00     0.104 A 
HETATM   10  C   UNK N   1       1.570  -2.961  -0.146  0.00  0.00     0.040 A 
ENDROOT
BRANCH   1  11
HETATM   11  N   UNK N   1      -1.012   1.161  -0.632  0.00  0.00    -0.190 N 
HETATM   12  C   UNK N   1      -2.089   2.021  -0.312  0.00  0.00     0.711 A 
HETATM   13  N   UNK N   1      -1.853   3.354  -0.227  0.00  0.00    -0.021 N 
HETATM   14  N   UNK N   1      -3.318   1.534  -0.004  0.00  0.00    -0.021 N 
HETATM   15  C   UNK N   1      -2.837   4.199   0.162  0.00  0.00     0.705 A 
ATOM     16  HN  UNK N   1      -0.930   3.722  -0.457  1.00  0.00     0.203 HD
HETATM   17  N   UNK N   1      -2.575   5.578   0.278  0.00  0.00    -0.234 N 
HETATM   18  N   UNK N   1      -4.067   3.712   0.462  0.00  0.00    -0.022 N 
HETATM   19  H   UNK N   1      -1.649   5.901   0.359  0.00  0.00     0.174 HD
HETATM   20  H   UNK N   1      -3.321   6.221   0.278  0.00  0.00     0.174 HD
HETATM   21  C   UNK N   1      -4.309   2.380   0.372  0.00  0.00     0.705 A 
ATOM     22  HN  UNK N   1      -4.809   4.347   0.756  1.00  0.00     0.203 HD
HETATM   23  N   UNK N   1      -5.584   1.873   0.686  0.00  0.00    -0.234 N 
HETATM   24  H   UNK N   1      -6.337   2.468   0.906  0.00  0.00     0.174 HD
HETATM   25  H   UNK N   1      -5.727   0.899   0.686  0.00  0.00     0.174 HD
ATOM     26  HN  UNK N   1      -3.496   0.531  -0.055  1.00  0.00     0.203 HD
HETATM   27  H   UNK N   1      -0.201   1.593  -0.986  0.00  0.00     0.184 HD
ENDBRANCH   1  11
BRANCH   3  28
HETATM   28  S   UNK N   1      -3.572  -3.252   0.325  0.00  0.00     0.129 S 
HETATM   29  O   UNK N   1      -3.293  -4.369   1.341  0.00  0.00    -0.598 OA
HETATM   30  O   UNK N   1      -4.497  -2.347   1.155  0.00  0.00    -0.598 OA
BRANCH  28  31
HETATM   31  O   UNK N   1      -4.581  -3.948  -0.875  0.00  0.00    -0.292 OA
HETATM   32  H   UNK N   1      -5.207  -3.652  -1.554  0.00  0.00     0.232 HD
ENDBRANCH  28  31
ENDBRANCH   3  28
BRANCH   7  33
HETATM   33  O   UNK N   1       1.480   1.143  -0.705  0.00  0.00    -0.357 OA
HETATM   34  H   UNK N   1       2.272   1.624  -0.840  0.00  0.00     0.217 HD
ENDBRANCH   7  33
BRANCH   8  35
HETATM   35  N   UNK N   1       3.967  -0.065  -0.247  0.00  0.00    -0.296 N 
HETATM   36  N   UNK N   1       3.856   1.161  -0.024  0.00  0.00    -0.299 N 
ATOM     37  HN  UNK N   1       2.903   1.501   0.103  1.00  0.00     0.187 HD
ATOM     38  HN  UNK N   1       4.883  -0.498  -0.364  1.00  0.00     0.187 HD
BRANCH  36  39
HETATM   39  C   UNK N   1       4.876   2.142   0.078  0.00  0.00     0.071 A 
HETATM   40  C   UNK N   1       4.431   3.458   0.268  0.00  0.00     0.032 A 
HETATM   41  C   UNK N   1       5.324   4.520   0.371  0.00  0.00     0.002 A 
HETATM   42  C   UNK N   1       6.691   4.280   0.282  0.00  0.00     0.002 A 
HETATM   43  C   UNK N   1       7.159   2.978   0.101  0.00  0.00     0.028 A 
HETATM   44  C   UNK N   1       6.270   1.898  -0.002  0.00  0.00     0.100 A 
BRANCH  44  45
HETATM   45  S   UNK N   1       6.978   0.270  -0.214  0.00  0.00     0.132 S 
HETATM   46  O   UNK N   1       6.721  -0.324  -1.606  0.00  0.00    -0.597 OA
HETATM   47  O   UNK N   1       8.513   0.354  -0.204  0.00  0.00    -0.597 OA
BRANCH  45  48
HETATM   48  O   UNK N   1       6.621  -0.952   0.931  0.00  0.00    -0.292 OA
HETATM   49  H   UNK N   1       5.920  -1.123   1.579  0.00  0.00     0.232 HD
ENDBRANCH  45  48
ENDBRANCH  44  45
ENDBRANCH  36  39
ENDBRANCH   8  35
BRANCH   9  50
HETATM   50  S   UNK N   1       4.294  -3.178   0.049  0.00  0.00     0.132 S 
HETATM   51  O   UNK N   1       4.004  -4.688   0.020  0.00  0.00    -0.597 OA
HETATM   52  O   UNK N   1       4.862  -3.025   1.467  0.00  0.00    -0.597 OA
BRANCH  50  53
HETATM   53  O   UNK N   1       5.610  -2.983  -1.033  0.00  0.00    -0.292 OA
HETATM   54  H   UNK N   1       6.078  -3.572  -1.645  0.00  0.00     0.232 HD
ENDBRANCH  50  53
ENDBRANCH   9  50
TORSDOF 10
