REMARK  14 active torsions:
REMARK  status: ('A' for Active; 'I' for Inactive)
REMARK    1  A    between atoms: C_12  and  C_7 
REMARK    2  A    between atoms: C_18  and  C_8 
REMARK    3  A    between atoms: C_10  and  O_23 
REMARK    4  A    between atoms: C_11  and  N_21 
REMARK    5  A    between atoms: C_13  and  C_12 
REMARK    6  A    between atoms: C_12  and  O_24 
REMARK    7  A    between atoms: C_14  and  C_13 
REMARK    8  A    between atoms: C_13  and  O_25 
REMARK    9  A    between atoms: C_15  and  C_14 
REMARK   10  A    between atoms: C_14  and  O_26 
REMARK   11  A    between atoms: C_17  and  C_15 
REMARK   12  A    between atoms: C_15  and  O_29 
REMARK   13  A    between atoms: O_27  and  C_16 
REMARK   14  A    between atoms: C_17  and  O_28 
ROOT
HETATM    1  C   UNK N   1       8.170  -2.698  -0.096  0.00  0.00     0.226 C 
ENDROOT
BRANCH   1   2
HETATM    2  C   UNK N   1       6.630  -2.629   0.205  0.00  0.00     0.186 C 
BRANCH   2   3
HETATM    3  C   UNK N   1       6.119  -1.338   0.894  0.00  0.00     0.182 C 
BRANCH   3   4
HETATM    4  C   UNK N   1       4.564  -1.312   1.122  0.00  0.00     0.172 C 
BRANCH   4   5
HETATM    5  C   UNK N   1       3.821  -0.005   0.864  0.00  0.00     0.004 C 
HETATM    6  C   UNK N   1       4.343   1.121   0.327  0.00  0.00    -0.020 C 
BRANCH   6   7
HETATM    7  C   UNK N   1       3.471   2.311  -0.009  0.00  0.00    -0.034 C 
HETATM    8  C   UNK N   1       2.812   2.873   1.236  0.00  0.00     0.018 C 
HETATM    9  C   UNK N   1       2.397   1.909  -1.008  0.00  0.00     0.018 C 
HETATM   10  C   UNK N   1       4.309   3.406  -0.647  0.00  0.00     0.018 C 
ENDBRANCH   6   7
ENDBRANCH   4   5
BRANCH   4  11
HETATM   11  O   UNK N   1       3.932  -2.261   0.312  0.00  0.00    -0.389 OA
HETATM   12  H   UNK N   1       3.143  -2.210  -0.249  0.00  0.00     0.210 HD
ENDBRANCH   4  11
ENDBRANCH   3   4
BRANCH   3  13
HETATM   13  O   UNK N   1       6.785  -1.105   2.102  0.00  0.00    -0.390 OA
HETATM   14  H   UNK N   1       7.155  -1.424   2.939  0.00  0.00     0.210 HD
ENDBRANCH   3  13
ENDBRANCH   2   3
BRANCH   2  15
HETATM   15  O   UNK N   1       6.225  -3.770   0.901  0.00  0.00    -0.390 OA
HETATM   16  H   UNK N   1       5.398  -3.922   1.385  0.00  0.00     0.210 HD
ENDBRANCH   2  15
ENDBRANCH   1   2
BRANCH   1  17
HETATM   17  C   UNK N   1       8.389  -3.540  -1.368  0.00  0.00     0.144 C 
HETATM   18  N   UNK N   1       9.185  -4.554  -1.477  0.00  0.00    -0.360 N 
ATOM     19  HN  UNK N   1       9.169  -4.985  -2.401  1.00  0.00     0.162 HD
BRANCH  18  20
HETATM   20  C   UNK N   1      10.095  -5.201  -0.556  0.00  0.00     0.158 C 
HETATM   21  C   UNK N   1      11.179  -4.263  -0.017  0.00  0.00     0.036 C 
HETATM   22  C   UNK N   1      12.143  -4.945   0.972  0.00  0.00     0.036 C 
HETATM   23  C   UNK N   1      12.528  -6.375   0.573  0.00  0.00     0.136 C 
HETATM   24  C   UNK N   1      11.410  -7.422   0.763  0.00  0.00     0.153 C 
HETATM   25  N   UNK N   1      10.093  -6.931   1.159  0.00  0.00    -0.370 N 
HETATM   26  C   UNK N   1       9.447  -5.985   0.558  0.00  0.00     0.134 C 
ATOM     27  HN  UNK N   1       9.650  -7.365   1.968  1.00  0.00     0.161 HD
BRANCH  23  28
HETATM   28  O   UNK N   1      13.630  -6.778   1.325  0.00  0.00    -0.394 OA
HETATM   29  H   UNK N   1      13.771  -7.582   1.848  0.00  0.00     0.210 HD
ENDBRANCH  23  28
BRANCH  26  30
HETATM   30  O   UNK N   1       8.190  -5.704   0.946  0.00  0.00    -0.348 OA
HETATM   31  H   UNK N   1       7.922  -4.848   1.216  0.00  0.00     0.219 HD
ENDBRANCH  26  30
ENDBRANCH  18  20
BRANCH  17  32
HETATM   32  O   UNK N   1       7.713  -3.178  -2.478  0.00  0.00    -0.348 OA
HETATM   33  H   UNK N   1       7.695  -2.646  -3.249  0.00  0.00     0.219 HD
ENDBRANCH  17  32
ENDBRANCH   1  17
BRANCH   1  34
HETATM   34  O   UNK N   1       8.763  -1.401  -0.167  0.00  0.00    -0.380 OA
HETATM   35  C   UNK N   1       8.625  -0.794  -1.426  0.00  0.00     0.202 C 
ENDBRANCH   1  34
TORSDOF 14
