REMARK  10 active torsions:
REMARK  status: ('A' for Active; 'I' for Inactive)
REMARK    1  A    between atoms: C_24  and  C_25 
REMARK    2  A    between atoms: C_27  and  C_28 
REMARK    3  A    between atoms: C_30  and  C_31 
REMARK    4  A    between atoms: C_31  and  C_32 
REMARK    5  A    between atoms: C_32  and  C_37 
REMARK    6  A    between atoms: C_33  and  C_34 
REMARK    7  A    between atoms: C_34  and  C_35 
REMARK    8  A    between atoms: C_35  and  C_40 
REMARK    9  A    between atoms: C_37  and  O_36 
REMARK   10  A    between atoms: C_40  and  O_39 
ROOT
HETATM    1  C   UNK N   1      -2.748   1.499   0.130  0.00  0.00     0.066 A 
HETATM    2  C   UNK N   1      -1.311   3.091  -0.036  0.00  0.00     0.070 A 
HETATM    3  C   UNK N   1      -0.042   3.804  -0.045  0.00  0.00     0.064 A 
HETATM    4  C   UNK N   1       1.138   3.187  -0.049  0.00  0.00     0.066 A 
HETATM    5  C   UNK N   1       2.673   1.671  -0.131  0.00  0.00     0.070 A 
HETATM    6  C   UNK N   1       3.379   0.401  -0.277  0.00  0.00     0.064 A 
HETATM    7  C   UNK N   1       2.787  -0.774  -0.380  0.00  0.00     0.066 A 
HETATM    8  C   UNK N   1       1.304  -2.318  -0.374  0.00  0.00     0.066 A 
HETATM    9  C   UNK N   1       0.180  -2.967  -0.211  0.00  0.00     0.064 A 
HETATM   10  C   UNK N   1      -1.090  -2.341   0.068  0.00  0.00     0.066 A 
HETATM   11  C   UNK N   1      -2.680  -0.925   0.276  0.00  0.00     0.066 A 
HETATM   12  C   UNK N   1      -3.363   0.199   0.303  0.00  0.00     0.064 A 
HETATM   13  N   UNK N   1       1.324   1.841  -0.108  0.00  0.00    -0.248 N 
HETATM   14  N   UNK N   1       1.452  -0.974  -0.318  0.00  0.00    -0.248 N 
HETATM   15  N   UNK N   1      -1.349  -1.016   0.060  0.00  0.00    -0.248 N 
HETATM   16  C   UNK N   1      -3.459   2.670   0.228  0.00  0.00    -0.021 A 
HETATM   17  C   UNK N   1      -4.929   2.808   0.456  0.00  0.00     0.052 C 
HETATM   18  C   UNK N   1       2.353   3.849   0.009  0.00  0.00    -0.021 A 
HETATM   19  C   UNK N   1       2.559   5.326   0.094  0.00  0.00     0.052 C 
HETATM   20  C   UNK N   1       3.462  -1.976  -0.540  0.00  0.00    -0.025 A 
HETATM   21  C   UNK N   1       4.938  -2.184  -0.638  0.00  0.00     0.051 C 
HETATM   22  C   UNK N   1      -3.234  -2.173   0.503  0.00  0.00    -0.025 A 
HETATM   23  C   UNK N   1      -4.659  -2.457   0.851  0.00  0.00     0.051 C 
HETATM   24  C   UNK N   1      -2.565   3.689   0.112  0.00  0.00     0.000 A 
HETATM   25  C   UNK N   1       3.330   2.879  -0.026  0.00  0.00     0.000 A 
HETATM   26  C   UNK N   1      -2.198  -3.072   0.400  0.00  0.00    -0.021 A 
HETATM   27  C   UNK N   1       2.508  -2.953  -0.571  0.00  0.00    -0.021 A 
HETATM   28  N   UNK N   1      -1.423   1.737  -0.041  0.00  0.00    -0.248 N 
HETATM   29 Zn   UNK N   1       0.018   0.363  -0.158  0.00  0.00     0.000 Zn
ENDROOT
BRANCH  26  30
HETATM   30  C   UNK N   1      -2.132  -4.556   0.646  0.00  0.00     0.052 C 
BRANCH  30  31
HETATM   31  C   UNK N   1      -3.440  -5.232   0.965  0.00  0.00     0.115 C 
BRANCH  31  32
HETATM   32  C   UNK N   1      -4.073  -5.594  -0.327  0.00  0.00     0.139 C 
HETATM   33  O   UNK N   1      -3.489  -6.326  -1.111  0.00  0.00    -0.650 OA
BRANCH  32  34
HETATM   34  O   UNK N   1      -5.270  -5.079  -0.652  0.00  0.00    -0.776 OA
HETATM   35  H   UNK N   1      -5.376  -4.176  -0.878  0.00  0.00     0.167 HD
ENDBRANCH  32  34
ENDBRANCH  31  32
ENDBRANCH  30  31
ENDBRANCH  26  30
BRANCH  27  36
HETATM   36  C   UNK N   1       2.726  -4.419  -0.795  0.00  0.00     0.052 C 
BRANCH  36  37
HETATM   37  C   UNK N   1       2.687  -5.228   0.480  0.00  0.00     0.115 C 
BRANCH  37  38
HETATM   38  C   UNK N   1       4.040  -5.823   0.663  0.00  0.00     0.139 C 
HETATM   39  O   UNK N   1       5.005  -5.100   0.852  0.00  0.00    -0.650 OA
BRANCH  38  40
HETATM   40  O   UNK N   1       4.208  -7.155   0.571  0.00  0.00    -0.776 OA
HETATM   41  H   UNK N   1       3.463  -7.720   0.507  0.00  0.00     0.167 HD
ENDBRANCH  38  40
ENDBRANCH  37  38
ENDBRANCH  36  37
ENDBRANCH  27  36
BRANCH  25  42
HETATM   42  C   UNK N   1       4.800   3.032   0.039  0.00  0.00     0.004 C 
HETATM   43  C   UNK N   1       5.395   4.204   0.254  0.00  0.00     0.012 C 
ENDBRANCH  25  42
BRANCH  24  44
HETATM   44  C   UNK N   1      -2.962   5.109   0.183  0.00  0.00     0.004 C 
HETATM   45  C   UNK N   1      -2.459   6.019  -0.643  0.00  0.00     0.012 C 
ENDBRANCH  24  44
TORSDOF 10
