REMARK  10 active torsions:
REMARK  status: ('A' for Active; 'I' for Inactive)
REMARK    1  A    between atoms: C_6  and  C_2 
REMARK    2  A    between atoms: O_30  and  C_2 
REMARK    3  A    between atoms: C_12  and  C_5 
REMARK    4  A    between atoms: C_5  and  N_14 
REMARK    5  A    between atoms: C_8  and  O_25 
REMARK    6  A    between atoms: N_15  and  C_10 
REMARK    7  A    between atoms: O_27  and  C_12 
REMARK    8  A    between atoms: C_13  and  N_24 
REMARK    9  A    between atoms: N_22  and  S_32 
REMARK   10  A    between atoms: S_32  and  O_30 
ROOT
HETATM    1  C   UNK N   1       0.134  -1.646   0.006  0.00  0.00     0.180 C 
HETATM    2  C   UNK N   1       1.592  -2.109   0.166  0.00  0.00     0.182 C 
HETATM    3  C   UNK N   1       2.338  -0.861  -0.208  0.00  0.00     0.198 C 
HETATM    4  C   UNK N   1       1.435   0.128   0.508  0.00  0.00     0.262 C 
HETATM    5  O   UNK N   1       2.298  -0.644  -1.590  0.00  0.00    -0.388 OA
HETATM    6  O   UNK N   1       0.117  -0.237   0.165  0.00  0.00    -0.353 OA
HETATM    7  H   UNK N   1       2.414  -0.545  -2.548  0.00  0.00     0.210 HD
ENDROOT
BRANCH   2   8
HETATM    8  O   UNK N   1       1.935  -3.200  -0.637  0.00  0.00    -0.390 OA
HETATM    9  H   UNK N   1       1.398  -3.784  -1.195  0.00  0.00     0.210 HD
ENDBRANCH   2   8
BRANCH   4  10
HETATM   10  N   UNK N   1       1.699   1.532   0.188  0.00  0.00    -0.297 N 
HETATM   11  C   UNK N   1       0.771   2.496  -0.045  0.00  0.00     0.188 A 
HETATM   12  N   UNK N   1       1.354   3.717  -0.212  0.00  0.00    -0.346 N 
HETATM   13  C   UNK N   1       2.670   3.476  -0.081  0.00  0.00     0.122 A 
ATOM     14  HN  UNK N   1       0.895   4.610  -0.395  1.00  0.00     0.167 HD
HETATM   15  C   UNK N   1       3.746   4.346  -0.151  0.00  0.00     0.131 A 
HETATM   16  C   UNK N   1       2.877   2.168   0.160  0.00  0.00     0.142 A 
HETATM   17  N   UNK N   1       5.000   3.828   0.009  0.00  0.00    -0.337 N 
HETATM   18  C   UNK N   1       5.187   2.487   0.242  0.00  0.00     0.183 A 
ATOM     19  HN  UNK N   1       5.810   4.446  -0.046  1.00  0.00     0.168 HD
HETATM   20  N   UNK N   1       4.113   1.643   0.330  0.00  0.00    -0.336 N 
ATOM     21  HN  UNK N   1       4.240   0.648   0.519  1.00  0.00     0.168 HD
BRANCH  15  22
HETATM   22  N   UNK N   1       3.559   5.725  -0.374  0.00  0.00    -0.383 N 
HETATM   23  H   UNK N   1       4.328   6.319  -0.530  0.00  0.00     0.157 HD
HETATM   24  H   UNK N   1       2.648   6.098  -0.374  0.00  0.00     0.157 HD
ENDBRANCH  15  22
ENDBRANCH   4  10
BRANCH   1  25
HETATM   25  C   UNK N   1      -0.798  -2.218   1.078  0.00  0.00     0.226 C 
BRANCH  25  26
HETATM   26  O   UNK N   1      -0.761  -3.628   1.199  0.00  0.00    -0.257 OA
BRANCH  26  27
HETATM   27  S   UNK N   1      -1.774  -4.667   0.167  0.00  0.00     0.363 S 
HETATM   28  O   UNK N   1      -0.302  -4.677  -0.261  0.00  0.00    -0.175 OA
HETATM   29  O   UNK N   1      -1.615  -4.473  -1.348  0.00  0.00    -0.175 OA
BRANCH  27  30
HETATM   30  N   UNK N   1      -2.659  -3.188  -0.247  0.00  0.00    -0.243 N 
HETATM   31  C   UNK N   1      -3.943  -3.024  -0.341  0.00  0.00     0.149 C 
ATOM     32  HN  UNK N   1      -2.089  -2.364  -0.435  1.00  0.00     0.182 HD
BRANCH  31  33
HETATM   33  C   UNK N   1      -4.993  -4.110  -0.127  0.00  0.00     0.146 C 
HETATM   34  C   UNK N   1      -5.923  -3.694   0.995  0.00  0.00     0.040 C 
BRANCH  33  35
HETATM   35  N   UNK N   1      -4.471  -5.429   0.176  0.00  0.00    -0.420 N 
HETATM   36  H   UNK N   1      -5.091  -6.210   0.389  0.00  0.00     0.150 HD
HETATM   37  H   UNK N   1      -3.462  -5.578   0.176  0.00  0.00     0.150 HD
ENDBRANCH  33  35
ENDBRANCH  31  33
BRANCH  31  38
HETATM   38  O   UNK N   1      -4.394  -1.797  -0.665  0.00  0.00    -0.347 OA
HETATM   39  H   UNK N   1      -3.812  -1.098  -0.891  0.00  0.00     0.219 HD
ENDBRANCH  31  38
ENDBRANCH  27  30
ENDBRANCH  26  27
ENDBRANCH  25  26
ENDBRANCH   1  25
TORSDOF 10
