REMARK  5 active torsions:
REMARK  status: ('A' for Active; 'I' for Inactive)
REMARK    1  A    between atoms: C_4  and  C_2 
REMARK    2  A    between atoms: O_19  and  C_2 
REMARK    3  A    between atoms: C_5  and  O_20 
REMARK    4  A    between atoms: O_21  and  C_8 
REMARK    5  A    between atoms: C_9  and  N_18 
REMARK       I    between atoms: N_11  and  C_10 
ROOT
HETATM    1  C   UNK N   1      -1.149   0.013  -0.103  0.00  0.00     0.188 A 
HETATM    2  C   UNK N   1       0.924   0.553  -0.178  0.00  0.00     0.130 A 
HETATM    3  C   UNK N   1       0.837  -0.770   0.031  0.00  0.00     0.157 A 
HETATM    4  C   UNK N   1       2.167   1.160  -0.258  0.00  0.00     0.186 A 
HETATM    5  C   UNK N   1       3.160  -0.987   0.070  0.00  0.00     0.679 A 
HETATM    6  N   UNK N   1       4.210  -1.709   0.174  0.00  0.00    -0.234 N 
ATOM      7  HN  UNK N   1       5.131  -1.271   0.174  1.00  0.00     0.174 HD
HETATM    8  N   UNK N   1      -0.314   1.080  -0.270  0.00  0.00    -0.346 N 
ATOM      9  HN  UNK N   1      -0.569   2.055  -0.428  1.00  0.00     0.167 HD
HETATM   10  N   UNK N   1       1.926  -1.567   0.161  0.00  0.00    -0.174 N 
HETATM   11  N   UNK N   1       3.277   0.367  -0.133  0.00  0.00    -0.168 N 
ATOM     12  HN  UNK N   1       4.204   0.788  -0.191  1.00  0.00     0.186 HD
HETATM   13  N   UNK N   1      -0.445  -1.136   0.089  0.00  0.00    -0.297 N 
HETATM   14  H   UNK N   1       4.132  -2.688   0.255  0.00  0.00     0.174 HD
HETATM   15  H   UNK N   1       1.832  -2.535   0.316  0.00  0.00     0.186 HD
ENDROOT
BRANCH  13  16
HETATM   16  C   UNK N   1      -0.909  -2.496   0.356  0.00  0.00     0.259 C 
HETATM   17  C   UNK N   1      -2.406  -2.711   0.300  0.00  0.00     0.169 C 
HETATM   18  C   UNK N   1      -2.429  -4.217   0.321  0.00  0.00     0.070 C 
HETATM   19  C   UNK N   1      -1.106  -4.587  -0.359  0.00  0.00     0.150 C 
HETATM   20  O   UNK N   1      -0.376  -3.397  -0.576  0.00  0.00    -0.356 OA
BRANCH  17  21
HETATM   21  O   UNK N   1      -2.926  -2.269  -0.920  0.00  0.00    -0.391 OA
HETATM   22  H   UNK N   1      -2.840  -1.803  -1.767  0.00  0.00     0.210 HD
ENDBRANCH  17  21
BRANCH  19  23
HETATM   23  C   UNK N   1      -0.301  -5.514   0.546  0.00  0.00     0.196 C 
BRANCH  23  24
HETATM   24  O   UNK N   1       0.976  -5.715   0.019  0.00  0.00    -0.398 OA
HETATM   25  H   UNK N   1       1.299  -6.553  -0.347  0.00  0.00     0.209 HD
ENDBRANCH  23  24
ENDBRANCH  19  23
ENDBRANCH  13  16
BRANCH   4  26
HETATM   26  O   UNK N   1       2.290   2.484  -0.447  0.00  0.00    -0.344 OA
HETATM   27  H   UNK N   1       3.133   2.871  -0.579  0.00  0.00     0.219 HD
ENDBRANCH   4  26
TORSDOF 5
