REMARK  14 active torsions:
REMARK  status: ('A' for Active; 'I' for Inactive)
REMARK    1  A    between atoms: C_6  and  C_3 
REMARK    2  A    between atoms: O_33  and  C_3 
REMARK    3  A    between atoms: C_7  and  C_4 
REMARK    4  A    between atoms: O_41  and  C_4 
REMARK    5  A    between atoms: C_11  and  O_35 
REMARK    6  A    between atoms: C_12  and  O_36 
REMARK    7  A    between atoms: C_13  and  O_44 
REMARK    8  A    between atoms: O_37  and  C_15 
REMARK    9  A    between atoms: C_16  and  N_32 
REMARK   10  A    between atoms: C_17  and  N_31 
REMARK   11  A    between atoms: O_38  and  C_19 
REMARK   12  A    between atoms: P_45  and  O_39 
REMARK   13  A    between atoms: P_45  and  O_41 
REMARK   14  A    between atoms: P_45  and  O_44 
ROOT
HETATM    1  C   UNK N   1      -1.163  -2.859   0.691  0.00  0.00     0.180 C 
HETATM    2  C   UNK N   1      -0.191  -3.778  -0.095  0.00  0.00     0.182 C 
HETATM    3  C   UNK N   1       1.133  -3.222   0.307  0.00  0.00     0.198 C 
HETATM    4  C   UNK N   1       0.810  -1.784   0.639  0.00  0.00     0.262 C 
HETATM    5  O   UNK N   1      -0.364  -3.584  -1.469  0.00  0.00    -0.390 OA
HETATM    6  O   UNK N   1      -0.458  -1.765   1.211  0.00  0.00    -0.353 OA
HETATM    7  H   UNK N   1      -0.308  -3.413  -2.422  0.00  0.00     0.210 HD
ENDROOT
BRANCH   1   8
HETATM    8  C   UNK N   1      -1.848  -3.408   1.936  0.00  0.00     0.215 C 
BRANCH   8   9
HETATM    9  O   UNK N   1      -2.607  -4.566   1.753  0.00  0.00    -0.294 OA
BRANCH   9  10
HETATM   10  P   UNK N   1      -4.127  -4.484   0.821  0.00  0.00     0.393 P 
HETATM   11  O   UNK N   1      -4.046  -2.931   0.830  0.00  0.00    -0.631 OA
BRANCH  10  12
HETATM   12  O   UNK N   1      -3.850  -3.944  -0.810  0.00  0.00    -0.307 OA
HETATM   13  H   UNK N   1      -3.512  -3.927  -1.719  0.00  0.00     0.222 HD
ENDBRANCH  10  12
BRANCH  10  14
HETATM   14  O   UNK N   1      -3.063  -5.442  -0.201  0.00  0.00    -0.284 OA
BRANCH  14  15
HETATM   15  C   UNK N   1      -2.919  -6.764   0.311  0.00  0.00     0.214 C 
HETATM   16  C   UNK N   1      -2.103  -7.694  -0.564  0.00  0.00     0.183 C 
HETATM   17  C   UNK N   1      -2.878  -9.006  -0.391  0.00  0.00     0.179 C 
HETATM   18  O   UNK N   1      -3.618  -8.928   0.811  0.00  0.00    -0.353 OA
HETATM   19  C   UNK N   1      -4.114  -7.605   0.818  0.00  0.00     0.263 C 
BRANCH  16  20
HETATM   20  O   UNK N   1      -0.795  -7.783  -0.057  0.00  0.00    -0.390 OA
HETATM   21  H   UNK N   1      -0.398  -8.596   0.293  0.00  0.00     0.210 HD
ENDBRANCH  16  20
BRANCH  17  22
HETATM   22  C   UNK N   1      -2.019 -10.269  -0.443  0.00  0.00     0.198 C 
BRANCH  22  23
HETATM   23  O   UNK N   1      -1.221 -10.378   0.698  0.00  0.00    -0.398 OA
HETATM   24  H   UNK N   1      -1.010 -10.896   1.491  0.00  0.00     0.209 HD
ENDBRANCH  22  23
ENDBRANCH  17  22
BRANCH  19  25
HETATM   25  N   UNK N   1      -5.470  -7.580   0.206  0.00  0.00    -0.293 N 
HETATM   26  C   UNK N   1      -6.413  -8.286   0.902  0.00  0.00     0.101 A 
HETATM   27  C   UNK N   1      -7.745  -8.306   0.512  0.00  0.00     0.065 A 
HETATM   28  C   UNK N   1      -8.112  -7.584  -0.608  0.00  0.00     0.102 A 
HETATM   29  N   UNK N   1      -9.334  -7.559  -0.980  0.00  0.00    -0.385 N 
HETATM   30  N   UNK N   1      -7.169  -6.908  -1.312  0.00  0.00    -0.308 N 
HETATM   31  H   UNK N   1      -9.789  -6.734  -1.267  0.00  0.00     0.157 HD
ATOM     32  HN  UNK N   1      -9.862  -8.432  -0.980  1.00  0.00     0.157 HD
HETATM   33  C   UNK N   1      -5.861  -6.902  -0.929  0.00  0.00     0.227 A 
ATOM     34  HN  UNK N   1      -7.446  -6.393  -2.147  1.00  0.00     0.171 HD
BRANCH  33  35
HETATM   35  O   UNK N   1      -4.979  -6.235  -1.683  0.00  0.00    -0.332 OA
HETATM   36  H   UNK N   1      -4.267  -6.536  -2.212  0.00  0.00     0.221 HD
ENDBRANCH  33  35
ENDBRANCH  19  25
ENDBRANCH  14  15
ENDBRANCH  10  14
ENDBRANCH   9  10
ENDBRANCH   8   9
ENDBRANCH   1   8
BRANCH   3  37
HETATM   37  O   UNK N   1       2.166  -3.390  -0.620  0.00  0.00    -0.388 OA
HETATM   38  H   UNK N   1       2.424  -4.069  -1.263  0.00  0.00     0.210 HD
ENDBRANCH   3  37
BRANCH   4  39
HETATM   39  N   UNK N   1       0.864  -0.705  -0.353  0.00  0.00    -0.297 N 
HETATM   40  C   UNK N   1      -0.165   0.163  -0.570  0.00  0.00     0.188 A 
HETATM   41  N   UNK N   1       0.284   1.438  -0.732  0.00  0.00    -0.346 N 
HETATM   42  C   UNK N   1       1.614   1.329  -0.587  0.00  0.00     0.130 A 
ATOM     43  HN  UNK N   1      -0.261   2.279  -0.921  1.00  0.00     0.167 HD
HETATM   44  C   UNK N   1       1.962   0.040  -0.432  0.00  0.00     0.157 A 
HETATM   45  C   UNK N   1       2.575   2.312  -0.406  0.00  0.00     0.186 A 
HETATM   46  N   UNK N   1       3.221  -0.360  -0.172  0.00  0.00    -0.174 N 
HETATM   47  C   UNK N   1       4.197   0.587  -0.105  0.00  0.00     0.679 A 
HETATM   48  H   UNK N   1       3.431  -1.312  -0.034  0.00  0.00     0.186 HD
HETATM   49  N   UNK N   1       5.407   0.235   0.082  0.00  0.00    -0.234 N 
HETATM   50  N   UNK N   1       3.865   1.919  -0.184  0.00  0.00    -0.168 N 
HETATM   51  H   UNK N   1       5.639  -0.711   0.227  0.00  0.00     0.174 HD
ATOM     52  HN  UNK N   1       6.144   0.941   0.082  1.00  0.00     0.174 HD
ATOM     53  HN  UNK N   1       4.593   2.625  -0.076  1.00  0.00     0.186 HD
BRANCH  45  54
HETATM   54  O   UNK N   1       2.236   3.611  -0.359  0.00  0.00    -0.344 OA
HETATM   55  H   UNK N   1       2.903   4.269  -0.325  0.00  0.00     0.219 HD
ENDBRANCH  45  54
ENDBRANCH   4  39
TORSDOF 14
