REMARK  9 active torsions:
REMARK  status: ('A' for Active; 'I' for Inactive)
REMARK    1  A    between atoms: C_4  and  C_2 
REMARK    2  A    between atoms: O_25  and  C_2 
REMARK    3  A    between atoms: C_6  and  O_19 
REMARK    4  A    between atoms: C_7  and  O_20 
REMARK    5  A    between atoms: O_21  and  C_9 
REMARK    6  A    between atoms: C_10  and  N_18 
REMARK       I    between atoms: N_12  and  C_11 
REMARK    7  A    between atoms: P_27  and  O_22 
REMARK    8  A    between atoms: P_27  and  O_23 
REMARK    9  A    between atoms: P_27  and  O_25 
ROOT
HETATM    1  C   UNK N   1      -1.738  -4.024   0.480  0.00  0.00     0.180 C 
HETATM    2  C   UNK N   1      -0.367  -4.615   0.199  0.00  0.00     0.182 C 
HETATM    3  C   UNK N   1       0.494  -3.413  -0.029  0.00  0.00     0.198 C 
HETATM    4  C   UNK N   1      -0.540  -2.356  -0.330  0.00  0.00     0.262 C 
HETATM    5  O   UNK N   1      -1.610  -2.619   0.535  0.00  0.00    -0.353 OA
ENDROOT
BRANCH   4   6
HETATM    6  N   UNK N   1      -0.051  -0.978  -0.198  0.00  0.00    -0.296 N 
HETATM    7  C   UNK N   1      -0.832   0.135  -0.255  0.00  0.00     0.190 A 
HETATM    8  N   UNK N   1      -0.077   1.259  -0.162  0.00  0.00    -0.341 N 
HETATM    9  C   UNK N   1      -0.566   2.626  -0.198  0.00  0.00     0.157 C 
HETATM   10  C   UNK N   1       1.197   0.838  -0.064  0.00  0.00     0.132 A 
HETATM   11  C   UNK N   1       1.210  -0.512  -0.075  0.00  0.00     0.158 A 
HETATM   12  C   UNK N   1       2.389   1.547   0.015  0.00  0.00     0.186 A 
HETATM   13  N   UNK N   1       2.363  -1.224  -0.015  0.00  0.00    -0.174 N 
HETATM   14  C   UNK N   1       3.544  -0.540   0.064  0.00  0.00     0.679 A 
HETATM   15  H   UNK N   1       2.350  -2.208  -0.027  0.00  0.00     0.186 HD
HETATM   16  N   UNK N   1       4.648  -1.184   0.113  0.00  0.00    -0.234 N 
HETATM   17  N   UNK N   1       3.554   0.833   0.077  0.00  0.00    -0.168 N 
HETATM   18  H   UNK N   1       4.643  -2.168   0.151  0.00  0.00     0.174 HD
ATOM     19  HN  UNK N   1       5.534  -0.678   0.113  1.00  0.00     0.174 HD
ATOM     20  HN  UNK N   1       4.444   1.329   0.135  1.00  0.00     0.186 HD
BRANCH  12  21
HETATM   21  O   UNK N   1       2.412   2.890   0.012  0.00  0.00    -0.344 OA
HETATM   22  H   UNK N   1       3.232   3.344   0.010  0.00  0.00     0.219 HD
ENDBRANCH  12  21
ENDBRANCH   4   6
BRANCH   3  23
HETATM   23  O   UNK N   1       1.335  -3.619  -1.123  0.00  0.00    -0.388 OA
HETATM   24  H   UNK N   1       1.503  -4.197  -1.883  0.00  0.00     0.210 HD
ENDBRANCH   3  23
BRANCH   2  25
HETATM   25  O   UNK N   1       0.095  -5.325   1.306  0.00  0.00    -0.390 OA
HETATM   26  H   UNK N   1      -0.172  -5.850   2.077  0.00  0.00     0.210 HD
ENDBRANCH   2  25
BRANCH   1  27
HETATM   27  C   UNK N   1      -2.651  -4.441  -0.672  0.00  0.00     0.215 C 
BRANCH  27  28
HETATM   28  O   UNK N   1      -3.990  -4.086  -0.453  0.00  0.00    -0.294 OA
BRANCH  28  29
HETATM   29  P   UNK N   1      -4.692  -5.347   0.537  0.00  0.00     0.390 P 
HETATM   30  O   UNK N   1      -4.706  -6.147  -0.797  0.00  0.00    -0.632 OA
BRANCH  29  31
HETATM   31  O   UNK N   1      -6.358  -5.828   0.488  0.00  0.00    -0.307 OA
HETATM   32  H   UNK N   1      -7.057  -5.156   0.460  0.00  0.00     0.222 HD
ENDBRANCH  29  31
BRANCH  29  33
HETATM   33  O   UNK N   1      -5.784  -4.020   0.283  0.00  0.00    -0.307 OA
HETATM   34  H   UNK N   1      -5.447  -3.122   0.142  0.00  0.00     0.222 HD
ENDBRANCH  29  33
ENDBRANCH  28  29
ENDBRANCH  27  28
ENDBRANCH   1  27
TORSDOF 9
