REMARK  5 active torsions:
REMARK  status: ('A' for Active; 'I' for Inactive)
REMARK    1  A    between atoms: C_2  and  C_1 
REMARK    2  A    between atoms: O_4  and  C_1 
REMARK    3  A    between atoms: C_3  and  C_2 
REMARK    4  A    between atoms: C_2  and  N_6 
REMARK    5  A    between atoms: S_7  and  C_3 
ROOT
HETATM    1  C   UNK N   1      11.644  -5.956   0.365  0.00  0.00     0.184 C 
ENDROOT
BRANCH   1   2
HETATM    2  C   UNK N   1      12.912  -5.223   0.033  0.00  0.00     0.163 C 
HETATM    3  O   UNK N   1      12.917  -4.002  -0.032  0.00  0.00    -0.648 OA
BRANCH   2   4
HETATM    4  O   UNK N   1      14.075  -5.895  -0.066  0.00  0.00    -0.775 OA
HETATM    5  H   UNK N   1      14.075  -6.829  -0.135  0.00  0.00     0.167 HD
ENDBRANCH   2   4
ENDBRANCH   1   2
BRANCH   1   6
HETATM    6  C   UNK N   1      10.422  -5.269  -0.219  0.00  0.00     0.141 C 
BRANCH   6   7
HETATM    7  S   UNK N   1       8.929  -5.900   0.597  0.00  0.00     0.007 S 
HETATM    8  O   UNK N   1       8.019  -5.004  -0.255  0.00  0.00    -0.261 OA
HETATM    9  H   UNK N   1       8.838  -6.969  -0.313  0.00  0.00     0.138 HD
ENDBRANCH   6   7
ENDBRANCH   1   6
BRANCH   1  10
HETATM   10  N   UNK N   1      11.712  -7.331  -0.109  0.00  0.00    -0.417 N 
HETATM   11  H   UNK N   1      10.901  -7.854  -0.441  0.00  0.00     0.150 HD
HETATM   12  H   UNK N   1      12.619  -7.797  -0.109  0.00  0.00     0.150 HD
ENDBRANCH   1  10
TORSDOF 5
