REMARK  3 active torsions:
REMARK  status: ('A' for Active; 'I' for Inactive)
REMARK    1  A    between atoms: N_1  and  C_2 
REMARK    2  A    between atoms: C_2  and  C_3 
REMARK    3  A    between atoms: C_3  and  O_4 
ROOT
HETATM    1  C   UNK N   1       1.378  -1.051  -0.000  0.00  0.00     0.137 C 
ENDROOT
BRANCH   1   2
HETATM    2  N   UNK N   1       2.820  -0.902   0.000  0.00  0.00    -0.428 N 
HETATM    3  H   UNK N   1       3.418  -1.728   0.000  0.00  0.00     0.149 HD
HETATM    4  H   UNK N   1       3.236   0.029   0.000  0.00  0.00     0.149 HD
ENDBRANCH   1   2
BRANCH   1   5
HETATM    5  C   UNK N   1       0.733   0.318  -0.000  0.00  0.00     0.183 C 
BRANCH   5   6
HETATM    6  O   UNK N   1      -0.652   0.175   0.000  0.00  0.00    -0.399 OA
HETATM    7  H   UNK N   1      -1.221   0.961   0.000  0.00  0.00     0.209 HD
ENDBRANCH   5   6
ENDBRANCH   1   5
TORSDOF 3
