REMARK  3 active torsions:
REMARK  status: ('A' for Active; 'I' for Inactive)
REMARK    1  A    between atoms: O_1  and  C_2 
REMARK    2  A    between atoms: C_2  and  C_4 
REMARK    3  A    between atoms: C_4  and  O_5 
ROOT
HETATM    1  C   UNK N   1       1.464   0.950   0.000  0.00  0.00     0.243 C 
HETATM    2  O   UNK N   1       2.677   0.824   0.000  0.00  0.00    -0.642 OA
ENDROOT
BRANCH   1   3
HETATM    3  O   UNK N   1       0.919   2.182  -0.000  0.00  0.00    -0.768 OA
HETATM    4  H   UNK N   1       1.472   2.939  -0.000  0.00  0.00     0.168 HD
ENDBRANCH   1   3
BRANCH   1   5
HETATM    5  C   UNK N   1       0.598  -0.236   0.000  0.00  0.00     0.243 C 
HETATM    6  O   UNK N   1      -0.614  -0.109   0.000  0.00  0.00    -0.642 OA
BRANCH   5   7
HETATM    7  O   UNK N   1       1.143  -1.468  -0.000  0.00  0.00    -0.768 OA
HETATM    8  H   UNK N   1       0.591  -2.225  -0.000  0.00  0.00     0.168 HD
ENDBRANCH   5   7
ENDBRANCH   1   5
TORSDOF 3
