REMARK  14 active torsions:
REMARK  status: ('A' for Active; 'I' for Inactive)
REMARK    1  A    between atoms: C_34  and  C_22 
REMARK    2  A    between atoms: C_35  and  C_23 
REMARK    3  A    between atoms: C_37  and  C_27 
REMARK    4  A    between atoms: C_46  and  C_30 
REMARK    5  A    between atoms: C_47  and  C_33 
REMARK    6  A    between atoms: C_41  and  C_35 
REMARK    7  A    between atoms: C_38  and  C_36 
REMARK    8  A    between atoms: N_53  and  C_38 
REMARK    9  A    between atoms: N_54  and  C_39 
REMARK   10  A    between atoms: C_43  and  C_42 
REMARK   11  A    between atoms: C_42  and  O_65 
REMARK   12  A    between atoms: C_48  and  C_45 
REMARK   13  A    between atoms: O_66  and  C_51 
REMARK   14  A    between atoms: O_67  and  C_52 
ROOT
HETATM    1  C   UNK N   1      -0.857   1.769   0.000  0.00  0.00     0.006 A 
HETATM    2  C   UNK N   1      -0.210  -0.946   0.000  0.00  0.00     0.046 A 
HETATM    3  C   UNK N   1       2.136  -0.159   0.000  0.00  0.00     0.013 A 
HETATM    4  C   UNK N   1       3.429   2.520   0.000  0.00  0.00     0.046 A 
HETATM    5  C   UNK N   1       5.822  -3.463   0.000  0.00  0.00     0.016 A 
HETATM    6  C   UNK N   1       2.920   0.098   0.000  0.00  0.00     0.015 A 
HETATM    7  C   UNK N   1       9.090   7.029   0.000  0.00  0.00     0.155 A 
HETATM    8  C   UNK N   1       4.108   5.749   0.000  0.00  0.00     0.202 A 
HETATM    9  C   UNK N   1       2.411  -2.324   0.000  0.00  0.00     0.202 A 
HETATM   10  C   UNK N   1       2.856  -3.682   0.000  0.00  0.00     0.202 A 
HETATM   11  C   UNK N   1      -0.520   1.016   0.000  0.00  0.00     0.011 A 
HETATM   12  C   UNK N   1       7.285   0.023   0.000  0.00  0.00     0.003 A 
HETATM   13  C   UNK N   1       7.408  -0.593   0.000  0.00  0.00     0.015 A 
HETATM   14  C   UNK N   1       6.671   0.574   0.000  0.00  0.00     0.030 A 
HETATM   15  C   UNK N   1       5.782   3.290   0.000  0.00  0.00     0.011 A 
HETATM   16  C   UNK N   1       6.460   6.519   0.000  0.00  0.00     0.039 A 
HETATM   17  C   UNK N   1       7.244   6.776   0.000  0.00  0.00     0.033 A 
HETATM   18  C   UNK N   1       5.951   4.097   0.000  0.00  0.00     0.036 A 
HETATM   19  C   UNK N   1       8.404   5.007   0.000  0.00  0.00     0.031 A 
HETATM   20  C   UNK N   1       6.522  -1.334   0.000  0.00  0.00     0.100 A 
HETATM   21  C   UNK N   1       9.016   5.561   0.000  0.00  0.00     0.091 A 
HETATM   22  C   UNK N   1       4.828   2.226   0.000  0.00  0.00    -0.017 A 
HETATM   23  C   UNK N   1       0.715   0.218   0.000  0.00  0.00    -0.010 A 
HETATM   24  C   UNK N   1       2.581  -1.517   0.000  0.00  0.00     0.041 A 
HETATM   25  C   UNK N   1       4.424  -3.169   0.000  0.00  0.00     0.044 A 
HETATM   26  C   UNK N   1       4.383   3.584   0.000  0.00  0.00     0.043 A 
HETATM   27  C   UNK N   1       6.905   5.161   0.000  0.00  0.00     0.050 A 
HETATM   28  C   UNK N   1       1.606   1.212   0.000  0.00  0.00     0.111 A 
HETATM   29  C   UNK N   1       0.568  -0.672   0.000  0.00  0.00    -0.058 A 
HETATM   30  C   UNK N   1       1.966  -0.966   0.000  0.00  0.00     0.017 A 
HETATM   31  C   UNK N   1       4.044   1.969   0.000  0.00  0.00    -0.058 A 
HETATM   32  C   UNK N   1       5.208  -2.912   0.000  0.00  0.00     0.055 A 
HETATM   33  C   UNK N   1       3.090   0.905   0.000  0.00  0.00     0.044 A 
HETATM   34  C   UNK N   1       4.997   3.033   0.000  0.00  0.00     0.011 A 
HETATM   35  C   UNK N   1       0.301   0.932   0.000  0.00  0.00     0.078 A 
HETATM   36  C   UNK N   1       7.689   5.418   0.000  0.00  0.00    -0.005 A 
HETATM   37  C   UNK N   1       6.291   5.712   0.000  0.00  0.00     0.070 A 
HETATM   38  C   UNK N   1       7.859   6.225   0.000  0.00  0.00     0.044 A 
HETATM   39  C   UNK N   1       5.887   0.317   0.000  0.00  0.00     0.166 A 
HETATM   40  C   UNK N   1       2.475   1.456   0.000  0.00  0.00     0.131 A 
HETATM   41  C   UNK N   1       0.852   1.546   0.000  0.00  0.00     0.137 A 
HETATM   42  C   UNK N   1       5.337   4.648   0.000  0.00  0.00     0.158 A 
HETATM   43  C   UNK N   1       4.553   4.391   0.000  0.00  0.00     0.151 A 
HETATM   44  C   UNK N   1       3.365  -1.260   0.000  0.00  0.00     0.152 A 
HETATM   45  C   UNK N   1       3.809  -2.618   0.000  0.00  0.00     0.153 A 
HETATM   46  C   UNK N   1       1.182  -1.223   0.000  0.00  0.00     0.150 A 
HETATM   47  C   UNK N   1       3.874   1.162   0.000  0.00  0.00     0.166 A 
HETATM   48  C   UNK N   1       3.979  -1.811   0.000  0.00  0.00     0.183 A 
HETATM   49  C   UNK N   1       6.162  -1.848   0.000  0.00  0.00     0.273 A 
HETATM   50  C   UNK N   1       6.331  -1.041   0.000  0.00  0.00     0.275 A 
HETATM   51  C   UNK N   1       5.272   0.868   0.000  0.00  0.00     0.278 A 
HETATM   52  C   UNK N   1       5.377  -2.105   0.000  0.00  0.00     0.238 A 
HETATM   53  N   UNK N   1       8.679   6.314   0.000  0.00  0.00    -0.360 N 
HETATM   54  N   UNK N   1       5.717  -0.490   0.000  0.00  0.00    -0.232 N 
HETATM   55  O   UNK N   1       2.663   2.259   0.000  0.00  0.00    -0.395 OA
HETATM   56  O   UNK N   1       0.678   2.353   0.000  0.00  0.00    -0.297 OA
HETATM   57  O   UNK N   1       1.013  -2.030   0.000  0.00  0.00    -0.391 OA
HETATM   58  O   UNK N   1       6.776  -2.399   0.000  0.00  0.00    -0.282 OA
HETATM   59  O   UNK N   1       7.115  -0.784   0.000  0.00  0.00    -0.270 OA
HETATM   60  O   UNK N   1       5.442   1.675   0.000  0.00  0.00    -0.263 OA
HETATM   61  O   UNK N   1       5.992  -2.655   0.000  0.00  0.00    -0.359 OA
HETATM   62  O   UNK N   1       3.938   4.942   0.000  0.00  0.00    -0.388 OA
HETATM   63  O   UNK N   1       3.195  -2.067   0.000  0.00  0.00    -0.388 OA
HETATM   64  O   UNK N   1       3.025  -2.875   0.000  0.00  0.00    -0.388 OA
HETATM   65  O   UNK N   1       5.507   5.455   0.000  0.00  0.00    -0.343 OA
HETATM   66  O   UNK N   1       4.488   0.611   0.000  0.00  0.00    -0.310 OA
HETATM   67  O   UNK N   1       4.763  -1.554   0.000  0.00  0.00    -0.338 OA
HETATM   68  H   UNK N   1       3.591   2.541   0.000  0.00  0.00     0.210 HD
HETATM   69  H   UNK N   1       0.091  -2.332   0.000  0.00  0.00     0.210 HD
HETATM   70  H   UNK N   1       5.792  -3.605   0.000  0.00  0.00     0.213 HD
ENDROOT
TORSDOF 14
