REMARK  4 active torsions:
REMARK  status: ('A' for Active; 'I' for Inactive)
REMARK    1  A    between atoms: C_2  and  N_4 
REMARK    2  A    between atoms: N_4  and  O_5 
REMARK       I    between atoms: N_4  and  C_6 
REMARK    3  A    between atoms: C_6  and  C_8 
REMARK    4  A    between atoms: C_8  and  O_9 
ROOT
HETATM    1  N   UNK N   1       0.925   0.749   0.000  0.00  0.00    -0.215 N 
HETATM    2  C   UNK N   1       2.122   1.423  -0.000  0.00  0.00     0.341 C 
HETATM    3  O   UNK N   1       2.141   2.646   0.000  0.00  0.00    -0.259 OA
ENDROOT
BRANCH   1   4
HETATM    4  C   UNK N   1      -0.366   1.437   0.000  0.00  0.00     0.110 C 
HETATM    5  C   UNK N   1      -1.633   0.602  -0.000  0.00  0.00     0.034 C 
HETATM    6  C   UNK N   1      -0.485   2.956  -0.000  0.00  0.00     0.034 C 
ENDBRANCH   1   4
BRANCH   1   7
HETATM    7  O   UNK N   1       0.922  -0.595  -0.000  0.00  0.00    -0.284 OA
HETATM    8  H   UNK N   1       0.081  -1.078  -0.000  0.00  0.00     0.245 HD
ENDBRANCH   1   7
BRANCH   2   9
HETATM    9  C   UNK N   1       3.432   0.724  -0.000  0.00  0.00     0.239 C 
HETATM   10  O   UNK N   1       3.503  -0.495  -0.000  0.00  0.00    -0.642 OA
BRANCH   9  11
HETATM   11  O   UNK N   1       4.567   1.450  -0.000  0.00  0.00    -0.769 OA
HETATM   12  H   UNK N   1       5.399   1.019  -0.000  0.00  0.00     0.168 HD
ENDBRANCH   9  11
ENDBRANCH   2   9
TORSDOF 4
