REMARK  0 active torsions:
REMARK  status: ('A' for Active; 'I' for Inactive)
ROOT
HETATM    1  C   UNK N   1      -0.003  -2.147   0.138  0.00  0.00     0.009 C 
HETATM    2  C   UNK N   1       0.770  -1.907  -1.170  0.00  0.00    -0.013 C 
HETATM    3  C   UNK N   1       0.736  -0.408  -1.512  0.00  0.00     0.009 C 
HETATM    4  C   UNK N   1       1.382   0.405  -0.378  0.00  0.00    -0.013 C 
HETATM    5  C   UNK N   1       0.601   0.158   0.923  0.00  0.00     0.009 C 
HETATM    6  C   UNK N   1       0.634  -1.337   1.280  0.00  0.00    -0.013 C 
HETATM    7  C   UNK N   1       2.095  -1.780   1.461  0.00  0.00     0.009 C 
HETATM    8  C   UNK N   1       2.880  -1.548   0.159  0.00  0.00    -0.013 C 
HETATM    9  C   UNK N   1       2.229  -2.352  -0.979  0.00  0.00     0.009 C 
HETATM   10  C   UNK N   1       2.839  -0.052  -0.194  0.00  0.00     0.009 C 
ENDROOT
TORSDOF 0
