REMARK  4 active torsions:
REMARK  status: ('A' for Active; 'I' for Inactive)
REMARK       I    between atoms: C_2  and  N_4 
REMARK    1  A    between atoms: N_4  and  C_5 
REMARK    2  A    between atoms: C_8  and  C_15 
REMARK    3  A    between atoms: C_10  and  N_11 
REMARK       I    between atoms: N_11  and  C_12 
REMARK       I    between atoms: C_12  and  N_13 
REMARK       I    between atoms: C_12  and  N_14 
REMARK    4  A    between atoms: C_15  and  O_16 
ROOT
HETATM    1  C   UNK N   1       1.836   0.682  -0.157  0.00  0.00     0.061 A 
HETATM    2  C   UNK N   1       1.941  -0.716  -0.175  0.00  0.00     0.033 A 
HETATM    3  C   UNK N   1       0.815  -1.530  -0.061  0.00  0.00     0.021 A 
HETATM    4  C   UNK N   1      -0.452  -0.964   0.066  0.00  0.00     0.040 A 
HETATM    5  C   UNK N   1      -0.581   0.429   0.081  0.00  0.00     0.050 A 
HETATM    6  C   UNK N   1       0.542   1.267  -0.033  0.00  0.00     0.059 A 
ENDROOT
BRANCH   6   7
HETATM    7  N   UNK N   1       0.356   2.675  -0.070  0.00  0.00    -0.351 N 
HETATM    8  C   UNK N   1      -0.911   3.324   0.185  0.00  0.00     0.275 C 
HETATM    9  N   UNK N   1      -1.887   2.948  -0.823  0.00  0.00    -0.395 N 
HETATM   10  N   UNK N   1      -0.726   4.763   0.156  0.00  0.00    -0.395 N 
HETATM   11  H   UNK N   1      -2.459   3.409  -1.531  0.00  0.00     0.153 HD
HETATM   12  H   UNK N   1      -2.045   1.940  -0.823  0.00  0.00     0.153 HD
HETATM   13  H   UNK N   1       0.215   5.157   0.137  0.00  0.00     0.153 HD
HETATM   14  H   UNK N   1      -1.537   5.382   0.156  0.00  0.00     0.153 HD
HETATM   15  H   UNK N   1       1.134   3.241  -0.280  0.00  0.00     0.163 HD
ENDBRANCH   6   7
BRANCH   1  16
HETATM   16  N   UNK N   1       3.055   1.414  -0.321  0.00  0.00    -0.326 N 
HETATM   17  C   UNK N   1       3.380   2.669   0.093  0.00  0.00     0.218 C 
HETATM   18  C   UNK N   1       4.720   3.217  -0.258  0.00  0.00     0.117 C 
HETATM   19  O   UNK N   1       2.638   3.325   0.801  0.00  0.00    -0.274 OA
HETATM   20  H   UNK N   1       3.766   0.937  -0.807  0.00  0.00     0.169 HD
ENDBRANCH   1  16
BRANCH   4  21
HETATM   21  C   UNK N   1      -1.647  -1.827   0.153  0.00  0.00     0.176 C 
HETATM   22  O   UNK N   1      -2.761  -1.333   0.228  0.00  0.00    -0.646 OA
BRANCH  21  23
HETATM   23  O   UNK N   1      -1.516  -3.168   0.134  0.00  0.00    -0.773 OA
HETATM   24  H   UNK N   1      -2.278  -3.713   0.121  0.00  0.00     0.167 HD
ENDBRANCH  21  23
ENDBRANCH   4  21
TORSDOF 4
