REMARK  7 active torsions:
REMARK  status: ('A' for Active; 'I' for Inactive)
REMARK    1  A    between atoms: C_4  and  C_1 
REMARK    2  A    between atoms: O_11  and  C_1 
REMARK    3  A    between atoms: C_3  and  O_12 
REMARK    4  A    between atoms: C_6  and  O_14 
REMARK    5  A    between atoms: C_8  and  O_19 
REMARK    6  A    between atoms: C_9  and  O_16 
REMARK    7  A    between atoms: C_10  and  O_19 
ROOT
HETATM    1  C   UNK N   1       3.406  -0.691   0.354  0.00  0.00     0.179 C 
HETATM    2  C   UNK N   1       2.265   0.139  -0.236  0.00  0.00     0.182 C 
HETATM    3  C   UNK N   1       1.130  -0.768   0.145  0.00  0.00     0.204 C 
HETATM    4  C   UNK N   1       1.732  -2.110  -0.256  0.00  0.00     0.292 C 
HETATM    5  O   UNK N   1       2.377   0.208  -1.632  0.00  0.00    -0.390 OA
HETATM    6  O   UNK N   1       3.092  -2.054   0.139  0.00  0.00    -0.348 OA
HETATM    7  H   UNK N   1       2.458   0.165  -2.598  0.00  0.00     0.210 HD
ENDROOT
BRANCH   1   8
HETATM    8  C   UNK N   1       4.767  -0.361  -0.252  0.00  0.00     0.198 C 
BRANCH   8   9
HETATM    9  O   UNK N   1       5.108   0.969  -0.009  0.00  0.00    -0.398 OA
HETATM   10  H   UNK N   1       6.028   1.227   0.160  0.00  0.00     0.209 HD
ENDBRANCH   8   9
ENDBRANCH   1   8
BRANCH   3  11
HETATM   11  O   UNK N   1      -0.061  -0.478  -0.524  0.00  0.00    -0.388 OA
HETATM   12  H   UNK N   1      -0.300   0.339  -0.989  0.00  0.00     0.210 HD
ENDBRANCH   3  11
BRANCH   4  13
HETATM   13  O   UNK N   1       1.043  -3.163   0.393  0.00  0.00    -0.348 OA
BRANCH  13  14
HETATM   14  C   UNK N   1       1.440  -4.436  -0.101  0.00  0.00     0.189 C 
HETATM   15  C   UNK N   1       2.751  -4.930   0.578  0.00  0.00     0.173 C 
HETATM   16  C   UNK N   1       2.763  -6.456   0.761  0.00  0.00     0.205 C 
HETATM   17  O   UNK N   1       2.183  -7.117  -0.336  0.00  0.00    -0.356 OA
HETATM   18  C   UNK N   1       0.794  -6.815  -0.454  0.00  0.00     0.288 C 
HETATM   19  C   UNK N   1       0.338  -5.468   0.186  0.00  0.00     0.204 C 
HETATM   20  O   UNK N   1       0.165  -5.607   1.569  0.00  0.00    -0.388 OA
HETATM   21  H   UNK N   1       0.022  -5.551   2.527  0.00  0.00     0.210 HD
BRANCH  15  22
HETATM   22  O   UNK N   1       3.867  -4.538  -0.164  0.00  0.00    -0.391 OA
HETATM   23  H   UNK N   1       4.490  -5.073  -0.679  0.00  0.00     0.210 HD
ENDBRANCH  15  22
BRANCH  18  24
HETATM   24  O   UNK N   1       0.023  -7.878   0.022  0.00  0.00    -0.369 OA
HETATM   25  H   UNK N   1      -0.884  -7.784   0.353  0.00  0.00     0.212 HD
ENDBRANCH  18  24
ENDBRANCH  13  14
ENDBRANCH   4  13
TORSDOF 7
