REMARK  17 active torsions:
REMARK  status: ('A' for Active; 'I' for Inactive)
REMARK    1  A    between atoms: C_6  and  C_5 
REMARK    2  A    between atoms: C_12  and  C_5 
REMARK    3  A    between atoms: C_14  and  C_6 
REMARK    4  A    between atoms: C_15  and  C_7 
REMARK    5  A    between atoms: N_20  and  C_7 
REMARK    6  A    between atoms: C_10  and  C_8 
REMARK    7  A    between atoms: S_30  and  C_8 
REMARK    8  A    between atoms: C_13  and  C_9 
REMARK    9  A    between atoms: S_30  and  C_9 
REMARK   10  A    between atoms: C_17  and  C_12 
REMARK   11  A    between atoms: C_12  and  N_19 
REMARK   12  A    between atoms: C_16  and  C_13 
REMARK   13  A    between atoms: C_13  and  N_22 
REMARK   14  A    between atoms: C_14  and  O_24 
REMARK   15  A    between atoms: O_26  and  C_15 
REMARK   16  A    between atoms: O_27  and  C_16 
REMARK   17  A    between atoms: O_29  and  C_17 
ROOT
HETATM    1  C   UNK N   1       0.439   6.429  -0.519  0.00  0.00     0.167 C 
ENDROOT
BRANCH   1   2
HETATM    2  C   UNK N   1       0.072   7.685   0.284  0.00  0.00     0.107 C 
BRANCH   2   3
HETATM    3  S   UNK N   1      -1.527   7.563   1.165  0.00  0.00    -0.162 SA
BRANCH   3   4
HETATM    4  C   UNK N   1      -2.521   7.394  -0.356  0.00  0.00     0.113 C 
BRANCH   4   5
HETATM    5  C   UNK N   1      -3.761   6.612  -0.075  0.00  0.00    -0.032 A 
HETATM    6  C   UNK N   1      -4.778   7.217   0.673  0.00  0.00     0.009 A 
HETATM    7  C   UNK N   1      -5.956   6.524   0.956  0.00  0.00     0.001 A 
HETATM    8  C   UNK N   1      -6.125   5.218   0.494  0.00  0.00     0.001 A 
HETATM    9  C   UNK N   1      -5.119   4.606  -0.254  0.00  0.00     0.019 A 
HETATM   10  C   UNK N   1      -3.937   5.292  -0.547  0.00  0.00     0.013 A 
HETATM   11  I   UNK N   1      -2.487   4.264  -1.692  0.00  0.00    -0.044 I 
ENDBRANCH   4   5
ENDBRANCH   3   4
ENDBRANCH   2   3
ENDBRANCH   1   2
BRANCH   1  12
HETATM   12  C   UNK N   1       0.672   5.188   0.321  0.00  0.00     0.136 C 
HETATM   13  N   UNK N   1       1.729   4.473   0.155  0.00  0.00    -0.363 N 
ATOM     14  HN  UNK N   1       2.446   4.789  -0.499  1.00  0.00     0.161 HD
BRANCH  13  15
HETATM   15  C   UNK N   1       1.927   3.234   0.871  0.00  0.00     0.231 C 
BRANCH  15  16
HETATM   16  C   UNK N   1       3.094   2.467   0.328  0.00  0.00     0.158 C 
HETATM   17  O   UNK N   1       3.817   2.950  -0.530  0.00  0.00    -0.649 OA
BRANCH  16  18
HETATM   18  O   UNK N   1       3.337   1.223   0.780  0.00  0.00    -0.775 OA
HETATM   19  H   UNK N   1       2.671   0.643   1.094  0.00  0.00     0.167 HD
ENDBRANCH  16  18
ENDBRANCH  15  16
ENDBRANCH  13  15
BRANCH  12  20
HETATM   20  O   UNK N   1      -0.287   4.785   1.185  0.00  0.00    -0.348 OA
HETATM   21  H   UNK N   1      -0.861   5.221   1.784  0.00  0.00     0.219 HD
ENDBRANCH  12  20
ENDBRANCH   1  12
BRANCH   1  22
HETATM   22  N   UNK N   1       1.532   6.713  -1.437  0.00  0.00    -0.362 N 
HETATM   23  C   UNK N   1       2.704   7.155  -1.124  0.00  0.00     0.111 C 
ATOM     24  HN  UNK N   1       1.353   6.547  -2.427  1.00  0.00     0.162 HD
BRANCH  23  25
HETATM   25  C   UNK N   1       3.093   7.471   0.298  0.00  0.00     0.086 C 
BRANCH  25  26
HETATM   26  C   UNK N   1       4.247   6.621   0.836  0.00  0.00     0.043 C 
BRANCH  26  27
HETATM   27  C   UNK N   1       5.550   6.733   0.040  0.00  0.00     0.173 C 
BRANCH  27  28
HETATM   28  C   UNK N   1       6.643   5.985   0.750  0.00  0.00     0.163 C 
HETATM   29  O   UNK N   1       7.665   6.556   1.099  0.00  0.00    -0.648 OA
BRANCH  28  30
HETATM   30  O   UNK N   1       6.503   4.668   0.992  0.00  0.00    -0.775 OA
HETATM   31  H   UNK N   1       5.660   4.294   1.160  0.00  0.00     0.167 HD
ENDBRANCH  28  30
ENDBRANCH  27  28
BRANCH  27  32
HETATM   32  N   UNK N   1       5.915   8.134  -0.131  0.00  0.00    -0.418 N 
HETATM   33  H   UNK N   1       6.892   8.403  -0.251  0.00  0.00     0.150 HD
HETATM   34  H   UNK N   1       5.189   8.850  -0.131  0.00  0.00     0.150 HD
ENDBRANCH  27  32
ENDBRANCH  26  27
ENDBRANCH  25  26
ENDBRANCH  23  25
BRANCH  23  35
HETATM   35  O   UNK N   1       3.585   7.397  -2.113  0.00  0.00    -0.350 OA
HETATM   36  H   UNK N   1       4.038   6.950  -2.801  0.00  0.00     0.219 HD
ENDBRANCH  23  35
ENDBRANCH   1  22
TORSDOF 17
