REMARK  19 active torsions:
REMARK  status: ('A' for Active; 'I' for Inactive)
REMARK    1  A    between atoms: C_7  and  C_4 
REMARK    2  A    between atoms: O_30  and  C_4 
REMARK    3  A    between atoms: C_8  and  C_5 
REMARK    4  A    between atoms: O_31  and  C_5 
REMARK    5  A    between atoms: C_14  and  C_6 
REMARK    6  A    between atoms: O_20  and  C_6 
REMARK    7  A    between atoms: C_14  and  C_8 
REMARK    8  A    between atoms: C_8  and  O_21 
REMARK    9  A    between atoms: C_10  and  O_22 
REMARK   10  A    between atoms: C_11  and  O_23 
REMARK   11  A    between atoms: C_12  and  N_19 
REMARK   12  A    between atoms: O_24  and  C_13 
REMARK   13  A    between atoms: C_14  and  O_25 
REMARK   14  A    between atoms: P_34  and  O_26 
REMARK   15  A    between atoms: P_35  and  O_28 
REMARK   16  A    between atoms: P_34  and  O_30 
REMARK   17  A    between atoms: P_35  and  O_31 
REMARK   18  A    between atoms: P_34  and  O_33 
REMARK   19  A    between atoms: P_35  and  O_33 
ROOT
HETATM    1  C   UNK N   1       4.525  -0.167   0.075  0.00  0.00     0.215 C 
ENDROOT
BRANCH   1   2
HETATM    2  C   UNK N   1       3.093  -0.573  -0.195  0.00  0.00     0.180 C 
HETATM    3  C   UNK N   1       2.097   0.522   0.120  0.00  0.00     0.182 C 
HETATM    4  C   UNK N   1       0.855  -0.311   0.051  0.00  0.00     0.198 C 
HETATM    5  C   UNK N   1       1.326  -1.539   0.850  0.00  0.00     0.262 C 
HETATM    6  O   UNK N   1       2.733  -1.649   0.640  0.00  0.00    -0.353 OA
BRANCH   3   7
HETATM    7  O   UNK N   1       2.104   1.565  -0.809  0.00  0.00    -0.390 OA
HETATM    8  H   UNK N   1       2.734   1.923  -1.454  0.00  0.00     0.210 HD
ENDBRANCH   3   7
BRANCH   4   9
HETATM    9  O   UNK N   1      -0.239   0.345   0.622  0.00  0.00    -0.388 OA
HETATM   10  H   UNK N   1      -0.224   1.230   1.019  0.00  0.00     0.210 HD
ENDBRANCH   4   9
BRANCH   5  11
HETATM   11  N   UNK N   1       0.653  -2.802   0.462  0.00  0.00    -0.293 N 
HETATM   12  C   UNK N   1       1.431  -3.860   0.083  0.00  0.00     0.101 A 
HETATM   13  C   UNK N   1       0.867  -5.083  -0.256  0.00  0.00     0.065 A 
HETATM   14  C   UNK N   1      -0.512  -5.208  -0.211  0.00  0.00     0.102 A 
HETATM   15  N   UNK N   1      -1.064  -6.320  -0.514  0.00  0.00    -0.385 N 
HETATM   16  N   UNK N   1      -1.274  -4.148   0.160  0.00  0.00    -0.308 N 
HETATM   17  H   UNK N   1      -2.018  -6.380  -0.748  0.00  0.00     0.157 HD
ATOM     18  HN  UNK N   1      -0.499  -7.169  -0.514  1.00  0.00     0.157 HD
HETATM   19  C   UNK N   1      -0.712  -2.956   0.500  0.00  0.00     0.227 A 
ATOM     20  HN  UNK N   1      -2.289  -4.247   0.184  1.00  0.00     0.171 HD
BRANCH  19  21
HETATM   21  O   UNK N   1      -1.511  -1.943   0.870  0.00  0.00    -0.332 OA
HETATM   22  H   UNK N   1      -1.178  -1.106   1.128  0.00  0.00     0.221 HD
ENDBRANCH  19  21
ENDBRANCH   5  11
ENDBRANCH   1   2
BRANCH   1  23
HETATM   23  O   UNK N   1       4.969   0.749  -0.879  0.00  0.00    -0.294 OA
BRANCH  23  24
HETATM   24  P   UNK N   1       6.635   0.324  -1.132  0.00  0.00     0.401 P 
HETATM   25  O   UNK N   1       7.173   1.210  -2.286  0.00  0.00    -0.631 OA
BRANCH  24  26
HETATM   26  O   UNK N   1       6.783  -1.319  -1.678  0.00  0.00    -0.307 OA
HETATM   27  H   UNK N   1       6.030  -1.849  -1.983  0.00  0.00     0.222 HD
ENDBRANCH  24  26
BRANCH  24  28
HETATM   28  O   UNK N   1       7.648   0.610   0.260  0.00  0.00    -0.195 OA
BRANCH  28  29
HETATM   29  P   UNK N   1       6.982   1.959   1.150  0.00  0.00     0.401 P 
HETATM   30  O   UNK N   1       5.847   1.403   2.050  0.00  0.00    -0.631 OA
BRANCH  29  31
HETATM   31  O   UNK N   1       8.155   2.583   2.265  0.00  0.00    -0.307 OA
HETATM   32  H   UNK N   1       8.785   2.189   2.889  0.00  0.00     0.222 HD
ENDBRANCH  29  31
BRANCH  29  33
HETATM   33  O   UNK N   1       6.273   3.220   0.168  0.00  0.00    -0.294 OA
BRANCH  33  34
HETATM   34  C   UNK N   1       7.326   3.804  -0.544  0.00  0.00     0.215 C 
BRANCH  34  35
HETATM   35  C   UNK N   1       7.841   5.052   0.176  0.00  0.00     0.178 C 
BRANCH  35  36
HETATM   36  C   UNK N   1       9.081   5.636  -0.522  0.00  0.00     0.103 C 
HETATM   37  C   UNK N   1       8.724   6.194  -1.895  0.00  0.00     0.051 C 
BRANCH  36  38
HETATM   38  C   UNK N   1       9.666   6.747   0.348  0.00  0.00     0.204 C 
BRANCH  38  39
HETATM   39  O   UNK N   1      10.888   7.191  -0.162  0.00  0.00    -0.398 OA
HETATM   40  H   UNK N   1      11.580   6.611  -0.516  0.00  0.00     0.209 HD
ENDBRANCH  38  39
ENDBRANCH  36  38
BRANCH  36  41
HETATM   41  O   UNK N   1      10.042   4.631  -0.677  0.00  0.00    -0.385 OA
HETATM   42  H   UNK N   1       9.772   3.706  -0.784  0.00  0.00     0.210 HD
ENDBRANCH  36  41
ENDBRANCH  35  36
BRANCH  35  43
HETATM   43  O   UNK N   1       6.822   6.006   0.263  0.00  0.00    -0.390 OA
HETATM   44  H   UNK N   1       7.041   6.949   0.324  0.00  0.00     0.210 HD
ENDBRANCH  35  43
ENDBRANCH  34  35
ENDBRANCH  33  34
ENDBRANCH  29  33
ENDBRANCH  28  29
ENDBRANCH  24  28
ENDBRANCH  23  24
ENDBRANCH   1  23
TORSDOF 19
