REMARK  13 active torsions:
REMARK  status: ('A' for Active; 'I' for Inactive)
REMARK    1  A    between atoms: C_6  and  C_5 
REMARK    2  A    between atoms: C_7  and  C_6 
REMARK    3  A    between atoms: C_8  and  C_7 
REMARK    4  A    between atoms: C_9  and  C_8 
REMARK    5  A    between atoms: C_10  and  C_9 
REMARK    6  A    between atoms: C_15  and  C_10 
REMARK    7  A    between atoms: C_13  and  C_11 
REMARK    8  A    between atoms: C_14  and  C_11 
REMARK    9  A    between atoms: C_13  and  C_12 
REMARK   10  A    between atoms: N_16  and  C_12 
REMARK   11  A    between atoms: C_13  and  O_20 
REMARK   12  A    between atoms: O_18  and  C_14 
REMARK   13  A    between atoms: O_20  and  C_15 
ROOT
HETATM    1  C   UNK N   1       9.359   2.810  -0.255  0.00  0.00     0.167 C 
ENDROOT
BRANCH   1   2
HETATM    2  C   UNK N   1      10.006   3.698   0.809  0.00  0.00     0.144 C 
BRANCH   2   3
HETATM    3  C   UNK N   1      11.052   4.608   0.231  0.00  0.00     0.141 C 
HETATM    4  O   UNK N   1      10.891   5.816   0.268  0.00  0.00    -0.650 OA
BRANCH   3   5
HETATM    5  O   UNK N   1      12.170   4.100  -0.322  0.00  0.00    -0.776 OA
HETATM    6  H   UNK N   1      12.253   3.249  -0.706  0.00  0.00     0.167 HD
ENDBRANCH   3   5
ENDBRANCH   2   3
ENDBRANCH   1   2
BRANCH   1   7
HETATM    7  C   UNK N   1      10.345   1.798  -0.889  0.00  0.00     0.268 C 
BRANCH   7   8
HETATM    8  N   UNK N   1      10.825   0.696  -0.035  0.00  0.00    -0.076 N 
HETATM    9  C   UNK N   1      11.709  -0.123  -0.842  0.00  0.00     0.271 C 
HETATM   10  C   UNK N   1       9.750  -0.169   0.427  0.00  0.00     0.271 C 
HETATM   11  C   UNK N   1      11.589   1.173   1.106  0.00  0.00     0.271 C 
ENDBRANCH   7   8
ENDBRANCH   1   7
BRANCH   1  12
HETATM   12  O   UNK N   1       8.294   2.114   0.285  0.00  0.00    -0.314 OA
BRANCH  12  13
HETATM   13  C   UNK N   1       7.005   2.231  -0.117  0.00  0.00     0.259 C 
HETATM   14  O   UNK N   1       6.618   3.225  -0.718  0.00  0.00    -0.265 OA
BRANCH  13  15
HETATM   15  C   UNK N   1       6.076   1.086   0.108  0.00  0.00     0.111 C 
BRANCH  15  16
HETATM   16  C   UNK N   1       4.907   1.492   0.974  0.00  0.00     0.010 C 
BRANCH  16  17
HETATM   17  C   UNK N   1       3.622   1.046   0.313  0.00  0.00     0.000 C 
BRANCH  17  18
HETATM   18  C   UNK N   1       2.785   2.271   0.021  0.00  0.00     0.000 C 
BRANCH  18  19
HETATM   19  C   UNK N   1       1.338   1.868  -0.146  0.00  0.00    -0.000 C 
BRANCH  19  20
HETATM   20  C   UNK N   1       0.476   3.110  -0.099  0.00  0.00    -0.005 C 
HETATM   21  C   UNK N   1      -0.982   2.709  -0.044  0.00  0.00     0.005 C 
ENDBRANCH  19  20
ENDBRANCH  18  19
ENDBRANCH  17  18
ENDBRANCH  16  17
ENDBRANCH  15  16
ENDBRANCH  13  15
ENDBRANCH  12  13
ENDBRANCH   1  12
TORSDOF 13
