REMARK  5 active torsions:
REMARK  status: ('A' for Active; 'I' for Inactive)
REMARK    1  A    between atoms: C_10  and  C_6 
REMARK    2  A    between atoms: C_6  and  O_20 
REMARK    3  A    between atoms: C_8  and  O_21 
REMARK    4  A    between atoms: C_9  and  O_22 
REMARK    5  A    between atoms: C_12  and  N_19 
ROOT
HETATM    1  C   UNK N   1       0.964  -1.971  -0.488  0.00  0.00     0.182 C 
HETATM    2  C   UNK N   1       1.928  -0.967   0.090  0.00  0.00     0.198 C 
HETATM    3  C   UNK N   1      -0.287  -1.716   0.331  0.00  0.00     0.183 C 
HETATM    4  C   UNK N   1       0.977   0.086   0.695  0.00  0.00     0.262 C 
HETATM    5  O   UNK N   1      -0.358  -0.310   0.419  0.00  0.00    -0.353 OA
ENDROOT
BRANCH   4   6
HETATM    6  N   UNK N   1       1.247   1.456   0.245  0.00  0.00    -0.297 N 
HETATM    7  C   UNK N   1       0.327   2.397  -0.097  0.00  0.00     0.188 A 
HETATM    8  N   UNK N   1       0.919   3.595  -0.370  0.00  0.00    -0.347 N 
HETATM    9  C   UNK N   1       2.234   3.367  -0.192  0.00  0.00     0.100 A 
ATOM     10  HN  UNK N   1       0.467   4.467  -0.646  1.00  0.00     0.167 HD
HETATM   11  C   UNK N   1       3.315   4.225  -0.327  0.00  0.00     0.037 A 
HETATM   12  C   UNK N   1       2.428   2.086   0.178  0.00  0.00     0.140 A 
HETATM   13  C   UNK N   1       3.138   5.654  -0.704  0.00  0.00     0.070 C 
HETATM   14  N   UNK N   1       4.564   3.718  -0.096  0.00  0.00    -0.354 N 
HETATM   15  C   UNK N   1       4.739   2.405   0.270  0.00  0.00     0.182 A 
ATOM     16  HN  UNK N   1       5.378   4.324  -0.196  1.00  0.00     0.166 HD
HETATM   17  N   UNK N   1       3.660   1.577   0.421  0.00  0.00    -0.336 N 
ATOM     18  HN  UNK N   1       3.780   0.605   0.708  1.00  0.00     0.168 HD
ENDBRANCH   4   6
BRANCH   2  19
HETATM   19  O   UNK N   1       2.688  -1.536   1.119  0.00  0.00    -0.388 OA
HETATM   20  H   UNK N   1       2.610  -2.189   1.832  0.00  0.00     0.210 HD
ENDBRANCH   2  19
BRANCH   1  21
HETATM   21  O   UNK N   1       1.429  -3.289  -0.420  0.00  0.00    -0.390 OA
HETATM   22  H   UNK N   1       0.798  -4.024  -0.372  0.00  0.00     0.210 HD
ENDBRANCH   1  21
BRANCH   3  23
HETATM   23  C   UNK N   1      -1.550  -2.300  -0.328  0.00  0.00     0.145 C 
HETATM   24  C   UNK N   1      -1.504  -3.820  -0.352  0.00  0.00     0.042 C 
BRANCH  23  25
HETATM   25  O   UNK N   1      -2.681  -1.902   0.386  0.00  0.00    -0.393 OA
HETATM   26  H   UNK N   1      -2.834  -1.083   0.882  0.00  0.00     0.210 HD
ENDBRANCH  23  25
ENDBRANCH   3  23
TORSDOF 5
