REMARK  6 active torsions:
REMARK  status: ('A' for Active; 'I' for Inactive)
REMARK    1  A    between atoms: O_1  and  C_2 
REMARK    2  A    between atoms: C_3  and  C_2 
REMARK    3  A    between atoms: C_5  and  S_6 
REMARK    4  A    between atoms: C_7  and  O_8 
REMARK    5  A    between atoms: C_9  and  O_10 
REMARK    6  A    between atoms: C_11  and  O_12 
ROOT
HETATM    1  C   UNK N   1       2.073   0.972  -0.000  0.00  0.00     0.178 A 
HETATM    2  O   UNK N   1       2.032  -0.417   0.000  0.00  0.00    -0.363 OA
HETATM    3  C   UNK N   1       0.782  -1.047  -0.000  0.00  0.00     0.212 A 
HETATM    4  C   UNK N   1      -0.546  -0.273   0.000  0.00  0.00     0.188 A 
HETATM    5  C   UNK N   1      -0.524   1.223  -0.000  0.00  0.00     0.181 A 
HETATM    6  C   UNK N   1       0.810   1.870   0.000  0.00  0.00     0.180 A 
ENDROOT
BRANCH   1   7
HETATM    7  C   UNK N   1       3.498   1.434   0.000  0.00  0.00     0.198 C 
BRANCH   7   8
HETATM    8  O   UNK N   1       3.574   2.810  -0.000  0.00  0.00    -0.398 OA
HETATM    9  H   UNK N   1       4.439   3.248  -0.000  0.00  0.00     0.209 HD
ENDBRANCH   7   8
ENDBRANCH   1   7
BRANCH   6  10
HETATM   10  O   UNK N   1       0.883   3.270  -0.000  0.00  0.00    -0.390 OA
HETATM   11  H   UNK N   1       1.747   3.711  -0.000  0.00  0.00     0.210 HD
ENDBRANCH   6  10
BRANCH   3  12
HETATM   12  S   UNK N   1       0.983  -2.840   0.000  0.00  0.00    -0.148 SA
HETATM   13  H   UNK N   1      -0.112  -3.646   0.000  0.00  0.00     0.104 HD
ENDBRANCH   3  12
BRANCH   5  14
HETATM   14  O   UNK N   1      -1.694   1.987   0.000  0.00  0.00    -0.390 OA
HETATM   15  H   UNK N   1      -1.640   2.956   0.000  0.00  0.00     0.210 HD
ENDBRANCH   5  14
BRANCH   4  16
HETATM   16  O   UNK N   1      -1.776  -0.942  -0.000  0.00  0.00    -0.389 OA
HETATM   17  H   UNK N   1      -2.604  -0.436  -0.000  0.00  0.00     0.210 HD
ENDBRANCH   4  16
TORSDOF 6
