REMARK  2 active torsions:
REMARK  status: ('A' for Active; 'I' for Inactive)
REMARK    1  A    between atoms: C_2  and  C_3 
REMARK    2  A    between atoms: C_3  and  O_4 
ROOT
HETATM    1  C   UNK N   1       1.050  -0.002   0.000  0.00  0.00     0.139 C 
HETATM    2  O   UNK N   1      -0.168  -0.099  -0.000  0.00  0.00    -0.650 OA
ENDROOT
BRANCH   1   3
HETATM    3  C   UNK N   1       1.720   1.340  -0.000  0.00  0.00     0.105 C 
HETATM    4  C   UNK N   1       0.722   2.486   0.000  0.00  0.00     0.016 C 
ENDBRANCH   1   3
BRANCH   1   5
HETATM    5  O   UNK N   1       1.806  -1.114  -0.000  0.00  0.00    -0.776 OA
HETATM    6  H   UNK N   1       1.398  -1.958  -0.000  0.00  0.00     0.167 HD
ENDBRANCH   1   5
TORSDOF 2
