REMARK  18 active torsions:
REMARK  status: ('A' for Active; 'I' for Inactive)
REMARK    1  A    between atoms: C_2  and  C_1 
REMARK    2  A    between atoms: C_3  and  C_1 
REMARK    3  A    between atoms: N_18  and  C_2 
REMARK    4  A    between atoms: O_30  and  C_3 
REMARK    5  A    between atoms: C_6  and  C_4 
REMARK    6  A    between atoms: N_19  and  C_4 
REMARK    7  A    between atoms: C_7  and  C_5 
REMARK    8  A    between atoms: O_20  and  C_5 
REMARK    9  A    between atoms: C_9  and  C_6 
REMARK   10  A    between atoms: C_6  and  O_21 
REMARK   11  A    between atoms: C_9  and  C_7 
REMARK   12  A    between atoms: C_7  and  O_22 
REMARK   13  A    between atoms: C_9  and  O_23 
REMARK   14  A    between atoms: O_24  and  C_11 
REMARK   15  A    between atoms: O_25  and  C_12 
REMARK   16  A    between atoms: P_31  and  O_27 
REMARK   17  A    between atoms: P_31  and  O_28 
REMARK   18  A    between atoms: P_31  and  O_30 
ROOT
HETATM    1  C   UNK N   1      -1.237   0.122   0.427  0.00  0.00     0.135 A 
HETATM    2  C   UNK N   1       0.002   0.050  -0.131  0.00  0.00     0.146 A 
HETATM    3  C   UNK N   1      -1.778   1.364   0.737  0.00  0.00     0.174 A 
HETATM    4  C   UNK N   1       0.215   2.374  -0.111  0.00  0.00     0.224 A 
HETATM    5  C   UNK N   1      -0.729  -1.946   0.130  0.00  0.00     0.331 A 
HETATM    6  N   UNK N   1       0.745   1.148  -0.404  0.00  0.00    -0.306 N 
ATOM      7  HN  UNK N   1       1.674   1.063  -0.817  1.00  0.00     0.171 HD
HETATM    8  N   UNK N   1      -1.033   2.475   0.456  0.00  0.00    -0.301 N 
ATOM      9  HN  UNK N   1      -1.411   3.398   0.670  1.00  0.00     0.171 HD
HETATM   10  N   UNK N   1      -1.719  -1.128   0.598  0.00  0.00    -0.292 N 
HETATM   11  N   UNK N   1       0.347  -1.233  -0.314  0.00  0.00    -0.281 N 
HETATM   12  O   UNK N   1      -0.792  -3.163   0.132  0.00  0.00    -0.246 OA
ENDROOT
BRANCH  11  13
HETATM   13  C   UNK N   1       1.622  -1.734  -0.807  0.00  0.00     0.170 C 
BRANCH  13  14
HETATM   14  C   UNK N   1       2.360  -2.440   0.332  0.00  0.00     0.168 C 
BRANCH  14  15
HETATM   15  C   UNK N   1       3.736  -2.976  -0.091  0.00  0.00     0.179 C 
BRANCH  15  16
HETATM   16  C   UNK N   1       4.758  -1.866  -0.415  0.00  0.00     0.173 C 
BRANCH  16  17
HETATM   17  C   UNK N   1       6.093  -2.490  -0.803  0.00  0.00     0.198 C 
BRANCH  17  18
HETATM   18  O   UNK N   1       7.046  -1.497  -1.028  0.00  0.00    -0.398 OA
HETATM   19  H   UNK N   1       7.976  -1.725  -1.183  0.00  0.00     0.209 HD
ENDBRANCH  17  18
ENDBRANCH  16  17
BRANCH  16  20
HETATM   20  O   UNK N   1       4.307  -1.067  -1.468  0.00  0.00    -0.391 OA
HETATM   21  H   UNK N   1       4.631  -0.519  -2.200  0.00  0.00     0.210 HD
ENDBRANCH  16  20
ENDBRANCH  15  16
BRANCH  15  22
HETATM   22  O   UNK N   1       4.237  -3.759   0.954  0.00  0.00    -0.390 OA
HETATM   23  H   UNK N   1       3.940  -4.332   1.678  0.00  0.00     0.210 HD
ENDBRANCH  15  22
ENDBRANCH  14  15
BRANCH  14  24
HETATM   24  O   UNK N   1       2.494  -1.571   1.420  0.00  0.00    -0.391 OA
HETATM   25  H   UNK N   1       3.063  -1.351   2.175  0.00  0.00     0.210 HD
ENDBRANCH  14  24
ENDBRANCH  13  14
ENDBRANCH  11  13
BRANCH  10  26
HETATM   26  C   UNK N   1      -2.988  -1.539   1.186  0.00  0.00     0.136 C 
BRANCH  26  27
HETATM   27  C   UNK N   1      -3.852  -2.277   0.166  0.00  0.00     0.047 C 
BRANCH  27  28
HETATM   28  C   UNK N   1      -4.274  -1.354  -0.973  0.00  0.00     0.182 C 
BRANCH  28  29
HETATM   29  O   UNK N   1      -4.667  -0.112  -0.456  0.00  0.00    -0.297 OA
BRANCH  29  30
HETATM   30  P   UNK N   1      -6.396  -0.019  -0.613  0.00  0.00     0.390 P 
HETATM   31  O   UNK N   1      -6.301  -0.637   0.810  0.00  0.00    -0.632 OA
BRANCH  30  32
HETATM   32  O   UNK N   1      -7.322   1.105   0.330  0.00  0.00    -0.307 OA
HETATM   33  H   UNK N   1      -7.037   1.867   0.857  0.00  0.00     0.222 HD
ENDBRANCH  30  32
BRANCH  30  34
HETATM   34  O   UNK N   1      -5.663   1.554  -0.568  0.00  0.00    -0.307 OA
HETATM   35  H   UNK N   1      -4.697   1.639  -0.543  0.00  0.00     0.222 HD
ENDBRANCH  30  34
ENDBRANCH  29  30
ENDBRANCH  28  29
ENDBRANCH  27  28
ENDBRANCH  26  27
ENDBRANCH  10  26
BRANCH   3  36
HETATM   36  O   UNK N   1      -2.988   1.482   1.307  0.00  0.00    -0.344 OA
HETATM   37  H   UNK N   1      -3.339   2.254   1.705  0.00  0.00     0.219 HD
ENDBRANCH   3  36
BRANCH   4  38
HETATM   38  O   UNK N   1       0.922   3.485  -0.373  0.00  0.00    -0.332 OA
HETATM   39  H   UNK N   1       1.840   3.446  -0.556  0.00  0.00     0.221 HD
ENDBRANCH   4  38
TORSDOF 18
