REMARK  3 active torsions:
REMARK  status: ('A' for Active; 'I' for Inactive)
REMARK    1  A    between atoms: S_2  and  C_5 
REMARK    2  A    between atoms: C_5  and  C_6 
REMARK    3  A    between atoms: C_6  and  N_7 
ROOT
HETATM    1  N   UNK N   1       0.009   0.732   0.282  0.00  0.00    -0.066 N 
HETATM    2  C   UNK N   1       1.378   0.948  -0.196  0.00  0.00     0.261 A 
HETATM    3  C   UNK N   1       2.254  -0.219   0.261  0.00  0.00     0.195 C 
HETATM    4  O   UNK N   1       1.774  -1.411  -0.311  0.00  0.00    -0.388 OA
HETATM    5  C   UNK N   1       0.507  -1.655   0.254  0.00  0.00     0.195 C 
HETATM    6  C   UNK N   1      -0.471  -0.565  -0.197  0.00  0.00     0.261 A 
HETATM    7  H   UNK N   1       0.543   0.081  -0.294  0.00  0.00     0.280 HD
ENDROOT
BRANCH   1   8
HETATM    8  C   UNK N   1      -0.841   1.767  -0.286  0.00  0.00     0.252 C 
BRANCH   8   9
HETATM    9  C   UNK N   1      -0.671   3.063   0.496  0.00  0.00     0.193 C 
BRANCH   9  10
HETATM   10  S   UNK N   1      -0.231   4.411  -0.639  0.00  0.00     0.103 S 
HETATM   11  O   UNK N   1       0.035   6.078  -0.324  0.00  0.00    -0.595 OA
HETATM   12  O   UNK N   1      -1.423   4.805   0.247  0.00  0.00    -0.595 OA
HETATM   13  O   UNK N   1       0.888   4.334   0.413  0.00  0.00    -0.595 OA
ENDBRANCH   9  10
ENDBRANCH   8   9
ENDBRANCH   1   8
TORSDOF 3
