REMARK  6 active torsions:
REMARK  status: ('A' for Active; 'I' for Inactive)
REMARK    1  A    between atoms: C_5  and  C_4 
REMARK    2  A    between atoms: C_6  and  C_4 
REMARK    3  A    between atoms: C_7  and  C_5 
REMARK    4  A    between atoms: Si_12  and  C_5 
REMARK    5  A    between atoms: O_9  and  C_6 
REMARK    6  A    between atoms: O_11  and  C_7 
ROOT
HETATM    1  C   UNK N   1       0.903   0.028   0.261  0.00  0.00     0.108 C 
ENDROOT
BRANCH   1   2
HETATM    2  C   UNK N   1       1.835   0.834  -0.625  0.00  0.00     0.126 C 
BRANCH   2   3
HETATM    3  C   UNK N   1       3.176   0.937   0.024  0.00  0.00     0.140 C 
HETATM    4  O   UNK N   1       3.582   2.022   0.402  0.00  0.00    -0.650 OA
BRANCH   3   5
HETATM    5  O   UNK N   1       3.931  -0.163   0.204  0.00  0.00    -0.776 OA
HETATM    6  H   UNK N   1       3.530  -1.001   0.330  0.00  0.00     0.167 HD
ENDBRANCH   3   5
ENDBRANCH   2   3
ENDBRANCH   1   2
BRANCH   1   7
HETATM    7  C   UNK N   1       0.765  -1.385  -0.222  0.00  0.00     0.145 C 
HETATM    8  O   UNK N   1       1.240  -2.294   0.435  0.00  0.00    -0.650 OA
BRANCH   7   9
HETATM    9  O   UNK N   1       0.121  -1.658  -1.375  0.00  0.00    -0.776 OA
HETATM   10  H   UNK N   1      -0.267  -1.365  -2.175  0.00  0.00     0.167 HD
ENDBRANCH   7   9
ENDBRANCH   1   7
BRANCH   1  11
HETATM   11 Si   UNK N   1      -0.746   0.912   0.398  0.00  0.00     0.000 Si
HETATM   12  C   UNK N   1      -1.495   1.165  -1.296  0.00  0.00     0.000 C 
HETATM   13  C   UNK N   1      -1.924  -0.072   1.459  0.00  0.00     0.000 C 
HETATM   14  C   UNK N   1      -0.461   2.583   1.183  0.00  0.00     0.000 C 
ENDBRANCH   1  11
TORSDOF 6
