REMARK  0 active torsions:
REMARK  status: ('A' for Active; 'I' for Inactive)
ROOT
HETATM    1  C   UNK N   1      12.829 -12.218   0.000  0.00  0.00     0.180 A 
HETATM    2  N   UNK N   1      12.712 -13.559   0.000  0.00  0.00    -0.361 N 
ATOM      3  HN  UNK N   1      11.848 -14.101   0.000  1.00  0.00     0.166 HD
HETATM    4  C   UNK N   1      13.969 -14.036   0.000  0.00  0.00     0.105 A 
HETATM    5  C   UNK N   1      14.840 -12.969   0.000  0.00  0.00     0.105 A 
HETATM    6  N   UNK N   1      14.120 -11.834   0.000  0.00  0.00    -0.361 N 
HETATM    7  H   UNK N   1      14.464 -10.911   0.000  0.00  0.00     0.166 HD
ENDROOT
TORSDOF 0
