REMARK  14 active torsions:
REMARK  status: ('A' for Active; 'I' for Inactive)
REMARK    1  A    between atoms: C_2  and  C_1 
REMARK    2  A    between atoms: C_3  and  C_1 
REMARK    3  A    between atoms: C_11  and  C_2 
REMARK    4  A    between atoms: N_21  and  C_3 
REMARK    5  A    between atoms: N_30  and  C_8 
REMARK    6  A    between atoms: C_18  and  C_9 
REMARK    7  A    between atoms: O_31  and  C_10 
REMARK    8  A    between atoms: O_32  and  C_13 
REMARK    9  A    between atoms: C_14  and  O_33 
REMARK   10  A    between atoms: C_15  and  O_34 
REMARK   11  A    between atoms: N_20  and  C_16 
REMARK   12  A    between atoms: N_21  and  C_18 
REMARK   13  A    between atoms: O_35  and  C_18 
REMARK   14  A    between atoms: C_19  and  N_29 
ROOT
HETATM    1  C   UNK N   1       0.057  -0.951   0.483  0.00  0.00     0.178 C 
HETATM    2  C   UNK N   1       1.264  -1.737  -0.073  0.00  0.00     0.183 C 
HETATM    3  C   UNK N   1       2.341  -0.658  -0.203  0.00  0.00     0.199 C 
HETATM    4  C   UNK N   1       1.664   0.537   0.476  0.00  0.00     0.262 C 
HETATM    5  O   UNK N   1       0.294   0.392   0.276  0.00  0.00    -0.352 OA
ENDROOT
BRANCH   1   6
HETATM    6  C   UNK N   1      -1.223  -1.244  -0.200  0.00  0.00     0.005 C 
BRANCH   6   7
HETATM    7  C   UNK N   1      -2.166  -1.943   0.398  0.00  0.00    -0.009 C 
BRANCH   7   8
HETATM    8  C   UNK N   1      -3.307  -2.394  -0.410  0.00  0.00     0.148 C 
BRANCH   8   9
HETATM    9  N   UNK N   1      -2.884  -3.718  -0.690  0.00  0.00    -0.367 N 
ATOM     10  HN  UNK N   1      -2.066  -3.857  -1.284  1.00  0.00     0.161 HD
BRANCH   9  11
HETATM   11  C   UNK N   1      -3.486  -4.737  -0.229  0.00  0.00     0.149 C 
BRANCH  11  12
HETATM   12  C   UNK N   1      -2.796  -6.026  -0.242  0.00  0.00     0.053 A 
HETATM   13  C   UNK N   1      -3.558  -7.164  -0.047  0.00  0.00     0.054 A 
HETATM   14  C   UNK N   1      -2.964  -8.420   0.017  0.00  0.00     0.106 A 
HETATM   15  C   UNK N   1      -1.567  -8.530  -0.074  0.00  0.00     0.075 A 
HETATM   16  C   UNK N   1      -0.778  -7.389  -0.248  0.00  0.00     0.102 A 
HETATM   17  C   UNK N   1      -1.384  -6.131  -0.347  0.00  0.00     0.113 A 
BRANCH  14  18
HETATM   18  N   UNK N   1      -3.791  -9.563   0.169  0.00  0.00    -0.116 N 
HETATM   19  O   UNK N   1      -3.301 -10.654   0.224  0.00  0.00    -0.532 OA
HETATM   20  O   UNK N   1      -4.975  -9.448   0.214  0.00  0.00    -0.532 OA
ENDBRANCH  14  18
BRANCH  16  21
HETATM   21  O   UNK N   1       0.561  -7.501  -0.302  0.00  0.00    -0.358 OA
HETATM   22  H   UNK N   1       0.959  -8.349  -0.339  0.00  0.00     0.217 HD
ENDBRANCH  16  21
BRANCH  17  23
HETATM   23  O   UNK N   1      -0.609  -5.037  -0.491  0.00  0.00    -0.357 OA
HETATM   24  H   UNK N   1       0.319  -5.123  -0.591  0.00  0.00     0.217 HD
ENDBRANCH  17  23
ENDBRANCH  11  12
BRANCH  11  25
HETATM   25  O   UNK N   1      -4.684  -4.612   0.384  0.00  0.00    -0.346 OA
HETATM   26  H   UNK N   1      -5.024  -3.849   0.808  0.00  0.00     0.219 HD
ENDBRANCH  11  25
ENDBRANCH   9  11
ENDBRANCH   8   9
ENDBRANCH   7   8
ENDBRANCH   6   7
ENDBRANCH   1   6
BRANCH   2  27
HETATM   27  O   UNK N   1       1.005  -2.291  -1.333  0.00  0.00    -0.390 OA
HETATM   28  H   UNK N   1       0.582  -2.328  -2.206  0.00  0.00     0.210 HD
ENDBRANCH   2  27
BRANCH   3  29
HETATM   29  O   UNK N   1       3.517  -1.026   0.458  0.00  0.00    -0.388 OA
HETATM   30  H   UNK N   1       3.704  -1.861   0.917  0.00  0.00     0.210 HD
ENDBRANCH   3  29
BRANCH   4  31
HETATM   31  N   UNK N   1       2.019   1.886   0.041  0.00  0.00    -0.297 N 
HETATM   32  C   UNK N   1       1.095   2.844  -0.251  0.00  0.00     0.188 A 
HETATM   33  N   UNK N   1       1.668   4.060  -0.418  0.00  0.00    -0.346 N 
HETATM   34  C   UNK N   1       2.976   3.830  -0.231  0.00  0.00     0.122 A 
ATOM     35  HN  UNK N   1       1.211   4.945  -0.637  1.00  0.00     0.167 HD
HETATM   36  C   UNK N   1       4.022   4.725  -0.208  0.00  0.00     0.131 A 
HETATM   37  C   UNK N   1       3.191   2.521   0.019  0.00  0.00     0.142 A 
HETATM   38  N   UNK N   1       5.275   4.235   0.025  0.00  0.00    -0.337 N 
HETATM   39  C   UNK N   1       5.480   2.891   0.241  0.00  0.00     0.183 A 
ATOM     40  HN  UNK N   1       6.070   4.874   0.040  1.00  0.00     0.168 HD
HETATM   41  N   UNK N   1       4.423   2.019   0.265  0.00  0.00    -0.336 N 
ATOM     42  HN  UNK N   1       4.560   1.027   0.460  1.00  0.00     0.168 HD
BRANCH  36  43
HETATM   43  N   UNK N   1       3.800   6.108  -0.368  0.00  0.00    -0.383 N 
HETATM   44  H   UNK N   1       4.559   6.725  -0.480  0.00  0.00     0.157 HD
HETATM   45  H   UNK N   1       2.881   6.459  -0.368  0.00  0.00     0.157 HD
ENDBRANCH  36  43
ENDBRANCH   4  31
TORSDOF 14
