REMARK  24 active torsions:
REMARK  status: ('A' for Active; 'I' for Inactive)
REMARK    1  A    between atoms: C_21  and  C_7 
REMARK    2  A    between atoms: C_22  and  C_8 
REMARK    3  A    between atoms: C_23  and  C_19 
REMARK    4  A    between atoms: O_49  and  C_19 
REMARK    5  A    between atoms: C_24  and  C_20 
REMARK    6  A    between atoms: O_50  and  C_20 
REMARK    7  A    between atoms: C_25  and  C_21 
REMARK    8  A    between atoms: C_26  and  C_22 
REMARK    9  A    between atoms: C_31  and  C_25 
REMARK   10  A    between atoms: C_25  and  N_39 
REMARK   11  A    between atoms: C_32  and  C_26 
REMARK   12  A    between atoms: C_26  and  N_41 
REMARK   13  A    between atoms: C_28  and  C_27 
REMARK   14  A    between atoms: C_29  and  C_27 
REMARK   15  A    between atoms: C_27  and  O_43 
REMARK   16  A    between atoms: C_30  and  C_28 
REMARK   17  A    between atoms: C_28  and  O_44 
REMARK   18  A    between atoms: C_33  and  C_29 
REMARK   19  A    between atoms: C_29  and  O_49 
REMARK   20  A    between atoms: C_34  and  C_30 
REMARK   21  A    between atoms: C_30  and  O_50 
REMARK   22  A    between atoms: O_45  and  C_31 
REMARK   23  A    between atoms: O_46  and  C_32 
REMARK   24  A    between atoms: C_34  and  O_48 
ROOT
HETATM    1  C   UNK N   1       2.379   2.756  -0.021  0.00  0.00     0.144 C 
HETATM    2  N   UNK N   1       1.948   1.822  -0.807  0.00  0.00    -0.360 N 
ATOM      3  HN  UNK N   1       2.105   1.971  -1.804  1.00  0.00     0.162 HD
HETATM    4  O   UNK N   1       2.290   2.640   1.320  0.00  0.00    -0.348 OA
HETATM    5  H   UNK N   1       2.189   2.653   2.252  0.00  0.00     0.219 HD
ENDROOT
BRANCH   1   6
HETATM    6  C   UNK N   1       2.983   4.003  -0.651  0.00  0.00     0.227 C 
BRANCH   6   7
HETATM    7  C   UNK N   1       4.482   4.279  -0.315  0.00  0.00     0.186 C 
BRANCH   7   8
HETATM    8  C   UNK N   1       4.753   5.696   0.296  0.00  0.00     0.186 C 
BRANCH   8   9
HETATM    9  C   UNK N   1       6.220   6.206   0.176  0.00  0.00     0.227 C 
BRANCH   9  10
HETATM   10  C   UNK N   1       6.441   6.912  -1.190  0.00  0.00     0.144 C 
HETATM   11  N   UNK N   1       6.861   8.133  -1.340  0.00  0.00    -0.360 N 
ATOM     12  HN  UNK N   1       6.893   8.417  -2.319  1.00  0.00     0.162 HD
BRANCH  11  13
HETATM   13  C   UNK N   1       7.298   9.193  -0.435  0.00  0.00     0.161 C 
BRANCH  13  14
HETATM   14  C   UNK N   1       6.169   9.927   0.359  0.00  0.00     0.012 C 
HETATM   15  C   UNK N   1       5.491   9.115   1.440  0.00  0.00     0.012 C 
BRANCH  14  16
HETATM   16  C   UNK N   1       6.702  11.186   1.053  0.00  0.00     0.002 C 
HETATM   17  C   UNK N   1       7.181  12.246   0.074  0.00  0.00     0.005 C 
ENDBRANCH  14  16
ENDBRANCH  13  14
BRANCH  13  18
HETATM   18  C   UNK N   1       8.532   8.808   0.360  0.00  0.00     0.134 C 
HETATM   19  N   UNK N   1       9.655   9.381   0.088  0.00  0.00    -0.377 N 
HETATM   20  C   UNK N   1      10.868   9.066   0.798  0.00  0.00     0.148 C 
ATOM     21  HN  UNK N   1       9.685  10.080  -0.654  1.00  0.00     0.160 HD
BRANCH  18  22
HETATM   22  O   UNK N   1       8.466   7.884   1.340  0.00  0.00    -0.348 OA
HETATM   23  H   UNK N   1       7.887   7.603   2.021  0.00  0.00     0.219 HD
ENDBRANCH  18  22
ENDBRANCH  13  18
ENDBRANCH  11  13
BRANCH  10  24
HETATM   24  O   UNK N   1       6.184   6.221  -2.315  0.00  0.00    -0.348 OA
HETATM   25  H   UNK N   1       5.678   6.135  -3.098  0.00  0.00     0.219 HD
ENDBRANCH  10  24
ENDBRANCH   9  10
BRANCH   9  26
HETATM   26  O   UNK N   1       7.124   5.169   0.544  0.00  0.00    -0.370 OA
BRANCH  26  27
HETATM   27  C   UNK N   1       8.015   4.834  -0.490  0.00  0.00     0.207 C 
BRANCH  27  28
HETATM   28  C   UNK N   1       8.684   3.544  -0.181  0.00  0.00    -0.035 A 
HETATM   29  C   UNK N   1      10.076   3.498  -0.065  0.00  0.00     0.009 A 
HETATM   30  C   UNK N   1      10.714   2.288   0.225  0.00  0.00     0.001 A 
HETATM   31  C   UNK N   1       9.959   1.125   0.400  0.00  0.00     0.000 A 
HETATM   32  C   UNK N   1       8.566   1.169   0.283  0.00  0.00     0.001 A 
HETATM   33  C   UNK N   1       7.928   2.378  -0.010  0.00  0.00     0.009 A 
ENDBRANCH  27  28
ENDBRANCH  26  27
ENDBRANCH   9  26
ENDBRANCH   8   9
BRANCH   8  34
HETATM   34  O   UNK N   1       4.383   5.656   1.645  0.00  0.00    -0.390 OA
HETATM   35  H   UNK N   1       4.232   5.865   2.580  0.00  0.00     0.210 HD
ENDBRANCH   8  34
ENDBRANCH   7   8
BRANCH   7  36
HETATM   36  O   UNK N   1       5.221   4.077  -1.480  0.00  0.00    -0.390 OA
HETATM   37  H   UNK N   1       5.356   3.562  -2.290  0.00  0.00     0.210 HD
ENDBRANCH   7  36
ENDBRANCH   6   7
BRANCH   6  38
HETATM   38  O   UNK N   1       2.176   5.166  -0.630  0.00  0.00    -0.370 OA
BRANCH  38  39
HETATM   39  C   UNK N   1       1.483   5.325   0.578  0.00  0.00     0.207 C 
BRANCH  39  40
HETATM   40  C   UNK N   1       0.472   6.395   0.373  0.00  0.00    -0.035 A 
HETATM   41  C   UNK N   1      -0.892   6.087   0.398  0.00  0.00     0.009 A 
HETATM   42  C   UNK N   1      -1.838   7.087   0.149  0.00  0.00     0.001 A 
HETATM   43  C   UNK N   1      -1.421   8.393  -0.127  0.00  0.00     0.000 A 
HETATM   44  C   UNK N   1      -0.057   8.702  -0.151  0.00  0.00     0.001 A 
HETATM   45  C   UNK N   1       0.888   7.703   0.096  0.00  0.00     0.009 A 
ENDBRANCH  39  40
ENDBRANCH  38  39
ENDBRANCH   6  38
ENDBRANCH   1   6
BRANCH   2  46
HETATM   46  C   UNK N   1       1.268   0.589  -0.447  0.00  0.00     0.161 C 
BRANCH  46  47
HETATM   47  C   UNK N   1      -0.204   0.879  -0.038  0.00  0.00     0.012 C 
HETATM   48  C   UNK N   1      -0.322   1.605   1.297  0.00  0.00     0.012 C 
BRANCH  47  49
HETATM   49  C   UNK N   1      -1.025  -0.411   0.001  0.00  0.00     0.002 C 
HETATM   50  C   UNK N   1      -2.511  -0.127   0.167  0.00  0.00     0.005 C 
ENDBRANCH  47  49
ENDBRANCH  46  47
BRANCH  46  51
HETATM   51  C   UNK N   1       2.071  -0.263   0.539  0.00  0.00     0.134 C 
HETATM   52  N   UNK N   1       3.301  -0.595   0.316  0.00  0.00    -0.377 N 
HETATM   53  C   UNK N   1       4.040  -0.190  -0.854  0.00  0.00     0.148 C 
ATOM     54  HN  UNK N   1       3.775  -1.177   1.007  1.00  0.00     0.160 HD
BRANCH  51  55
HETATM   55  O   UNK N   1       1.483  -0.703   1.668  0.00  0.00    -0.348 OA
HETATM   56  H   UNK N   1       1.013  -0.502   2.453  0.00  0.00     0.219 HD
ENDBRANCH  51  55
ENDBRANCH  46  51
ENDBRANCH   2  46
TORSDOF 24
