REMARK  9 active torsions:
REMARK  status: ('A' for Active; 'I' for Inactive)
REMARK    1  A    between atoms: C_3  and  C_1 
REMARK    2  A    between atoms: O_25  and  C_1 
REMARK    3  A    between atoms: C_5  and  O_20 
REMARK    4  A    between atoms: C_6  and  O_21 
REMARK    5  A    between atoms: N_12  and  C_7 
REMARK    6  A    between atoms: C_9  and  N_19 
REMARK    7  A    between atoms: P_27  and  O_22 
REMARK    8  A    between atoms: P_27  and  O_23 
REMARK    9  A    between atoms: P_27  and  O_25 
ROOT
HETATM    1  C   UNK N   1      -0.129  -1.925  -0.457  0.00  0.00     0.180 C 
HETATM    2  C   UNK N   1       1.207  -2.473   0.101  0.00  0.00     0.182 C 
HETATM    3  C   UNK N   1       2.055  -1.219   0.223  0.00  0.00     0.198 C 
HETATM    4  C   UNK N   1       0.972  -0.153   0.302  0.00  0.00     0.263 C 
HETATM    5  O   UNK N   1       0.054  -0.543  -0.692  0.00  0.00    -0.353 OA
ENDROOT
BRANCH   4   6
HETATM    6  N   UNK N   1       1.411   1.239   0.096  0.00  0.00    -0.281 N 
HETATM    7  C   UNK N   1       2.644   1.778   0.047  0.00  0.00     0.143 A 
HETATM    8  C   UNK N   1       2.547   3.114  -0.134  0.00  0.00     0.123 A 
HETATM    9  N   UNK N   1       3.843   1.157   0.181  0.00  0.00    -0.336 N 
HETATM   10  C   UNK N   1       3.686   3.898  -0.199  0.00  0.00     0.131 A 
HETATM   11  N   UNK N   1       1.254   3.476  -0.207  0.00  0.00    -0.330 N 
HETATM   12  N   UNK N   1       4.897   3.278  -0.073  0.00  0.00    -0.337 N 
HETATM   13  C   UNK N   1       4.978   1.920   0.116  0.00  0.00     0.183 A 
ATOM     14  HN  UNK N   1       5.752   3.832  -0.120  1.00  0.00     0.168 HD
HETATM   15  C   UNK N   1       0.578   2.307  -0.056  0.00  0.00     0.160 A 
ATOM     16  HN  UNK N   1       0.870   4.411  -0.345  1.00  0.00     0.168 HD
HETATM   17 Br   UNK N   1      -1.334   2.211  -0.064  0.00  0.00    -0.010 Br
ATOM     18  HN  UNK N   1       3.897   0.149   0.327  1.00  0.00     0.168 HD
BRANCH  10  19
HETATM   19  N   UNK N   1       3.607   5.293  -0.380  0.00  0.00    -0.383 N 
HETATM   20  H   UNK N   1       4.424   5.828  -0.506  0.00  0.00     0.157 HD
HETATM   21  H   UNK N   1       2.728   5.737  -0.380  0.00  0.00     0.157 HD
ENDBRANCH  10  19
ENDBRANCH   4   6
BRANCH   3  22
HETATM   22  O   UNK N   1       2.761  -1.060  -0.975  0.00  0.00    -0.388 OA
HETATM   23  H   UNK N   1       3.101  -1.429  -1.805  0.00  0.00     0.210 HD
ENDBRANCH   3  22
BRANCH   2  24
HETATM   24  O   UNK N   1       1.036  -3.080   1.350  0.00  0.00    -0.390 OA
HETATM   25  H   UNK N   1       0.613  -3.188   2.216  0.00  0.00     0.210 HD
ENDBRANCH   2  24
BRANCH   1  26
HETATM   26  C   UNK N   1      -1.293  -2.093   0.528  0.00  0.00     0.215 C 
BRANCH  26  27
HETATM   27  O   UNK N   1      -2.480  -1.625  -0.042  0.00  0.00    -0.294 OA
BRANCH  27  28
HETATM   28  P   UNK N   1      -3.723  -2.654   0.606  0.00  0.00     0.390 P 
HETATM   29  O   UNK N   1      -3.389  -3.390  -0.722  0.00  0.00    -0.632 OA
BRANCH  28  30
HETATM   30  O   UNK N   1      -5.270  -2.777  -0.167  0.00  0.00    -0.307 OA
HETATM   31  H   UNK N   1      -5.763  -2.062  -0.599  0.00  0.00     0.222 HD
ENDBRANCH  28  30
BRANCH  28  32
HETATM   32  O   UNK N   1      -4.365  -1.083   0.242  0.00  0.00    -0.307 OA
HETATM   33  H   UNK N   1      -3.785  -0.333   0.038  0.00  0.00     0.222 HD
ENDBRANCH  28  32
ENDBRANCH  27  28
ENDBRANCH  26  27
ENDBRANCH   1  26
TORSDOF 9
