REMARK  11 active torsions:
REMARK  status: ('A' for Active; 'I' for Inactive)
REMARK    1  A    between atoms: C_6  and  C_4 
REMARK    2  A    between atoms: O_22  and  C_4 
REMARK    3  A    between atoms: C_5  and  O_14 
REMARK    4  A    between atoms: O_15  and  C_7 
REMARK    5  A    between atoms: C_8  and  N_13 
REMARK    6  A    between atoms: P_24  and  N_12 
REMARK    7  A    between atoms: P_25  and  N_12 
REMARK    8  A    between atoms: P_24  and  O_18 
REMARK    9  A    between atoms: P_24  and  O_19 
REMARK   10  A    between atoms: P_25  and  O_21 
REMARK   11  A    between atoms: P_25  and  O_22 
ROOT
HETATM    1  C   UNK N   1       4.457   0.110  -0.934  0.00  0.00     0.088 C 
HETATM    2  C   UNK N   1       3.489   1.209  -0.669  0.00  0.00     0.153 C 
HETATM    3  C   UNK N   1       2.290   0.384  -0.255  0.00  0.00     0.177 C 
HETATM    4  C   UNK N   1       4.162  -0.779   0.271  0.00  0.00     0.235 C 
HETATM    5  O   UNK N   1       2.785  -0.633   0.589  0.00  0.00    -0.356 OA
ENDROOT
BRANCH   3   6
HETATM    6  C   UNK N   1       1.259   1.260   0.453  0.00  0.00     0.214 C 
BRANCH   6   7
HETATM    7  O   UNK N   1       0.381   0.500   1.243  0.00  0.00    -0.300 OA
BRANCH   7   8
HETATM    8  P   UNK N   1      -1.050   0.181   0.297  0.00  0.00     0.353 P 
HETATM    9  O   UNK N   1      -1.447   1.462   1.082  0.00  0.00    -0.637 OA
BRANCH   8  10
HETATM   10  N   UNK N   1      -2.559  -0.350   1.170  0.00  0.00    -0.240 N 
HETATM   11  H   UNK N   1      -2.635  -0.341   2.187  0.00  0.00     0.176 HD
BRANCH  10  12
HETATM   12  P   UNK N   1      -3.929  -0.900   0.088  0.00  0.00     0.351 P 
HETATM   13  O   UNK N   1      -3.442  -0.818  -1.383  0.00  0.00    -0.637 OA
BRANCH  12  14
HETATM   14  O   UNK N   1      -3.816   0.795  -0.271  0.00  0.00    -0.312 OA
HETATM   15  H   UNK N   1      -2.965   1.214  -0.472  0.00  0.00     0.221 HD
ENDBRANCH  12  14
BRANCH  12  16
HETATM   16  O   UNK N   1      -2.749  -2.162  -0.091  0.00  0.00    -0.312 OA
HETATM   17  H   UNK N   1      -3.029  -3.085  -0.191  0.00  0.00     0.221 HD
ENDBRANCH  12  16
ENDBRANCH  10  12
ENDBRANCH   8  10
BRANCH   8  18
HETATM   18  O   UNK N   1      -0.662  -1.112   1.391  0.00  0.00    -0.312 OA
HETATM   19  H   UNK N   1      -1.178  -1.660   2.002  0.00  0.00     0.222 HD
ENDBRANCH   8  18
ENDBRANCH   7   8
ENDBRANCH   6   7
ENDBRANCH   3   6
BRANCH   2  20
HETATM   20  O   UNK N   1       3.243   1.992  -1.797  0.00  0.00    -0.393 OA
HETATM   21  H   UNK N   1       3.629   2.412  -2.581  0.00  0.00     0.210 HD
ENDBRANCH   2  20
BRANCH   4  22
HETATM   22  N   UNK N   1       4.571  -2.179   0.019  0.00  0.00    -0.282 N 
HETATM   23  C   UNK N   1       5.894  -2.403  -0.237  0.00  0.00     0.102 A 
HETATM   24  C   UNK N   1       6.378  -3.689  -0.451  0.00  0.00     0.073 A 
HETATM   25  C   UNK N   1       5.493  -4.756  -0.396  0.00  0.00     0.144 A 
HETATM   26  N   UNK N   1       4.179  -4.532  -0.146  0.00  0.00    -0.289 N 
HETATM   27  C   UNK N   1       3.702  -3.264   0.062  0.00  0.00     0.330 A 
ATOM     28  HN  UNK N   1       3.534  -5.322  -0.112  1.00  0.00     0.172 HD
HETATM   29  O   UNK N   1       2.515  -3.111   0.291  0.00  0.00    -0.246 OA
BRANCH  25  30
HETATM   30  O   UNK N   1       5.937  -6.009  -0.586  0.00  0.00    -0.346 OA
HETATM   31  H   UNK N   1       5.335  -6.715  -0.719  0.00  0.00     0.219 HD
ENDBRANCH  25  30
ENDBRANCH   4  22
TORSDOF 11
