REMARK  28 active torsions:
REMARK  status: ('A' for Active; 'I' for Inactive)
REMARK    1  A    between atoms: C_2  and  C_3 
REMARK    2  A    between atoms: C_3  and  C_4 
REMARK    3  A    between atoms: C_4  and  C_5 
REMARK    4  A    between atoms: C_5  and  C_6 
REMARK    5  A    between atoms: C_6  and  C_7 
REMARK    6  A    between atoms: C_7  and  C_8 
REMARK    7  A    between atoms: C_8  and  C_9 
REMARK    8  A    between atoms: C_9  and  C_10 
REMARK    9  A    between atoms: C_10  and  C_11 
REMARK   10  A    between atoms: C_11  and  C_12 
REMARK   11  A    between atoms: C_12  and  C_13 
REMARK   12  A    between atoms: C_13  and  C_14 
REMARK   13  A    between atoms: C_14  and  C_15 
REMARK   14  A    between atoms: C_15  and  C_16 
REMARK   15  A    between atoms: C_16  and  C_17 
REMARK   16  A    between atoms: C_17  and  C_18 
REMARK   17  A    between atoms: C_18  and  O_19 
REMARK   18  A    between atoms: O_19  and  C_20 
REMARK   19  A    between atoms: C_20  and  C_21 
REMARK   20  A    between atoms: C_21  and  O_22 
REMARK   21  A    between atoms: C_21  and  C_23 
REMARK   22  A    between atoms: C_23  and  O_24 
REMARK   23  A    between atoms: P_25  and  O_24 
REMARK   24  A    between atoms: P_25  and  O_26 
REMARK   25  A    between atoms: P_25  and  O_28 
REMARK   26  A    between atoms: O_28  and  C_29 
REMARK   27  A    between atoms: C_29  and  C_30 
REMARK   28  A    between atoms: C_30  and  N_31 
ROOT
HETATM    1  C   UNK N   1      28.234 -10.053   0.117  0.00  0.00     0.167 C 
ENDROOT
BRANCH   1   2
HETATM    2  C   UNK N   1      27.128 -10.511  -0.815  0.00  0.00     0.026 C 
BRANCH   2   3
HETATM    3  C   UNK N   1      26.144 -11.408  -0.076  0.00  0.00     0.002 C 
BRANCH   3   4
HETATM    4  C   UNK N   1      25.302 -10.634   0.931  0.00  0.00     0.000 C 
BRANCH   4   5
HETATM    5  C   UNK N   1      24.158  -9.901   0.250  0.00  0.00     0.000 C 
BRANCH   5   6
HETATM    6  C   UNK N   1      24.637  -8.578  -0.322  0.00  0.00     0.000 C 
BRANCH   6   7
HETATM    7  C   UNK N   1      23.484  -7.810  -0.946  0.00  0.00     0.000 C 
BRANCH   7   8
HETATM    8  C   UNK N   1      22.671  -7.076   0.114  0.00  0.00     0.000 C 
BRANCH   8   9
HETATM    9  C   UNK N   1      21.610  -7.976   0.729  0.00  0.00     0.000 C 
BRANCH   9  10
HETATM   10  C   UNK N   1      20.512  -8.255  -0.279  0.00  0.00     0.000 C 
BRANCH  10  11
HETATM   11  C   UNK N   1      19.474  -9.171   0.331  0.00  0.00     0.000 C 
BRANCH  11  12
HETATM   12  C   UNK N   1      18.509  -9.613  -0.752  0.00  0.00     0.000 C 
BRANCH  12  13
HETATM   13  C   UNK N   1      17.408 -10.475  -0.164  0.00  0.00     0.000 C 
BRANCH  13  14
HETATM   14  C   UNK N   1      16.359  -9.600   0.494  0.00  0.00     0.000 C 
BRANCH  14  15
HETATM   15  C   UNK N   1      15.000  -9.921  -0.090  0.00  0.00     0.000 C 
BRANCH  15  16
HETATM   16  C   UNK N   1      13.996  -8.891   0.380  0.00  0.00    -0.000 C 
BRANCH  16  17
HETATM   17  C   UNK N   1      12.665  -9.141  -0.297  0.00  0.00    -0.005 C 
HETATM   18  C   UNK N   1      11.697  -8.037   0.073  0.00  0.00     0.005 C 
ENDBRANCH  16  17
ENDBRANCH  15  16
ENDBRANCH  14  15
ENDBRANCH  13  14
ENDBRANCH  12  13
ENDBRANCH  11  12
ENDBRANCH  10  11
ENDBRANCH   9  10
ENDBRANCH   8   9
ENDBRANCH   7   8
ENDBRANCH   6   7
ENDBRANCH   5   6
ENDBRANCH   4   5
ENDBRANCH   3   4
ENDBRANCH   2   3
ENDBRANCH   1   2
BRANCH   1  19
HETATM   19  O   UNK N   1      27.904  -8.821   0.689  0.00  0.00    -0.389 OA
BRANCH  19  20
HETATM   20  C   UNK N   1      29.137  -8.254   1.015  0.00  0.00     0.201 C 
BRANCH  20  21
HETATM   21  C   UNK N   1      29.552  -7.257  -0.052  0.00  0.00     0.166 C 
BRANCH  21  22
HETATM   22  O   UNK N   1      29.245  -5.964   0.370  0.00  0.00    -0.391 OA
HETATM   23  H   UNK N   1      29.917  -5.330   0.664  0.00  0.00     0.210 HD
ENDBRANCH  21  22
BRANCH  21  24
HETATM   24  C   UNK N   1      31.041  -7.371  -0.314  0.00  0.00     0.214 C 
BRANCH  24  25
HETATM   25  O   UNK N   1      31.331  -8.623  -0.869  0.00  0.00    -0.294 OA
BRANCH  25  26
HETATM   26  P   UNK N   1      32.704  -9.204   0.023  0.00  0.00     0.393 P 
HETATM   27  O   UNK N   1      33.282  -8.926  -1.394  0.00  0.00    -0.631 OA
BRANCH  26  28
HETATM   28  O   UNK N   1      31.506 -10.459  -0.067  0.00  0.00    -0.307 OA
HETATM   29  H   UNK N   1      30.564 -10.230  -0.117  0.00  0.00     0.222 HD
ENDBRANCH  26  28
BRANCH  26  30
HETATM   30  O   UNK N   1      33.471 -10.716  -0.378  0.00  0.00    -0.295 OA
BRANCH  30  31
HETATM   31  C   UNK N   1      34.648 -10.741   0.380  0.00  0.00     0.208 C 
BRANCH  31  32
HETATM   32  C   UNK N   1      35.829 -10.332  -0.504  0.00  0.00     0.262 C 
BRANCH  32  33
HETATM   33  N   UNK N   1      36.762  -9.420   0.167  0.00  0.00    -0.077 N 
HETATM   34  C   UNK N   1      37.784  -9.038  -0.791  0.00  0.00     0.271 C 
HETATM   35  C   UNK N   1      37.408 -10.073   1.292  0.00  0.00     0.271 C 
HETATM   36  C   UNK N   1      36.093  -8.210   0.619  0.00  0.00     0.271 C 
ENDBRANCH  32  33
ENDBRANCH  31  32
ENDBRANCH  30  31
ENDBRANCH  26  30
ENDBRANCH  25  26
ENDBRANCH  24  25
ENDBRANCH  21  24
ENDBRANCH  20  21
ENDBRANCH  19  20
ENDBRANCH   1  19
TORSDOF 28
