REMARK  9 active torsions:
REMARK  status: ('A' for Active; 'I' for Inactive)
REMARK    1  A    between atoms: C_2  and  C_1 
REMARK    2  A    between atoms: C_3  and  C_1 
REMARK    3  A    between atoms: C_1  and  N_4 
REMARK    4  A    between atoms: O_6  and  C_2 
REMARK    5  A    between atoms: C_3  and  O_7 
REMARK    6  A    between atoms: O_11  and  C_3 
REMARK    7  A    between atoms: P_12  and  O_8 
REMARK    8  A    between atoms: P_12  and  O_9 
REMARK    9  A    between atoms: P_12  and  O_11 
ROOT
HETATM    1  C   UNK N   1       1.163  -0.735   0.255  0.00  0.00     0.301 C 
ENDROOT
BRANCH   1   2
HETATM    2  C   UNK N   1       2.619  -0.361  -0.076  0.00  0.00     0.229 C 
BRANCH   2   3
HETATM    3  C   UNK N   1       3.535  -1.563  -0.135  0.00  0.00     0.168 C 
HETATM    4  O   UNK N   1       4.719  -1.410  -0.383  0.00  0.00    -0.648 OA
BRANCH   3   5
HETATM    5  O   UNK N   1       3.065  -2.806   0.106  0.00  0.00    -0.775 OA
HETATM    6  H   UNK N   1       2.155  -2.955   0.273  0.00  0.00     0.167 HD
ENDBRANCH   3   5
ENDBRANCH   2   3
BRANCH   2   7
HETATM    7  N   UNK N   1       3.125   0.553   0.937  0.00  0.00    -0.414 N 
HETATM    8  H   UNK N   1       3.858   0.567   1.646  0.00  0.00     0.150 HD
HETATM    9  H   UNK N   1       2.599   1.427   0.937  0.00  0.00     0.150 HD
ENDBRANCH   2   7
ENDBRANCH   1   2
BRANCH   1  10
HETATM   10  O   UNK N   1       0.635  -1.541  -0.767  0.00  0.00    -0.368 OA
HETATM   11  H   UNK N   1      -0.029  -1.503  -1.473  0.00  0.00     0.212 HD
ENDBRANCH   1  10
BRANCH   1  12
HETATM   12  O   UNK N   1       0.397   0.438   0.523  0.00  0.00    -0.263 OA
BRANCH  12  13
HETATM   13  P   UNK N   1      -0.888   0.742  -0.634  0.00  0.00     0.393 P 
HETATM   14  O   UNK N   1      -1.622  -0.147   0.407  0.00  0.00    -0.631 OA
BRANCH  13  15
HETATM   15  O   UNK N   1      -2.265   1.701  -0.191  0.00  0.00    -0.307 OA
HETATM   16  H   UNK N   1      -2.186   2.636   0.057  0.00  0.00     0.222 HD
ENDBRANCH  13  15
BRANCH  13  17
HETATM   17  O   UNK N   1      -0.400   2.225   0.127  0.00  0.00    -0.307 OA
HETATM   18  H   UNK N   1       0.453   2.403   0.552  0.00  0.00     0.222 HD
ENDBRANCH  13  17
ENDBRANCH  12  13
ENDBRANCH   1  12
TORSDOF 9
