REMARK  5 active torsions:
REMARK  status: ('A' for Active; 'I' for Inactive)
REMARK    1  A    between atoms: C_7  and  C_2 
REMARK    2  A    between atoms: N_18  and  C_2 
REMARK    3  A    between atoms: C_8  and  C_5 
REMARK    4  A    between atoms: C_9  and  O_20 
REMARK    5  A    between atoms: O_21  and  C_12 
ROOT
HETATM    1  C   UNK N   1      -2.911   4.677  -0.322  0.00  0.00     0.173 C 
HETATM    2  O   UNK N   1      -3.106   4.727   1.060  0.00  0.00    -0.400 OA
HETATM    3  H   UNK N   1      -3.144   4.861   2.020  0.00  0.00     0.209 HD
ENDROOT
BRANCH   1   4
HETATM    4  C   UNK N   1      -1.861   3.633  -0.707  0.00  0.00     0.068 C 
HETATM    5  C   UNK N   1      -0.488   3.817  -0.103  0.00  0.00     0.282 C 
HETATM    6  N   UNK N   1       0.185   2.580  -0.480  0.00  0.00     0.095 N 
HETATM    7  C   UNK N   1      -0.824   1.548  -0.212  0.00  0.00     0.304 C 
HETATM    8  C   UNK N   1      -2.191   2.188  -0.354  0.00  0.00     0.154 C 
BRANCH   6   9
HETATM    9  C   UNK N   1       1.410   2.384   0.305  0.00  0.00     0.310 C 
BRANCH   9  10
HETATM   10  C   UNK N   1       2.053   1.026   0.076  0.00  0.00    -0.012 C 
HETATM   11  C   UNK N   1       1.562   0.093  -0.721  0.00  0.00     0.090 C 
HETATM   12  N   UNK N   1       2.292  -1.090  -0.623  0.00  0.00    -0.385 N 
HETATM   13  C   UNK N   1       3.331  -0.964   0.361  0.00  0.00     0.183 C 
HETATM   14  H   UNK N   1       2.119  -1.900  -1.156  0.00  0.00     0.159 HD
HETATM   15  C   UNK N   1       3.289   0.538   0.781  0.00  0.00     0.145 C 
HETATM   16  C   UNK N   1       4.631  -1.436  -0.211  0.00  0.00     0.142 C 
HETATM   17  N   UNK N   1       4.449   1.304   0.357  0.00  0.00    -0.375 N 
HETATM   18  C   UNK N   1       5.497   0.778  -0.183  0.00  0.00     0.178 C 
ATOM     19  HN  UNK N   1       4.434   2.315   0.494  1.00  0.00     0.161 HD
HETATM   20  N   UNK N   1       5.599  -0.615  -0.435  0.00  0.00    -0.335 N 
ATOM     21  HN  UNK N   1       6.475  -0.982  -0.809  1.00  0.00     0.168 HD
BRANCH  16  22
HETATM   22  O   UNK N   1       4.779  -2.737  -0.520  0.00  0.00    -0.348 OA
HETATM   23  H   UNK N   1       4.046  -3.279  -0.736  0.00  0.00     0.219 HD
ENDBRANCH  16  22
ENDBRANCH   9  10
ENDBRANCH   6   9
BRANCH   8  24
HETATM   24  O   UNK N   1      -2.846   2.075   0.874  0.00  0.00    -0.393 OA
HETATM   25  H   UNK N   1      -3.141   2.431   1.727  0.00  0.00     0.210 HD
ENDBRANCH   8  24
ENDBRANCH   1   4
TORSDOF 5
