REMARK  16 active torsions:
REMARK  status: ('A' for Active; 'I' for Inactive)
REMARK    1  A    between atoms: C_8  and  C_7 
REMARK    2  A    between atoms: C_14  and  C_7 
REMARK    3  A    between atoms: C_16  and  C_8 
REMARK    4  A    between atoms: C_10  and  C_9 
REMARK    5  A    between atoms: C_17  and  C_9 
REMARK    6  A    between atoms: N_21  and  C_10 
REMARK    7  A    between atoms: C_18  and  C_12 
REMARK    8  A    between atoms: S_35  and  C_13 
REMARK    9  A    between atoms: C_20  and  C_14 
REMARK   10  A    between atoms: C_14  and  N_23 
REMARK   11  A    between atoms: C_15  and  C_19 
REMARK   12  A    between atoms: O_26  and  C_16 
REMARK   13  A    between atoms: O_28  and  C_17 
REMARK       I    between atoms: N_23  and  C_18 
REMARK   14  A    between atoms: O_30  and  C_19 
REMARK   15  A    between atoms: O_32  and  C_20 
REMARK   16  A    between atoms: S_35  and  N_24 
ROOT
HETATM    1  C   UNK N   1       2.231   2.854   0.890  0.00  0.00     0.018 A 
HETATM    2  C   UNK N   1       1.324   4.789  -0.251  0.00  0.00     0.018 A 
HETATM    3  C   UNK N   1       3.482   3.456   0.914  0.00  0.00     0.026 A 
HETATM    4  C   UNK N   1       2.579   5.407  -0.201  0.00  0.00     0.026 A 
HETATM    5  C   UNK N   1       1.143   3.516   0.308  0.00  0.00     0.032 A 
HETATM    6  C   UNK N   1       3.660   4.729   0.371  0.00  0.00     0.074 A 
ENDROOT
BRANCH   6   7
HETATM    7  S   UNK N   1       5.249   5.514   0.544  0.00  0.00     0.244 S 
HETATM    8  O   UNK N   1       6.222   4.486   1.151  0.00  0.00    -0.206 OA
HETATM    9  O   UNK N   1       5.222   6.561   1.667  0.00  0.00    -0.206 OA
BRANCH   7  10
HETATM   10  N   UNK N   1       6.123   6.224  -0.861  0.00  0.00    -0.194 NA
HETATM   11  C   UNK N   1       7.545   5.925  -0.698  0.00  0.00     0.108 C 
HETATM   12  C   UNK N   1       8.151   7.037   0.161  0.00  0.00     0.018 C 
HETATM   13  C   UNK N   1       7.084   8.116   0.223  0.00  0.00     0.030 C 
HETATM   14  C   UNK N   1       6.128   7.692  -0.874  0.00  0.00     0.148 C 
BRANCH  14  15
HETATM   15  C   UNK N   1       4.758   8.322  -0.868  0.00  0.00     0.130 C 
HETATM   16  N   UNK N   1       4.407   9.146   0.062  0.00  0.00    -0.373 N 
ATOM     17  HN  UNK N   1       5.034   9.310   0.850  1.00  0.00     0.161 HD
BRANCH  16  18
HETATM   18  C   UNK N   1       3.143   9.840   0.003  0.00  0.00     0.132 C 
BRANCH  18  19
HETATM   19  C   UNK N   1       2.100   9.162   0.869  0.00  0.00     0.129 C 
BRANCH  19  20
HETATM   20  C   UNK N   1       0.746   9.388   0.275  0.00  0.00     0.140 C 
HETATM   21  O   UNK N   1       0.316  10.522   0.129  0.00  0.00    -0.650 OA
BRANCH  20  22
HETATM   22  O   UNK N   1       0.003   8.335  -0.112  0.00  0.00    -0.776 OA
HETATM   23  H   UNK N   1      -0.891   8.417  -0.382  0.00  0.00     0.167 HD
ENDBRANCH  20  22
ENDBRANCH  19  20
ENDBRANCH  18  19
ENDBRANCH  16  18
BRANCH  15  24
HETATM   24  O   UNK N   1       3.918   8.054  -1.891  0.00  0.00    -0.348 OA
HETATM   25  H   UNK N   1       3.466   8.465  -2.601  0.00  0.00     0.219 HD
ENDBRANCH  15  24
ENDBRANCH  14  15
ENDBRANCH   7  10
ENDBRANCH   6   7
BRANCH   5  26
HETATM   26  C   UNK N   1      -0.155   2.829   0.242  0.00  0.00     0.252 C 
HETATM   27  N   UNK N   1      -1.087   3.259  -0.658  0.00  0.00    -0.343 N 
HETATM   28  H   UNK N   1      -0.870   4.092  -1.135  0.00  0.00     0.163 HD
HETATM   29  O   UNK N   1      -0.346   1.846   0.935  0.00  0.00    -0.268 OA
BRANCH  27  30
HETATM   30  C   UNK N   1      -2.363   2.641  -1.003  0.00  0.00     0.183 C 
BRANCH  30  31
HETATM   31  C   UNK N   1      -3.481   3.674  -0.890  0.00  0.00     0.046 C 
BRANCH  31  32
HETATM   32  C   UNK N   1      -3.614   4.278   0.498  0.00  0.00     0.112 C 
BRANCH  32  33
HETATM   33  C   UNK N   1      -5.036   4.669   0.717  0.00  0.00     0.139 C 
HETATM   34  O   UNK N   1      -5.901   3.811   0.792  0.00  0.00    -0.650 OA
BRANCH  33  35
HETATM   35  O   UNK N   1      -5.368   5.968   0.828  0.00  0.00    -0.776 OA
HETATM   36  H   UNK N   1      -4.700   6.621   0.905  0.00  0.00     0.167 HD
ENDBRANCH  33  35
ENDBRANCH  32  33
ENDBRANCH  31  32
ENDBRANCH  30  31
BRANCH  30  37
HETATM   37  C   UNK N   1      -2.695   1.346  -0.283  0.00  0.00     0.163 C 
HETATM   38  O   UNK N   1      -1.980   0.366  -0.432  0.00  0.00    -0.648 OA
BRANCH  37  39
HETATM   39  O   UNK N   1      -3.803   1.243   0.477  0.00  0.00    -0.775 OA
HETATM   40  H   UNK N   1      -4.250   1.874   1.006  0.00  0.00     0.167 HD
ENDBRANCH  37  39
ENDBRANCH  30  37
ENDBRANCH  27  30
ENDBRANCH   5  26
TORSDOF 16
