REMARK  7 active torsions:
REMARK  status: ('A' for Active; 'I' for Inactive)
REMARK    1  A    between atoms: O_1  and  C_2 
REMARK    2  A    between atoms: C_2  and  C_3 
REMARK    3  A    between atoms: C_3  and  C_4 
REMARK    4  A    between atoms: C_4  and  C_5 
REMARK    5  A    between atoms: C_4  and  O_8 
REMARK    6  A    between atoms: C_5  and  C_6 
REMARK    7  A    between atoms: C_6  and  O_7 
ROOT
HETATM    1  C   UNK N   1      -3.420   2.289   0.377  0.00  0.00     0.065 C 
HETATM    2  C   UNK N   1      -3.301   3.310  -0.748  0.00  0.00     0.046 C 
ENDROOT
BRANCH   1   3
HETATM    3  C   UNK N   1      -4.072   1.000  -0.126  0.00  0.00     0.064 C 
BRANCH   3   4
HETATM    4  C   UNK N   1      -5.501   1.231  -0.605  0.00  0.00     0.167 C 
BRANCH   4   5
HETATM    5  O   UNK N   1      -6.219   0.039  -0.534  0.00  0.00    -0.401 OA
HETATM    6  H   UNK N   1      -7.187   0.056  -0.485  0.00  0.00     0.209 HD
ENDBRANCH   4   5
ENDBRANCH   3   4
ENDBRANCH   1   3
BRANCH   1   7
HETATM    7  C   UNK N   1      -2.050   1.973   0.991  0.00  0.00     0.147 C 
BRANCH   7   8
HETATM    8  C   UNK N   1      -0.982   1.588   0.008  0.00  0.00     0.142 C 
HETATM    9  O   UNK N   1      -0.479   2.434  -0.713  0.00  0.00    -0.650 OA
BRANCH   8  10
HETATM   10  O   UNK N   1      -0.532   0.320  -0.034  0.00  0.00    -0.776 OA
HETATM   11  H   UNK N   1      -1.140  -0.392  -0.064  0.00  0.00     0.167 HD
ENDBRANCH   8  10
ENDBRANCH   7   8
ENDBRANCH   1   7
BRANCH   1  12
HETATM   12  O   UNK N   1      -4.218   2.834   1.385  0.00  0.00    -0.390 OA
HETATM   13  H   UNK N   1      -4.167   3.504   2.085  0.00  0.00     0.210 HD
ENDBRANCH   1  12
TORSDOF 7
