REMARK  10 active torsions:
REMARK  status: ('A' for Active; 'I' for Inactive)
REMARK    1  A    between atoms: C_9  and  C_7 
REMARK    2  A    between atoms: C_21  and  C_7 
REMARK    3  A    between atoms: C_10  and  C_8 
REMARK    4  A    between atoms: C_22  and  C_8 
REMARK    5  A    between atoms: C_31  and  C_9 
REMARK    6  A    between atoms: C_32  and  C_10 
REMARK    7  A    between atoms: C_33  and  C_19 
REMARK    8  A    between atoms: C_34  and  C_20 
REMARK    9  A    between atoms: O_42  and  C_31 
REMARK   10  A    between atoms: O_44  and  C_32 
ROOT
HETATM    1  C   UNK N   1      -0.603   0.689  -1.540  0.00  0.00     0.051 C 
HETATM    2  C   UNK N   1       5.880  -4.591  -0.880  0.00  0.00     0.051 C 
HETATM    3  C   UNK N   1       3.225   1.366  -2.670  0.00  0.00     0.012 C 
HETATM    4  C   UNK N   1       9.890   1.352  -0.083  0.00  0.00     0.052 C 
HETATM    5  C   UNK N   1       5.438  -0.247  -1.175  0.00  0.00     0.046 C 
HETATM    6  C   UNK N   1       1.767   1.894  -0.419  0.00  0.00     0.027 C 
HETATM    7  C   UNK N   1       6.886  -2.478   0.760  0.00  0.00     0.064 C 
HETATM    8  C   UNK N   1       6.979   2.410   0.489  0.00  0.00     0.027 C 
HETATM    9  C   UNK N   1       1.851  -2.577   0.864  0.00  0.00     0.064 C 
HETATM   10  C   UNK N   1       0.351   0.085  -0.553  0.00  0.00    -0.025 C 
HETATM   11  C   UNK N   1       5.006  -3.913   0.110  0.00  0.00    -0.025 C 
HETATM   12  C   UNK N   1       3.784   2.262  -1.588  0.00  0.00     0.017 C 
HETATM   13  C   UNK N   1       8.811   0.521   0.523  0.00  0.00    -0.017 A 
HETATM   14  C   UNK N   1       5.302   0.893  -0.453  0.00  0.00     0.040 A 
HETATM   15  C   UNK N   1       0.307  -1.183  -0.084  0.00  0.00    -0.021 C 
HETATM   16  C   UNK N   1       3.625  -3.930   0.165  0.00  0.00    -0.021 C 
HETATM   17  C   UNK N   1       1.475   0.660  -0.035  0.00  0.00     0.061 C 
HETATM   18  C   UNK N   1       5.420  -2.824   0.798  0.00  0.00     0.066 C 
HETATM   19  C   UNK N   1       3.049   2.551  -0.459  0.00  0.00     0.104 C 
HETATM   20  C   UNK N   1       7.531   0.978   0.813  0.00  0.00     0.062 A 
HETATM   21  C   UNK N   1       1.474  -1.398   0.568  0.00  0.00     0.066 C 
HETATM   22  C   UNK N   1       3.242  -2.890   0.882  0.00  0.00     0.066 C 
HETATM   23  C   UNK N   1       7.465  -1.295   0.911  0.00  0.00     0.074 A 
HETATM   24  C   UNK N   1       5.301   2.893  -0.055  0.00  0.00     0.111 C 
HETATM   25  C   UNK N   1       5.132   2.172  -1.162  0.00  0.00     0.070 C 
HETATM   26  C   UNK N   1       8.759  -0.919   0.541  0.00  0.00     0.046 A 
HETATM   27 Fe   UNK N   1       4.177  -0.167   0.771  0.00  0.00     0.000 Fe
HETATM   28  N   UNK N   1       2.230  -0.294   0.568  0.00  0.00    -0.248 N 
HETATM   29  N   UNK N   1       4.294  -2.088   0.982  0.00  0.00    -0.248 N 
HETATM   30  N   UNK N   1       3.963   2.503   0.476  0.00  0.00    -0.231 NA
HETATM   31  N   UNK N   1       6.752  -0.232   1.047  0.00  0.00    -0.248 N 
HETATM   32  O   UNK N   1       5.238   1.084   1.214  0.00  0.00    -0.365 OA
HETATM   33  H   UNK N   1       5.313   1.168   2.144  0.00  0.00     0.217 HD
ENDROOT
BRANCH  15  34
HETATM   34  C   UNK N   1      -0.854  -2.067  -0.219  0.00  0.00     0.052 C 
BRANCH  34  35
HETATM   35  C   UNK N   1      -1.671  -1.635   1.015  0.00  0.00     0.115 C 
BRANCH  35  36
HETATM   36  C   UNK N   1      -1.844  -0.118   1.141  0.00  0.00     0.139 C 
HETATM   37  O   UNK N   1      -0.993   0.563   1.708  0.00  0.00    -0.650 OA
BRANCH  36  38
HETATM   38  O   UNK N   1      -2.799   0.493   0.425  0.00  0.00    -0.776 OA
HETATM   39  H   UNK N   1      -2.763   1.285  -0.075  0.00  0.00     0.167 HD
ENDBRANCH  36  38
ENDBRANCH  35  36
ENDBRANCH  34  35
ENDBRANCH  15  34
BRANCH  16  40
HETATM   40  C   UNK N   1       2.654  -4.551  -0.786  0.00  0.00     0.052 C 
BRANCH  40  41
HETATM   41  C   UNK N   1       2.213  -5.859  -0.270  0.00  0.00     0.115 C 
BRANCH  41  42
HETATM   42  C   UNK N   1       3.450  -6.657  -0.315  0.00  0.00     0.139 C 
HETATM   43  O   UNK N   1       3.863  -7.180   0.700  0.00  0.00    -0.650 OA
BRANCH  42  44
HETATM   44  O   UNK N   1       4.219  -6.620  -1.423  0.00  0.00    -0.776 OA
HETATM   45  H   UNK N   1       4.508  -7.069  -2.192  0.00  0.00     0.167 HD
ENDBRANCH  42  44
ENDBRANCH  41  42
ENDBRANCH  40  41
ENDBRANCH  16  40
BRANCH  26  46
HETATM   46  C   UNK N   1       9.754  -1.851  -0.060  0.00  0.00     0.158 C 
HETATM   47  C   UNK N   1       9.535  -3.333  -0.054  0.00  0.00     0.097 C 
HETATM   48  O   UNK N   1      10.707  -1.407  -0.678  0.00  0.00    -0.293 OA
ENDBRANCH  26  46
TORSDOF 10
