REMARK  1 active torsions:
REMARK  status: ('A' for Active; 'I' for Inactive)
REMARK    1  A    between atoms: C_2  and  C_4 
ROOT
HETATM    1  C   UNK N   1       2.916  -0.821   0.000  0.00  0.00     0.099 C 
HETATM    2  C   UNK N   1       1.435  -0.669   0.000  0.00  0.00     0.182 C 
HETATM    3  O   UNK N   1       0.722  -1.659  -0.000  0.00  0.00    -0.290 OA
ENDROOT
BRANCH   2   4
HETATM    4  C   UNK N   1       0.844   0.674   0.000  0.00  0.00     0.308 C 
HETATM    5  O   UNK N   1      -0.368   0.817  -0.000  0.00  0.00    -0.299 OA
ENDBRANCH   2   4
TORSDOF 1
