REMARK  10 active torsions:
REMARK  status: ('A' for Active; 'I' for Inactive)
REMARK    1  A    between atoms: C_2  and  N_1 
REMARK    2  A    between atoms: C_2  and  C_3 
REMARK    3  A    between atoms: C_2  and  C_11 
REMARK    4  A    between atoms: C_3  and  C_4 
REMARK    5  A    between atoms: C_4  and  C_5 
REMARK    6  A    between atoms: C_5  and  C_6 
REMARK    7  A    between atoms: C_6  and  N_7 
REMARK    8  A    between atoms: C_6  and  C_8 
REMARK    9  A    between atoms: C_8  and  O_9 
REMARK   10  A    between atoms: C_11  and  O_12 
ROOT
HETATM    1  C   UNK N   1       5.938   1.894   0.043  0.00  0.00     0.005 C 
ENDROOT
BRANCH   1   2
HETATM    2  C   UNK N   1       6.963   2.847  -0.557  0.00  0.00     0.035 C 
BRANCH   2   3
HETATM    3  C   UNK N   1       8.206   2.923   0.323  0.00  0.00     0.173 C 
BRANCH   3   4
HETATM    4  N   UNK N   1       8.868   4.200   0.107  0.00  0.00    -0.418 N 
HETATM    5  H   UNK N   1       9.875   4.246  -0.044  0.00  0.00     0.150 HD
HETATM    6  H   UNK N   1       8.318   5.059   0.107  0.00  0.00     0.150 HD
ENDBRANCH   3   4
BRANCH   3   7
HETATM    7  C   UNK N   1       9.157   1.787   0.042  0.00  0.00     0.163 C 
HETATM    8  O   UNK N   1       8.778   0.633   0.152  0.00  0.00    -0.648 OA
BRANCH   7   9
HETATM    9  O   UNK N   1      10.435   2.035  -0.309  0.00  0.00    -0.775 OA
HETATM   10  H   UNK N   1      11.028   1.351  -0.552  0.00  0.00     0.167 HD
ENDBRANCH   7   9
ENDBRANCH   3   7
ENDBRANCH   2   3
ENDBRANCH   1   2
BRANCH   1  11
HETATM   11  C   UNK N   1       4.802   2.688   0.669  0.00  0.00     0.035 C 
BRANCH  11  12
HETATM   12  C   UNK N   1       3.633   2.804  -0.300  0.00  0.00     0.173 C 
BRANCH  12  13
HETATM   13  N   UNK N   1       3.005   4.105  -0.138  0.00  0.00    -0.418 N 
HETATM   14  H   UNK N   1       3.575   4.943  -0.025  0.00  0.00     0.150 HD
HETATM   15  H   UNK N   1       1.988   4.180  -0.138  0.00  0.00     0.150 HD
ENDBRANCH  12  13
BRANCH  12  16
HETATM   16  C   UNK N   1       2.628   1.704  -0.076  0.00  0.00     0.163 C 
HETATM   17  O   UNK N   1       2.967   0.536  -0.182  0.00  0.00    -0.648 OA
BRANCH  16  18
HETATM   18  O   UNK N   1       1.347   1.997   0.225  0.00  0.00    -0.775 OA
HETATM   19  H   UNK N   1       1.078   2.870   0.434  0.00  0.00     0.167 HD
ENDBRANCH  16  18
ENDBRANCH  12  16
ENDBRANCH  11  12
ENDBRANCH   1  11
TORSDOF 10
