REMARK  0 active torsions:
REMARK  status: ('A' for Active; 'I' for Inactive)
ROOT
HETATM    1  C   UNK N   1       2.866  -1.093   0.000  0.00  0.00     0.042 C 
HETATM    2  C   UNK N   1       2.252   0.291   0.000  0.00  0.00     0.224 C 
HETATM    3  N   UNK N   1       0.849   0.170   0.000  0.00  0.00    -0.422 NA
HETATM    4  C   UNK N   1      -0.300   0.055   0.000  0.00  0.00     0.157 C 
ENDROOT
TORSDOF 0
