REMARK  8 active torsions:
REMARK  status: ('A' for Active; 'I' for Inactive)
REMARK    1  A    between atoms: C_21  and  C_14 
REMARK    2  A    between atoms: N_31  and  C_14 
REMARK    3  A    between atoms: C_19  and  C_15 
REMARK    4  A    between atoms: C_23  and  C_16 
REMARK    5  A    between atoms: C_20  and  C_17 
REMARK       I    between atoms: N_37  and  C_21 
REMARK    6  A    between atoms: C_24  and  C_23 
REMARK    7  A    between atoms: C_23  and  N_33 
REMARK    8  A    between atoms: O_39  and  C_24 
REMARK       I    between atoms: N_30  and  C_25 
REMARK       I    between atoms: N_33  and  C_25 
ROOT
HETATM    1  C   UNK N   1      -2.011   4.074   1.249  0.00  0.00     0.030 C 
HETATM    2  C   UNK N   1      -3.473   3.697  -0.762  0.00  0.00     0.030 C 
HETATM    3  C   UNK N   1      -0.795   4.198   0.321  0.00  0.00     0.126 C 
HETATM    4  C   UNK N   1      -2.244   3.748  -1.661  0.00  0.00     0.126 C 
HETATM    5  C   UNK N   1      -3.088   3.171   0.621  0.00  0.00     0.040 C 
HETATM    6  C   UNK N   1      -0.666   5.599  -1.682  0.00  0.00     0.237 C 
HETATM    7  N   UNK N   1      -1.221   4.548  -1.022  0.00  0.00    -0.351 N 
HETATM    8  O   UNK N   1      -1.017   5.869  -2.821  0.00  0.00    -0.272 OA
ENDROOT
BRANCH   6   9
HETATM    9  C   UNK N   1       0.379   6.444  -1.035  0.00  0.00     0.224 C 
BRANCH   9  10
HETATM   10  N   UNK N   1      -0.244   7.340  -0.095  0.00  0.00    -0.364 N 
HETATM   11  C   UNK N   1      -0.739   8.467  -0.475  0.00  0.00     0.136 C 
ATOM     12  HN  UNK N   1      -0.293   7.078   0.890  1.00  0.00     0.161 HD
BRANCH  11  13
HETATM   13  C   UNK N   1      -1.312   9.416   0.548  0.00  0.00     0.177 C 
BRANCH  13  14
HETATM   14  C   UNK N   1      -0.378  10.628   0.719  0.00  0.00     0.017 C 
HETATM   15  C   UNK N   1      -0.251  11.461  -0.574  0.00  0.00     0.007 C 
HETATM   16  C   UNK N   1       1.064  12.233  -0.612  0.00  0.00     0.000 C 
HETATM   17  C   UNK N   1       2.267  11.277  -0.599  0.00  0.00     0.000 C 
HETATM   18  C   UNK N   1       2.022   9.988   0.200  0.00  0.00     0.000 C 
HETATM   19  C   UNK N   1       0.989  10.212   1.302  0.00  0.00     0.007 C 
ENDBRANCH  13  14
BRANCH  13  20
HETATM   20  N   UNK N   1      -2.632   9.875   0.162  0.00  0.00    -0.215 N 
HETATM   21  C   UNK N   1      -3.760   9.024   0.019  0.00  0.00     0.665 C 
HETATM   22  N   UNK N   1      -4.890   9.525  -0.318  0.00  0.00    -0.235 N 
HETATM   23  N   UNK N   1      -3.661   7.639   0.283  0.00  0.00    -0.235 N 
HETATM   24  H   UNK N   1      -4.990  10.469  -0.577  0.00  0.00     0.174 HD
ATOM     25  HN  UNK N   1      -5.714   8.924  -0.318  1.00  0.00     0.174 HD
HETATM   26  H   UNK N   1      -4.462   7.096   0.467  0.00  0.00     0.174 HD
HETATM   27  H   UNK N   1      -2.775   7.208   0.283  0.00  0.00     0.174 HD
HETATM   28  H   UNK N   1      -2.754  10.836  -0.012  0.00  0.00     0.178 HD
ENDBRANCH  13  20
ENDBRANCH  11  13
BRANCH  11  29
HETATM   29  O   UNK N   1      -0.694   8.831  -1.776  0.00  0.00    -0.348 OA
HETATM   30  H   UNK N   1      -0.459   8.929  -2.678  0.00  0.00     0.219 HD
ENDBRANCH  11  29
ENDBRANCH   9  10
ENDBRANCH   6   9
BRANCH   5  31
HETATM   31  C   UNK N   1      -2.661   1.729   0.556  0.00  0.00     0.032 A 
HETATM   32  C   UNK N   1      -1.393   1.272   0.261  0.00  0.00     0.058 A 
HETATM   33  C   UNK N   1      -1.501  -0.097   0.367  0.00  0.00     0.062 A 
HETATM   34  N   UNK N   1      -2.765  -0.427   0.695  0.00  0.00    -0.300 N 
HETATM   35  N   UNK N   1      -3.472   0.690   0.812  0.00  0.00    -0.304 N 
ATOM     36  HN  UNK N   1      -3.118  -1.374   0.830  1.00  0.00     0.187 HD
HETATM   37  H   UNK N   1      -4.427   0.747   1.045  0.00  0.00     0.186 HD
BRANCH  33  38
HETATM   38  C   UNK N   1      -0.355  -1.034   0.245  0.00  0.00     0.015 A 
HETATM   39  C   UNK N   1       0.910  -0.482  -0.017  0.00  0.00     0.015 A 
HETATM   40  C   UNK N   1       2.045  -1.284  -0.088  0.00  0.00     0.003 A 
HETATM   41  C   UNK N   1       1.938  -2.656   0.113  0.00  0.00     0.026 A 
HETATM   42  C   UNK N   1       0.695  -3.237   0.369  0.00  0.00     0.056 A 
HETATM   43  C   UNK N   1      -0.466  -2.437   0.432  0.00  0.00     0.068 A 
HETATM   44 Cl   UNK N   1       0.625  -4.972   0.630  0.00  0.00    -0.083 Cl
HETATM   45 Cl   UNK N   1      -2.018  -3.213   0.761  0.00  0.00    -0.082 Cl
ENDBRANCH  33  38
ENDBRANCH   5  31
TORSDOF 8
