REMARK  1 active torsions:
REMARK  status: ('A' for Active; 'I' for Inactive)
REMARK    1  A    between atoms: C_2  and  C_4 
REMARK       I    between atoms: C_4  and  N_5 
ROOT
HETATM    1  C   UNK N   1       0.747  -0.143  -0.000  0.00  0.00     0.284 C 
HETATM    2  N   UNK N   1       1.522  -1.248   0.000  0.00  0.00    -0.364 N 
HETATM    3  O   UNK N   1      -0.468  -0.260   0.000  0.00  0.00    -0.265 OA
HETATM    4  H   UNK N   1       1.107  -2.140   0.000  0.00  0.00     0.159 HD
HETATM    5  H   UNK N   1       2.502  -1.161   0.000  0.00  0.00     0.159 HD
ENDROOT
BRANCH   1   6
HETATM    6  C   UNK N   1       1.364   1.198  -0.000  0.00  0.00     0.212 C 
HETATM    7  C   UNK N   1       0.507   2.421   0.000  0.00  0.00     0.102 C 
HETATM    8  O   UNK N   1       2.579   1.317  -0.000  0.00  0.00    -0.288 OA
ENDBRANCH   1   6
TORSDOF 1
