REMARK  11 active torsions:
REMARK  status: ('A' for Active; 'I' for Inactive)
REMARK    1  A    between atoms: C_1  and  N_2 
REMARK    2  A    between atoms: C_1  and  C_3 
REMARK    3  A    between atoms: C_1  and  C_4 
REMARK       I    between atoms: N_2  and  C_5 
REMARK    4  A    between atoms: C_3  and  O_6 
REMARK    5  A    between atoms: C_4  and  S_8 
REMARK    6  A    between atoms: C_5  and  C_9 
REMARK    7  A    between atoms: C_9  and  C_11 
REMARK    8  A    between atoms: C_11  and  C_12 
REMARK    9  A    between atoms: C_12  and  C_13 
REMARK   10  A    between atoms: C_12  and  N_14 
REMARK   11  A    between atoms: C_13  and  O_15 
ROOT
HETATM    1  N   UNK N   1      21.704 -17.355   0.562  0.00  0.00    -0.346 N 
HETATM    2  C   UNK N   1      22.946 -17.382   0.025  0.00  0.00     0.218 C 
HETATM    3  O   UNK N   1      23.115 -17.688  -1.149  0.00  0.00    -0.274 OA
HETATM    4  H   UNK N   1      21.602 -17.097   1.506  0.00  0.00     0.163 HD
ENDROOT
BRANCH   2   5
HETATM    5  C   UNK N   1      24.118 -17.096   0.902  0.00  0.00     0.105 C 
BRANCH   5   6
HETATM    6  C   UNK N   1      24.901 -15.857   0.481  0.00  0.00     0.044 C 
BRANCH   6   7
HETATM    7  C   UNK N   1      25.992 -16.106  -0.565  0.00  0.00     0.173 C 
BRANCH   7   8
HETATM    8  C   UNK N   1      26.848 -17.306  -0.245  0.00  0.00     0.163 C 
HETATM    9  O   UNK N   1      26.372 -18.428  -0.316  0.00  0.00    -0.648 OA
BRANCH   8  10
HETATM   10  O   UNK N   1      28.145 -17.156   0.090  0.00  0.00    -0.775 OA
HETATM   11  H   UNK N   1      28.686 -17.885   0.322  0.00  0.00     0.167 HD
ENDBRANCH   8  10
ENDBRANCH   7   8
BRANCH   7  12
HETATM   12  N   UNK N   1      26.814 -14.910  -0.653  0.00  0.00    -0.418 N 
HETATM   13  H   UNK N   1      27.829 -14.990  -0.714  0.00  0.00     0.150 HD
HETATM   14  H   UNK N   1      26.375 -13.989  -0.653  0.00  0.00     0.150 HD
ENDBRANCH   7  12
ENDBRANCH   6   7
ENDBRANCH   5   6
ENDBRANCH   2   5
BRANCH   1  15
HETATM   15  C   UNK N   1      20.524 -17.691  -0.199  0.00  0.00     0.191 C 
BRANCH  15  16
HETATM   16  C   UNK N   1      19.586 -16.515  -0.221  0.00  0.00     0.164 C 
HETATM   17  O   UNK N   1      19.957 -15.456  -0.701  0.00  0.00    -0.648 OA
BRANCH  16  18
HETATM   18  O   UNK N   1      18.338 -16.615   0.279  0.00  0.00    -0.775 OA
HETATM   19  H   UNK N   1      17.843 -15.899   0.627  0.00  0.00     0.167 HD
ENDBRANCH  16  18
ENDBRANCH  15  16
BRANCH  15  20
HETATM   20  C   UNK N   1      19.859 -18.920   0.416  0.00  0.00     0.106 C 
BRANCH  20  21
HETATM   21  S   UNK N   1      20.968 -20.361   0.367  0.00  0.00    -0.180 SA
HETATM   22  H   UNK N   1      20.450 -21.618   0.330  0.00  0.00     0.101 HD
ENDBRANCH  20  21
ENDBRANCH  15  20
ENDBRANCH   1  15
TORSDOF 11
