REMARK  9 active torsions:
REMARK  status: ('A' for Active; 'I' for Inactive)
REMARK    1  A    between atoms: O_1  and  C_2 
REMARK    2  A    between atoms: C_2  and  C_3 
REMARK    3  A    between atoms: C_3  and  O_4 
REMARK    4  A    between atoms: C_3  and  C_5 
REMARK    5  A    between atoms: C_5  and  O_6 
REMARK    6  A    between atoms: C_5  and  C_7 
REMARK    7  A    between atoms: C_7  and  C_8 
REMARK    8  A    between atoms: C_8  and  C_10 
REMARK    9  A    between atoms: C_10  and  O_11 
ROOT
HETATM    1  C   UNK N   1       2.688   1.850   0.181  0.00  0.00     0.156 C 
ENDROOT
BRANCH   1   2
HETATM    2  C   UNK N   1       1.506   0.971  -0.238  0.00  0.00     0.170 C 
BRANCH   2   3
HETATM    3  C   UNK N   1       0.219   1.324   0.491  0.00  0.00     0.198 C 
BRANCH   3   4
HETATM    4  O   UNK N   1      -0.337   2.484  -0.049  0.00  0.00    -0.398 OA
HETATM    5  H   UNK N   1       0.168   3.222  -0.425  0.00  0.00     0.209 HD
ENDBRANCH   3   4
ENDBRANCH   2   3
BRANCH   2   6
HETATM    6  O   UNK N   1       1.814  -0.366   0.020  0.00  0.00    -0.391 OA
HETATM    7  H   UNK N   1       1.116  -1.016   0.199  0.00  0.00     0.210 HD
ENDBRANCH   2   6
ENDBRANCH   1   2
BRANCH   1   8
HETATM    8  O   UNK N   1       2.377   3.203   0.020  0.00  0.00    -0.393 OA
HETATM    9  H   UNK N   1       3.082   3.859  -0.092  0.00  0.00     0.210 HD
ENDBRANCH   1   8
BRANCH   1  10
HETATM   10  C   UNK N   1       3.874   1.504  -0.709  0.00  0.00     0.124 C 
BRANCH  10  11
HETATM   11  C   UNK N   1       5.193   1.966  -0.166  0.00  0.00     0.224 C 
HETATM   12  O   UNK N   1       5.393   3.154   0.030  0.00  0.00    -0.286 OA
BRANCH  11  13
HETATM   13  C   UNK N   1       6.271   0.985   0.069  0.00  0.00     0.213 C 
HETATM   14  O   UNK N   1       6.066  -0.206  -0.097  0.00  0.00    -0.644 OA
BRANCH  13  15
HETATM   15  O   UNK N   1       7.495   1.403   0.449  0.00  0.00    -0.771 OA
HETATM   16  H   UNK N   1       8.172   0.811   0.712  0.00  0.00     0.167 HD
ENDBRANCH  13  15
ENDBRANCH  11  13
ENDBRANCH  10  11
ENDBRANCH   1  10
TORSDOF 9
