REMARK  3 active torsions:
REMARK  status: ('A' for Active; 'I' for Inactive)
REMARK    1  A    between atoms: C_2  and  C_3 
REMARK    2  A    between atoms: C_2  and  C_5 
REMARK    3  A    between atoms: C_3  and  N_4 
ROOT
HETATM    1  C   UNK N   1       3.131   0.178   0.000  0.00  0.00     0.022 C 
HETATM    2  C   UNK N   1       1.711   0.708   0.000  0.00  0.00     0.100 C 
ENDROOT
BRANCH   2   3
HETATM    3  C   UNK N   1       1.558   2.233  -0.000  0.00  0.00     0.126 C 
BRANCH   3   4
HETATM    4  N   UNK N   1       0.171   2.666   0.000  0.00  0.00    -0.429 N 
HETATM    5  H   UNK N   1      -0.052   3.662   0.000  0.00  0.00     0.149 HD
HETATM    6  H   UNK N   1      -0.579   1.976   0.000  0.00  0.00     0.149 HD
ENDBRANCH   3   4
ENDBRANCH   2   3
BRANCH   2   7
HETATM    7  C   UNK N   1       0.585  -0.299  -0.000  0.00  0.00     0.178 C 
HETATM    8  O   UNK N   1       0.867  -1.616   0.000  0.00  0.00    -0.648 OA
HETATM    9  O   UNK N   1      -0.581   0.063  -0.000  0.00  0.00    -0.648 OA
ENDBRANCH   2   7
TORSDOF 3
