REMARK  4 active torsions:
REMARK  status: ('A' for Active; 'I' for Inactive)
REMARK    1  A    between atoms: C_2  and  O_1 
REMARK    2  A    between atoms: C_2  and  C_3 
REMARK    3  A    between atoms: C_2  and  C_6 
REMARK    4  A    between atoms: C_3  and  O_4 
ROOT
HETATM    1  C   UNK N   1       0.735   2.715   0.000  0.00  0.00     0.248 C 
ENDROOT
BRANCH   1   2
HETATM    2  O   UNK N   1       1.870   3.528  -0.000  0.00  0.00    -0.380 OA
HETATM    3  H   UNK N   1       2.754   3.128  -0.000  0.00  0.00     0.211 HD
ENDBRANCH   1   2
BRANCH   1   4
HETATM    4  C   UNK N   1      -0.612   3.392   0.000  0.00  0.00     0.174 C 
HETATM    5  O   UNK N   1      -1.637   2.740  -0.000  0.00  0.00    -0.648 OA
BRANCH   4   6
HETATM    6  O   UNK N   1      -0.682   4.739  -0.000  0.00  0.00    -0.774 OA
HETATM    7  H   UNK N   1       0.104   5.249  -0.000  0.00  0.00     0.167 HD
ENDBRANCH   4   6
ENDBRANCH   1   4
BRANCH   1   8
HETATM    8  C   UNK N   1       0.924   1.219   0.000  0.00  0.00    -0.019 A 
HETATM    9  C   UNK N   1       2.214   0.667  -0.000  0.00  0.00     0.010 A 
HETATM   10  C   UNK N   1       2.382  -0.723  -0.000  0.00  0.00     0.001 A 
HETATM   11  C   UNK N   1       1.266  -1.565  -0.000  0.00  0.00     0.000 A 
HETATM   12  C   UNK N   1      -0.019  -1.019   0.000  0.00  0.00     0.001 A 
HETATM   13  C   UNK N   1      -0.186   0.366   0.000  0.00  0.00     0.010 A 
ENDBRANCH   1   8
TORSDOF 4
