REMARK  12 active torsions:
REMARK  status: ('A' for Active; 'I' for Inactive)
REMARK    1  A    between atoms: C_10  and  C_8 
REMARK    2  A    between atoms: C_13  and  C_8 
REMARK    3  A    between atoms: C_11  and  C_9 
REMARK    4  A    between atoms: C_12  and  C_9 
REMARK    5  A    between atoms: C_14  and  C_12 
REMARK    6  A    between atoms: C_12  and  N_17 
REMARK    7  A    between atoms: C_16  and  C_13 
REMARK    8  A    between atoms: C_13  and  N_18 
REMARK    9  A    between atoms: C_15  and  C_14 
REMARK   10  A    between atoms: C_14  and  O_20 
REMARK   11  A    between atoms: C_15  and  O_21 
REMARK   12  A    between atoms: O_23  and  C_16 
ROOT
HETATM    1  C   UNK N   1       5.218   7.822   0.483  0.00  0.00     0.214 C 
ENDROOT
BRANCH   1   2
HETATM    2  C   UNK N   1       6.332   8.622  -0.238  0.00  0.00     0.115 C 
BRANCH   2   3
HETATM    3  C   UNK N   1       6.457  10.006   0.434  0.00  0.00     0.066 C 
BRANCH   3   4
HETATM    4  C   UNK N   1       7.749  10.739   0.190  0.00  0.00    -0.056 A 
HETATM    5  C   UNK N   1       7.735  12.005  -0.403  0.00  0.00     0.007 A 
HETATM    6  C   UNK N   1       8.934  12.705  -0.589  0.00  0.00     0.001 A 
HETATM    7  C   UNK N   1      10.148  12.141  -0.184  0.00  0.00     0.000 A 
HETATM    8  C   UNK N   1      10.166  10.883   0.420  0.00  0.00     0.001 A 
HETATM    9  C   UNK N   1       8.970  10.192   0.618  0.00  0.00     0.007 A 
ENDBRANCH   3   4
ENDBRANCH   2   3
BRANCH   2  10
HETATM   10  N   UNK N   1       7.600   7.910  -0.152  0.00  0.00    -0.423 N 
HETATM   11  H   UNK N   1       7.612   6.892  -0.092  0.00  0.00     0.150 HD
HETATM   12  H   UNK N   1       8.477   8.431  -0.152  0.00  0.00     0.150 HD
ENDBRANCH   2  10
ENDBRANCH   1   2
BRANCH   1  13
HETATM   13  C   UNK N   1       5.354   6.323   0.319  0.00  0.00     0.143 C 
HETATM   14  N   UNK N   1       4.433   5.626  -0.276  0.00  0.00    -0.358 N 
ATOM     15  HN  UNK N   1       3.649   6.155  -0.659  1.00  0.00     0.162 HD
BRANCH  14  16
HETATM   16  C   UNK N   1       4.383   4.172  -0.464  0.00  0.00     0.181 C 
BRANCH  16  17
HETATM   17  C   UNK N   1       3.104   3.670   0.225  0.00  0.00     0.040 C 
BRANCH  17  18
HETATM   18  C   UNK N   1       2.859   2.159   0.152  0.00  0.00    -0.020 C 
HETATM   19  C   UNK N   1       1.484   1.854   0.706  0.00  0.00     0.009 C 
HETATM   20  C   UNK N   1       2.958   1.612  -1.261  0.00  0.00     0.009 C 
ENDBRANCH  17  18
ENDBRANCH  16  17
BRANCH  16  21
HETATM   21  C   UNK N   1       5.624   3.407  -0.021  0.00  0.00     0.163 C 
HETATM   22  O   UNK N   1       6.682   3.577  -0.608  0.00  0.00    -0.648 OA
BRANCH  21  23
HETATM   23  O   UNK N   1       5.571   2.527   0.999  0.00  0.00    -0.775 OA
HETATM   24  H   UNK N   1       5.024   2.253   1.708  0.00  0.00     0.167 HD
ENDBRANCH  21  23
ENDBRANCH  16  21
ENDBRANCH  14  16
BRANCH  13  25
HETATM   25  O   UNK N   1       6.431   5.733   0.873  0.00  0.00    -0.348 OA
HETATM   26  H   UNK N   1       6.451   4.879   1.258  0.00  0.00     0.219 HD
ENDBRANCH  13  25
ENDBRANCH   1  13
BRANCH   1  27
HETATM   27  O   UNK N   1       3.963   8.276   0.065  0.00  0.00    -0.385 OA
HETATM   28  H   UNK N   1       3.800   9.188  -0.225  0.00  0.00     0.210 HD
ENDBRANCH   1  27
TORSDOF 12
