REMARK WARNING: 32 MAX_TORS EXCEEDED!!!
REMARK  50 active torsions:
REMARK  status: ('A' for Active; 'I' for Inactive)
REMARK    1  A    between atoms: C_5  and  C_3 
REMARK    2  A    between atoms: C_6  and  C_4 
REMARK    3  A    between atoms: C_7  and  C_5 
REMARK    4  A    between atoms: C_8  and  C_6 
REMARK    5  A    between atoms: C_9  and  C_7 
REMARK    6  A    between atoms: C_10  and  C_8 
REMARK    7  A    between atoms: C_11  and  C_9 
REMARK    8  A    between atoms: C_12  and  C_10 
REMARK    9  A    between atoms: C_13  and  C_11 
REMARK   10  A    between atoms: C_14  and  C_12 
REMARK   11  A    between atoms: C_15  and  C_13 
REMARK   12  A    between atoms: C_16  and  C_14 
REMARK   13  A    between atoms: C_17  and  C_15 
REMARK   14  A    between atoms: C_18  and  C_16 
REMARK   15  A    between atoms: C_19  and  C_17 
REMARK   16  A    between atoms: C_20  and  C_18 
REMARK   17  A    between atoms: C_21  and  C_19 
REMARK   18  A    between atoms: C_22  and  C_20 
REMARK   19  A    between atoms: C_23  and  C_21 
REMARK   20  A    between atoms: C_24  and  C_22 
REMARK   21  A    between atoms: C_25  and  C_23 
REMARK   22  A    between atoms: C_26  and  C_24 
REMARK   23  A    between atoms: C_27  and  C_25 
REMARK   24  A    between atoms: C_28  and  C_26 
REMARK   25  A    between atoms: C_29  and  C_27 
REMARK   26  A    between atoms: C_30  and  C_28 
REMARK   27  A    between atoms: C_31  and  C_29 
REMARK   28  A    between atoms: C_32  and  C_30 
REMARK   29  A    between atoms: C_33  and  C_31 
REMARK   30  A    between atoms: C_34  and  C_32 
REMARK   31  A    between atoms: C_42  and  C_33 
REMARK   32  A    between atoms: C_43  and  C_34 
REMARK   33  A    between atoms: C_40  and  C_35 
REMARK   34  A    between atoms: O_52  and  C_35 
REMARK   35  A    between atoms: C_39  and  C_36 
REMARK   36  A    between atoms: O_61  and  C_36 
REMARK   37  A    between atoms: C_39  and  C_37 
REMARK   38  A    between atoms: O_62  and  C_37 
REMARK   39  A    between atoms: C_41  and  C_38 
REMARK   40  A    between atoms: O_63  and  C_38 
REMARK   41  A    between atoms: C_39  and  O_64 
REMARK   42  A    between atoms: O_61  and  C_42 
REMARK   43  A    between atoms: O_64  and  C_43 
REMARK   44  A    between atoms: C_44  and  O_55 
REMARK   45  A    between atoms: C_45  and  O_56 
REMARK   46  A    between atoms: C_46  and  O_57 
REMARK   47  A    between atoms: C_48  and  O_59 
REMARK   48  A    between atoms: C_49  and  O_60 
REMARK   49  A    between atoms: C_50  and  O_62 
REMARK   50  A    between atoms: C_51  and  O_63 
ROOT
HETATM    1  C   UNK N   1       0.407  -0.272  -0.323  0.00  0.00     0.180 C 
HETATM    2  C   UNK N   1       1.608  -1.241  -0.506  0.00  0.00     0.180 C 
HETATM    3  C   UNK N   1       2.850  -0.685   0.197  0.00  0.00     0.183 C 
HETATM    4  C   UNK N   1       3.089   0.747  -0.285  0.00  0.00     0.204 C 
HETATM    5  C   UNK N   1       1.820   1.584  -0.023  0.00  0.00     0.291 C 
HETATM    6  O   UNK N   1       2.664  -0.692   1.585  0.00  0.00    -0.390 OA
HETATM    7  O   UNK N   1       0.743   1.031  -0.776  0.00  0.00    -0.348 OA
HETATM    8  H   UNK N   1       2.595  -0.583   2.546  0.00  0.00     0.210 HD
ENDROOT
BRANCH   2   9
HETATM    9  O   UNK N   1       1.319  -2.505   0.017  0.00  0.00    -0.390 OA
HETATM   10  H   UNK N   1       0.460  -2.770   0.380  0.00  0.00     0.210 HD
ENDBRANCH   2   9
BRANCH   4  11
HETATM   11  O   UNK N   1       4.188   1.288   0.385  0.00  0.00    -0.388 OA
HETATM   12  H   UNK N   1       4.896   0.814   0.850  0.00  0.00     0.210 HD
ENDBRANCH   4  11
BRANCH   1  13
HETATM   13  C   UNK N   1      -0.814  -0.693  -1.150  0.00  0.00     0.205 C 
BRANCH  13  14
HETATM   14  O   UNK N   1      -0.968  -2.085  -1.256  0.00  0.00    -0.356 OA
BRANCH  14  15
HETATM   15  C   UNK N   1      -1.893  -2.534  -0.296  0.00  0.00     0.291 C 
HETATM   16  C   UNK N   1      -2.029  -4.057  -0.481  0.00  0.00     0.204 C 
HETATM   17  C   UNK N   1      -3.052  -4.598   0.519  0.00  0.00     0.183 C 
HETATM   18  C   UNK N   1      -4.368  -3.834   0.346  0.00  0.00     0.180 C 
HETATM   19  C   UNK N   1      -4.086  -2.325   0.483  0.00  0.00     0.179 C 
HETATM   20  O   UNK N   1      -3.156  -1.912  -0.507  0.00  0.00    -0.348 OA
BRANCH  16  21
HETATM   21  O   UNK N   1      -0.794  -4.681  -0.285  0.00  0.00    -0.388 OA
HETATM   22  H   UNK N   1      -0.741  -5.640  -0.150  0.00  0.00     0.210 HD
ENDBRANCH  16  21
BRANCH  17  23
HETATM   23  O   UNK N   1      -3.254  -5.964   0.309  0.00  0.00    -0.390 OA
HETATM   24  H   UNK N   1      -4.146  -6.317   0.163  0.00  0.00     0.210 HD
ENDBRANCH  17  23
BRANCH  18  25
HETATM   25  O   UNK N   1      -5.287  -4.250   1.314  0.00  0.00    -0.390 OA
HETATM   26  H   UNK N   1      -5.856  -3.842   1.985  0.00  0.00     0.210 HD
ENDBRANCH  18  25
BRANCH  19  27
HETATM   27  C   UNK N   1      -5.378  -1.542   0.293  0.00  0.00     0.198 C 
BRANCH  27  28
HETATM   28  O   UNK N   1      -5.143  -0.177   0.455  0.00  0.00    -0.398 OA
HETATM   29  H   UNK N   1      -4.239   0.156   0.568  0.00  0.00     0.209 HD
ENDBRANCH  27  28
ENDBRANCH  19  27
ENDBRANCH  14  15
ENDBRANCH  13  14
ENDBRANCH   1  13
BRANCH   5  30
HETATM   30  O   UNK N   1       2.103   2.929  -0.373  0.00  0.00    -0.356 OA
BRANCH  30  31
HETATM   31  C   UNK N   1       1.033   3.563  -1.024  0.00  0.00     0.205 C 
BRANCH  31  32
HETATM   32  C   UNK N   1       0.300   4.602  -0.166  0.00  0.00     0.180 C 
BRANCH  32  33
HETATM   33  C   UNK N   1      -0.825   3.970   0.657  0.00  0.00     0.213 C 
BRANCH  33  34
HETATM   34  O   UNK N   1      -1.914   4.813   0.695  0.00  0.00    -0.319 OA
BRANCH  34  35
HETATM   35  C   UNK N   1      -2.858   4.790  -0.282  0.00  0.00     0.258 C 
HETATM   36  O   UNK N   1      -3.759   5.613  -0.262  0.00  0.00    -0.265 OA
BRANCH  35  37
HETATM   37  C   UNK N   1      -2.780   3.762  -1.393  0.00  0.00     0.111 C 
BRANCH  37  38
HETATM   38  C   UNK N   1      -3.926   3.829  -2.392  0.00  0.00     0.010 C 
BRANCH  38  39
HETATM   39  C   UNK N   1      -5.053   2.889  -1.994  0.00  0.00     0.000 C 
BRANCH  39  40
HETATM   40  C   UNK N   1      -5.871   3.489  -0.869  0.00  0.00     0.000 C 
BRANCH  40  41
HETATM   41  C   UNK N   1      -5.447   2.905   0.467  0.00  0.00     0.000 C 
BRANCH  41  42
HETATM   42  C   UNK N   1      -6.081   3.679   1.614  0.00  0.00     0.000 C 
BRANCH  42  43
HETATM   43  C   UNK N   1      -7.502   3.213   1.908  0.00  0.00     0.000 C 
BRANCH  43  44
HETATM   44  C   UNK N   1      -8.475   3.743   0.871  0.00  0.00     0.000 C 
BRANCH  44  45
HETATM   45  C   UNK N   1      -8.774   2.666  -0.157  0.00  0.00     0.000 C 
BRANCH  45  46
HETATM   46  C   UNK N   1      -9.278   3.300  -1.444  0.00  0.00     0.000 C 
BRANCH  46  47
HETATM   47  C   UNK N   1     -10.796   3.395  -1.476  0.00  0.00     0.000 C 
BRANCH  47  48
HETATM   48  C   UNK N   1     -11.310   4.487  -0.553  0.00  0.00     0.000 C 
BRANCH  48  49
HETATM   49  C   UNK N   1     -11.677   3.893   0.797  0.00  0.00     0.000 C 
BRANCH  49  50
HETATM   50  C   UNK N   1     -13.132   4.173   1.117  0.00  0.00     0.000 C 
BRANCH  50  51
HETATM   51  C   UNK N   1     -14.033   3.301   0.263  0.00  0.00    -0.000 C 
BRANCH  51  52
HETATM   52  C   UNK N   1     -15.474   3.707   0.476  0.00  0.00    -0.005 C 
HETATM   53  C   UNK N   1     -16.370   2.847  -0.389  0.00  0.00     0.005 C 
ENDBRANCH  51  52
ENDBRANCH  50  51
ENDBRANCH  49  50
ENDBRANCH  48  49
ENDBRANCH  47  48
ENDBRANCH  46  47
ENDBRANCH  45  46
ENDBRANCH  44  45
ENDBRANCH  43  44
ENDBRANCH  42  43
ENDBRANCH  41  42
ENDBRANCH  40  41
ENDBRANCH  39  40
ENDBRANCH  38  39
ENDBRANCH  37  38
ENDBRANCH  35  37
ENDBRANCH  34  35
ENDBRANCH  33  34
ENDBRANCH  32  33
BRANCH  32  54
HETATM   54  O   UNK N   1       1.144   5.389   0.609  0.00  0.00    -0.312 OA
BRANCH  54  55
HETATM   55  C   UNK N   1       1.760   5.001   1.762  0.00  0.00     0.259 C 
HETATM   56  O   UNK N   1       1.533   3.910   2.264  0.00  0.00    -0.265 OA
BRANCH  55  57
HETATM   57  C   UNK N   1       2.687   5.950   2.455  0.00  0.00     0.111 C 
BRANCH  57  58
HETATM   58  C   UNK N   1       4.086   5.365   2.605  0.00  0.00     0.010 C 
BRANCH  58  59
HETATM   59  C   UNK N   1       4.853   5.461   1.300  0.00  0.00     0.000 C 
BRANCH  59  60
HETATM   60  C   UNK N   1       4.509   4.288   0.410  0.00  0.00     0.000 C 
BRANCH  60  61
HETATM   61  C   UNK N   1       4.898   4.597  -1.020  0.00  0.00     0.000 C 
BRANCH  61  62
HETATM   62  C   UNK N   1       5.799   3.510  -1.576  0.00  0.00     0.000 C 
BRANCH  62  63
HETATM   63  C   UNK N   1       7.200   3.624  -0.999  0.00  0.00     0.000 C 
BRANCH  63  64
HETATM   64  C   UNK N   1       7.394   2.614   0.117  0.00  0.00     0.000 C 
BRANCH  64  65
HETATM   65  C   UNK N   1       7.421   3.318   1.463  0.00  0.00     0.000 C 
BRANCH  65  66
HETATM   66  C   UNK N   1       8.668   2.943   2.249  0.00  0.00     0.000 C 
BRANCH  66  67
HETATM   67  C   UNK N   1       9.879   3.714   1.746  0.00  0.00     0.000 C 
BRANCH  67  68
HETATM   68  C   UNK N   1      10.424   3.066   0.489  0.00  0.00     0.000 C 
BRANCH  68  69
HETATM   69  C   UNK N   1      11.472   3.959  -0.130  0.00  0.00     0.000 C 
BRANCH  69  70
HETATM   70  C   UNK N   1      12.026   3.283  -1.368  0.00  0.00     0.000 C 
BRANCH  70  71
HETATM   71  C   UNK N   1      13.453   3.735  -1.609  0.00  0.00    -0.000 C 
BRANCH  71  72
HETATM   72  C   UNK N   1      14.378   3.096  -0.588  0.00  0.00    -0.005 C 
HETATM   73  C   UNK N   1      15.111   4.177   0.178  0.00  0.00     0.005 C 
ENDBRANCH  71  72
ENDBRANCH  70  71
ENDBRANCH  69  70
ENDBRANCH  68  69
ENDBRANCH  67  68
ENDBRANCH  66  67
ENDBRANCH  65  66
ENDBRANCH  64  65
ENDBRANCH  63  64
ENDBRANCH  62  63
ENDBRANCH  61  62
ENDBRANCH  60  61
ENDBRANCH  59  60
ENDBRANCH  58  59
ENDBRANCH  57  58
ENDBRANCH  55  57
ENDBRANCH  54  55
ENDBRANCH  32  54
ENDBRANCH  31  32
ENDBRANCH  30  31
ENDBRANCH   5  30
TORSDOF 50
