REMARK  4 active torsions:
REMARK  status: ('A' for Active; 'I' for Inactive)
REMARK    1  A    between atoms: O_2  and  C_3 
REMARK    2  A    between atoms: C_5  and  O_6 
REMARK    3  A    between atoms: O_6  and  O_7 
REMARK    4  A    between atoms: C_10  and  O_11 
ROOT
HETATM    1  C   UNK N   1       1.631   1.019  -0.000  0.00  0.00     0.104 A 
HETATM    2  C   UNK N   1       1.624  -0.377  -0.000  0.00  0.00     0.079 A 
HETATM    3  C   UNK N   1       0.425  -1.096  -0.000  0.00  0.00     0.109 A 
HETATM    4  C   UNK N   1      -0.792  -0.411  -0.000  0.00  0.00     0.043 A 
HETATM    5  C   UNK N   1      -0.808   0.987   0.000  0.00  0.00     0.042 A 
HETATM    6  C   UNK N   1       0.390   1.709   0.000  0.00  0.00     0.099 A 
ENDROOT
BRANCH   3   7
HETATM    7  O   UNK N   1       0.436  -2.445   0.000  0.00  0.00    -0.200 OA
BRANCH   7   8
HETATM    8  O   UNK N   1       1.550  -3.105   0.000  0.00  0.00    -0.245 OA
HETATM    9  H   UNK N   1       1.539  -4.075   0.000  0.00  0.00     0.254 HD
ENDBRANCH   7   8
ENDBRANCH   3   7
BRANCH   1  10
HETATM   10  O   UNK N   1       2.841   1.634  -0.000  0.00  0.00    -0.353 OA
HETATM   11  C   UNK N   1       3.047   2.993  -0.000  0.00  0.00     0.210 C 
ENDBRANCH   1  10
BRANCH   6  12
HETATM   12  O   UNK N   1       0.335   3.053   0.000  0.00  0.00    -0.358 OA
HETATM   13  H   UNK N   1       1.127   3.554   0.000  0.00  0.00     0.217 HD
ENDBRANCH   6  12
TORSDOF 4
