REMARK  7 active torsions:
REMARK  status: ('A' for Active; 'I' for Inactive)
REMARK    1  A    between atoms: N_26  and  Os_1 
REMARK    2  A    between atoms: C_6  and  C_7 
REMARK    3  A    between atoms: C_8  and  N_14 
REMARK    4  A    between atoms: C_13  and  N_14 
REMARK    5  A    between atoms: C_19  and  C_20 
REMARK    6  A    between atoms: C_21  and  N_26 
REMARK    7  A    between atoms: C_29  and  N_30 
ROOT
HETATM    1 Os   UNK N   1       0.009   0.253   0.000  0.00  0.00     0.000 Os
HETATM    2  N   UNK N   1       0.794   0.508   0.000  0.00  0.00    -0.259 N 
HETATM    3  C   UNK N   1       1.129   1.261   0.000  0.00  0.00     0.117 A 
HETATM    4  C   UNK N   1       1.950   1.348   0.000  0.00  0.00     0.019 A 
HETATM    5  C   UNK N   1       2.435   0.680   0.000  0.00  0.00     0.004 A 
HETATM    6  C   UNK N   1       2.099  -0.073   0.000  0.00  0.00     0.034 A 
HETATM    7  C   UNK N   1       1.279  -0.160   0.000  0.00  0.00     0.085 A 
HETATM    8  C   UNK N   1       0.794  -0.827   0.000  0.00  0.00     0.085 A 
HETATM    9  C   UNK N   1       0.965  -1.634   0.000  0.00  0.00     0.034 A 
HETATM   10  C   UNK N   1       0.676   1.563   0.000  0.00  0.00     0.135 A 
HETATM   11  C   UNK N   1       0.254  -2.250   0.000  0.00  0.00     0.004 A 
HETATM   12  C   UNK N   1      -0.496  -1.833   0.000  0.00  0.00     0.019 A 
HETATM   13  C   UNK N   1      -0.604  -1.124   0.000  0.00  0.00     0.117 A 
HETATM   14  N   UNK N   1      -0.182  -0.279   0.000  0.00  0.00    -0.259 N 
HETATM   15  N   UNK N   1       0.009  -0.572   0.000  0.00  0.00    -0.259 N 
HETATM   16  C   UNK N   1       0.622  -1.124   0.000  0.00  0.00     0.117 A 
HETATM   17  C   UNK N   1       0.451  -1.931   0.000  0.00  0.00     0.019 A 
HETATM   18  C   UNK N   1      -0.334  -2.186   0.000  0.00  0.00     0.004 A 
HETATM   19  C   UNK N   1      -0.947  -1.634   0.000  0.00  0.00     0.034 A 
HETATM   20  C   UNK N   1      -0.776  -0.827   0.000  0.00  0.00     0.085 A 
HETATM   21  C   UNK N   1      -1.260  -0.160   0.000  0.00  0.00     0.085 A 
HETATM   22  C   UNK N   1      -2.081  -0.073   0.000  0.00  0.00     0.034 A 
HETATM   23  C   UNK N   1      -2.417   0.680   0.000  0.00  0.00     0.004 A 
HETATM   24  C   UNK N   1      -1.932   1.348   0.000  0.00  0.00     0.019 A 
HETATM   25  C   UNK N   1      -1.111   1.261   0.000  0.00  0.00     0.117 A 
HETATM   26  N   UNK N   1      -0.776   0.508   0.000  0.00  0.00    -0.259 N 
HETATM   27  N   UNK N   1       0.009   1.078   0.000  0.00  0.00    -0.255 N 
HETATM   28  C   UNK N   1       0.421   2.347   0.000  0.00  0.00     0.108 A 
HETATM   29  C   UNK N   1      -0.658   1.563   0.000  0.00  0.00     0.206 A 
HETATM   30  N   UNK N   1      -0.404   2.347   0.000  0.00  0.00    -0.359 N 
ATOM     31  HN  UNK N   1      -1.003   3.172   0.000  1.00  0.00     0.166 HD
ENDROOT
TORSDOF 7
