REMARK  2 active torsions:
REMARK  status: ('A' for Active; 'I' for Inactive)
REMARK    1  A    between atoms: C_6  and  O_7 
REMARK    2  A    between atoms: C_8  and  O_9 
ROOT
HETATM    1  C   UNK N   1       3.234   1.555  -0.000  0.00  0.00     0.051 C 
HETATM    2  C   UNK N   1       1.922   0.847   0.000  0.00  0.00    -0.026 A 
HETATM    3  C   UNK N   1       1.907  -0.550   0.000  0.00  0.00     0.010 A 
HETATM    4  C   UNK N   1       0.694  -1.241   0.000  0.00  0.00     0.003 A 
HETATM    5  C   UNK N   1      -0.512  -0.536   0.000  0.00  0.00     0.039 A 
HETATM    6  C   UNK N   1      -0.508   0.862  -0.000  0.00  0.00     0.099 A 
HETATM    7  C   UNK N   1       0.709   1.562  -0.000  0.00  0.00     0.104 A 
ENDROOT
BRANCH   6   8
HETATM    8  O   UNK N   1      -1.676   1.528  -0.000  0.00  0.00    -0.358 OA
HETATM    9  H   UNK N   1      -1.681   2.465  -0.000  0.00  0.00     0.217 HD
ENDBRANCH   6   8
BRANCH   7  10
HETATM   10  O   UNK N   1       0.709   2.908  -0.000  0.00  0.00    -0.357 OA
HETATM   11  H   UNK N   1       1.521   3.376  -0.000  0.00  0.00     0.217 HD
ENDBRANCH   7  10
TORSDOF 2
