REMARK  6 active torsions:
REMARK  status: ('A' for Active; 'I' for Inactive)
REMARK    1  A    between atoms: C_4  and  O_10 
REMARK    2  A    between atoms: C_5  and  O_11 
REMARK    3  A    between atoms: C_7  and  C_6 
REMARK    4  A    between atoms: O_13  and  C_6 
REMARK    5  A    between atoms: C_7  and  O_14 
REMARK    6  A    between atoms: O_15  and  N_8 
ROOT
HETATM    1  C   UNK N   1       1.265   0.052  -1.303  0.00  0.00     0.106 C 
HETATM    2  C   UNK N   1      -0.491  -0.044   0.579  0.00  0.00     0.084 C 
HETATM    3  C   UNK N   1       1.726   1.275  -0.564  0.00  0.00     0.044 C 
HETATM    4  C   UNK N   1      -0.678   1.410   0.127  0.00  0.00     0.156 C 
HETATM    5  C   UNK N   1       0.696   2.102   0.181  0.00  0.00     0.194 C 
HETATM    6  C   UNK N   1       0.395  -0.852  -0.405  0.00  0.00     0.150 C 
HETATM    7  N   UNK N   1       2.981   1.566  -0.535  0.00  0.00    -0.275 N 
ATOM      8  HN  UNK N   1       3.642   0.980  -1.045  1.00  0.00     0.193 HD
ENDROOT
BRANCH   6   9
HETATM    9  C   UNK N   1       1.286  -1.793   0.365  0.00  0.00     0.176 C 
HETATM   10  O   UNK N   1       2.127  -1.354   1.135  0.00  0.00    -0.648 OA
BRANCH   9  11
HETATM   11  O   UNK N   1       1.176  -3.126   0.195  0.00  0.00    -0.774 OA
HETATM   12  H   UNK N   1       0.336  -3.523   0.077  0.00  0.00     0.167 HD
ENDBRANCH   9  11
ENDBRANCH   6   9
BRANCH   6  13
HETATM   13  O   UNK N   1      -0.450  -1.589  -1.236  0.00  0.00    -0.378 OA
HETATM   14  H   UNK N   1      -1.188  -1.337  -1.813  0.00  0.00     0.211 HD
ENDBRANCH   6  13
BRANCH   4  15
HETATM   15  O   UNK N   1      -1.579   2.062   0.971  0.00  0.00    -0.393 OA
HETATM   16  H   UNK N   1      -1.500   2.830   1.557  0.00  0.00     0.210 HD
ENDBRANCH   4  15
BRANCH   5  17
HETATM   17  O   UNK N   1       0.614   3.386  -0.364  0.00  0.00    -0.387 OA
HETATM   18  H   UNK N   1       1.357   3.880  -0.743  0.00  0.00     0.210 HD
ENDBRANCH   5  17
BRANCH   7  19
HETATM   19  O   UNK N   1       3.428   2.602   0.141  0.00  0.00    -0.290 OA
HETATM   20  H   UNK N   1       4.226   2.695   0.622  0.00  0.00     0.244 HD
ENDBRANCH   7  19
TORSDOF 6
