REMARK  11 active torsions:
REMARK  status: ('A' for Active; 'I' for Inactive)
REMARK    1  A    between atoms: C_10  and  C_9 
REMARK    2  A    between atoms: C_19  and  C_9 
REMARK    3  A    between atoms: C_20  and  C_10 
REMARK    4  A    between atoms: C_21  and  C_16 
REMARK    5  A    between atoms: C_23  and  C_16 
REMARK    6  A    between atoms: C_22  and  C_17 
REMARK    7  A    between atoms: C_24  and  C_17 
REMARK    8  A    between atoms: C_25  and  C_23 
REMARK    9  A    between atoms: C_23  and  N_30 
REMARK   10  A    between atoms: C_24  and  O_33 
REMARK   11  A    between atoms: O_35  and  C_25 
REMARK       I    between atoms: N_29  and  C_26 
REMARK       I    between atoms: N_32  and  C_26 
ROOT
HETATM    1  C   UNK N   1       2.691  -1.530   0.319  0.00  0.00     0.184 C 
ENDROOT
BRANCH   1   2
HETATM    2  C   UNK N   1       1.318  -1.574   1.067  0.00  0.00     0.047 C 
BRANCH   2   3
HETATM    3  C   UNK N   1       0.014  -1.915   0.323  0.00  0.00     0.033 C 
HETATM    4  C   UNK N   1       0.288  -2.318  -0.992  0.00  0.00    -0.017 C 
HETATM    5  C   UNK N   1       0.926  -3.543  -1.118  0.00  0.00     0.016 C 
HETATM    6  C   UNK N   1       0.916  -4.376   0.002  0.00  0.00     0.009 C 
HETATM    7  C   UNK N   1       0.014  -4.148   1.050  0.00  0.00     0.016 C 
HETATM    8  C   UNK N   1      -0.594  -2.900   1.096  0.00  0.00    -0.017 C 
BRANCH   6   9
HETATM    9  C   UNK N   1       1.696  -5.501   0.009  0.00  0.00    -0.116 C 
BRANCH   9  10
HETATM   10  C   UNK N   1       2.322  -6.488   0.099  0.00  0.00     0.068 C 
BRANCH  10  11
HETATM   11  C   UNK N   1       2.062  -7.843   0.115  0.00  0.00    -0.029 A 
HETATM   12  C   UNK N   1       3.020  -8.822  -0.079  0.00  0.00     0.012 A 
HETATM   13  C   UNK N   1       2.578 -10.126  -0.319  0.00  0.00     0.001 A 
HETATM   14  C   UNK N   1       1.203 -10.419  -0.359  0.00  0.00     0.000 A 
HETATM   15  C   UNK N   1       0.260  -9.422  -0.130  0.00  0.00     0.001 A 
HETATM   16  C   UNK N   1       0.697  -8.140   0.094  0.00  0.00     0.012 A 
ENDBRANCH  10  11
ENDBRANCH   9  10
ENDBRANCH   6   9
ENDBRANCH   2   3
ENDBRANCH   1   2
BRANCH   1  17
HETATM   17  C   UNK N   1       3.684  -2.660   0.252  0.00  0.00     0.281 C 
HETATM   18  O   UNK N   1       3.788  -3.277  -0.802  0.00  0.00    -0.263 OA
BRANCH  17  19
HETATM   19  O   UNK N   1       4.755  -2.587   1.078  0.00  0.00    -0.325 OA
HETATM   20  C   UNK N   1       6.040  -2.693   0.598  0.00  0.00     0.213 C 
ENDBRANCH  17  19
ENDBRANCH   1  17
BRANCH   1  21
HETATM   21  N   UNK N   1       3.318  -0.385   0.872  0.00  0.00    -0.361 N 
HETATM   22  C   UNK N   1       3.905   0.460   0.117  0.00  0.00     0.112 C 
ATOM     23  HN  UNK N   1       3.301  -0.236   1.881  1.00  0.00     0.162 HD
BRANCH  22  24
HETATM   24  C   UNK N   1       3.279   1.820   0.092  0.00  0.00     0.090 C 
BRANCH  24  25
HETATM   25  C   UNK N   1       1.817   1.748   0.639  0.00  0.00     0.012 C 
HETATM   26  C   UNK N   1       0.745   1.003  -0.212  0.00  0.00     0.008 C 
HETATM   27  C   UNK N   1      -0.227   1.852  -1.041  0.00  0.00     0.021 C 
HETATM   28  C   UNK N   1      -0.606   3.140  -0.317  0.00  0.00     0.141 C 
HETATM   29  N   UNK N   1       0.613   3.761   0.138  0.00  0.00    -0.218 N 
HETATM   30  C   UNK N   1       1.386   3.083   1.122  0.00  0.00     0.146 C 
HETATM   31  C   UNK N   1       0.956   5.090  -0.187  0.00  0.00     0.667 C 
HETATM   32  N   UNK N   1       0.030   5.962  -0.321  0.00  0.00    -0.235 N 
HETATM   33  N   UNK N   1       2.297   5.519  -0.048  0.00  0.00    -0.235 N 
HETATM   34  H   UNK N   1       0.254   6.915  -0.425  0.00  0.00     0.174 HD
ATOM     35  HN  UNK N   1      -0.947   5.669  -0.321  1.00  0.00     0.174 HD
HETATM   36  H   UNK N   1       3.022   4.860   0.048  0.00  0.00     0.174 HD
HETATM   37  H   UNK N   1       2.507   6.481  -0.048  0.00  0.00     0.174 HD
ENDBRANCH  24  25
ENDBRANCH  22  24
BRANCH  22  38
HETATM   38  O   UNK N   1       4.607   0.040  -0.955  0.00  0.00    -0.350 OA
HETATM   39  H   UNK N   1       4.598  -0.528  -1.700  0.00  0.00     0.219 HD
ENDBRANCH  22  38
ENDBRANCH   1  21
TORSDOF 11
