REMARK  17 active torsions:
REMARK  status: ('A' for Active; 'I' for Inactive)
REMARK    1  A    between atoms: C_5  and  C_3 
REMARK    2  A    between atoms: O_20  and  C_3 
REMARK    3  A    between atoms: C_6  and  C_4 
REMARK    4  A    between atoms: O_31  and  C_4 
REMARK    5  A    between atoms: O_21  and  C_7 
REMARK    6  A    between atoms: C_9  and  O_22 
REMARK    7  A    between atoms: C_10  and  O_23 
REMARK    8  A    between atoms: C_11  and  O_24 
REMARK    9  A    between atoms: C_12  and  O_25 
REMARK   10  A    between atoms: C_13  and  N_19 
REMARK   11  A    between atoms: C_14  and  O_34 
REMARK   12  A    between atoms: P_36  and  O_27 
REMARK   13  A    between atoms: P_37  and  O_29 
REMARK   14  A    between atoms: P_36  and  O_31 
REMARK   15  A    between atoms: P_37  and  O_34 
REMARK   16  A    between atoms: P_36  and  O_35 
REMARK   17  A    between atoms: P_37  and  O_35 
ROOT
HETATM    1  O   UNK N   1       2.430   6.204  -2.118  0.00  0.00    -0.631 OA
HETATM    2  P   UNK N   1       2.351   7.589  -1.417  0.00  0.00     0.401 P 
ENDROOT
BRANCH   2   3
HETATM    3  O   UNK N   1       2.952   8.722  -2.586  0.00  0.00    -0.307 OA
HETATM    4  H   UNK N   1       3.668   8.748  -3.240  0.00  0.00     0.222 HD
ENDBRANCH   2   3
BRANCH   2   5
HETATM    5  O   UNK N   1       0.674   7.887  -1.068  0.00  0.00    -0.294 OA
BRANCH   5   6
HETATM    6  C   UNK N   1       0.243   6.731  -0.422  0.00  0.00     0.215 C 
BRANCH   6   7
HETATM    7  C   UNK N   1      -1.223   6.472  -0.684  0.00  0.00     0.180 C 
HETATM    8  C   UNK N   1      -2.130   7.579  -0.144  0.00  0.00     0.182 C 
HETATM    9  C   UNK N   1      -3.407   6.792  -0.120  0.00  0.00     0.198 C 
HETATM   10  C   UNK N   1      -2.888   5.489   0.506  0.00  0.00     0.263 C 
HETATM   11  O   UNK N   1      -1.609   5.264  -0.060  0.00  0.00    -0.353 OA
BRANCH   8  12
HETATM   12  O   UNK N   1      -1.753   7.938   1.159  0.00  0.00    -0.390 OA
HETATM   13  H   UNK N   1      -1.407   7.837   2.059  0.00  0.00     0.210 HD
ENDBRANCH   8  12
BRANCH   9  14
HETATM   14  O   UNK N   1      -4.412   7.403   0.634  0.00  0.00    -0.388 OA
HETATM   15  H   UNK N   1      -4.393   8.220   1.158  0.00  0.00     0.210 HD
ENDBRANCH   9  14
BRANCH  10  16
HETATM   16  N   UNK N   1      -3.714   4.265   0.376  0.00  0.00    -0.280 N 
HETATM   17  C   UNK N   1      -3.199   3.145   0.964  0.00  0.00     0.103 A 
HETATM   18  C   UNK N   1      -3.863   1.925   0.910  0.00  0.00     0.073 A 
HETATM   19  C   UNK N   1      -5.073   1.855   0.239  0.00  0.00     0.144 A 
HETATM   20  N   UNK N   1      -5.590   2.964  -0.341  0.00  0.00    -0.289 N 
HETATM   21  C   UNK N   1      -4.936   4.169  -0.284  0.00  0.00     0.330 A 
ATOM     22  HN  UNK N   1      -6.483   2.903  -0.830  1.00  0.00     0.172 HD
HETATM   23  O   UNK N   1      -5.447   5.133  -0.818  0.00  0.00    -0.246 OA
BRANCH  19  24
HETATM   24  O   UNK N   1      -5.734   0.688   0.166  0.00  0.00    -0.346 OA
HETATM   25  H   UNK N   1      -6.669   0.680   0.115  0.00  0.00     0.219 HD
ENDBRANCH  19  24
ENDBRANCH  10  16
ENDBRANCH   6   7
ENDBRANCH   5   6
ENDBRANCH   2   5
BRANCH   2  26
HETATM   26  O   UNK N   1       3.380   7.495  -0.005  0.00  0.00    -0.195 OA
BRANCH  26  27
HETATM   27  P   UNK N   1       2.644   8.421   1.284  0.00  0.00     0.404 P 
HETATM   28  O   UNK N   1       3.715   8.521   2.404  0.00  0.00    -0.631 OA
BRANCH  27  29
HETATM   29  O   UNK N   1       1.329   7.579   2.040  0.00  0.00    -0.307 OA
HETATM   30  H   UNK N   1       0.554   7.981   2.463  0.00  0.00     0.222 HD
ENDBRANCH  27  29
BRANCH  27  31
HETATM   31  O   UNK N   1       2.198  10.067   0.859  0.00  0.00    -0.262 OA
BRANCH  31  32
HETATM   32  C   UNK N   1       3.303  10.707   0.264  0.00  0.00     0.308 C 
HETATM   33  C   UNK N   1       2.919  12.150  -0.146  0.00  0.00     0.256 C 
HETATM   34  C   UNK N   1       4.188  13.019  -0.347  0.00  0.00     0.188 C 
HETATM   35  F   UNK N   1       2.179  12.070  -1.316  0.00  0.00    -0.241 F 
HETATM   36  C   UNK N   1       5.361  12.121  -0.742  0.00  0.00     0.180 C 
HETATM   37  C   UNK N   1       5.605  11.166   0.471  0.00  0.00     0.179 C 
HETATM   38  O   UNK N   1       4.416  10.731   1.136  0.00  0.00    -0.348 OA
BRANCH  34  39
HETATM   39  O   UNK N   1       3.956  14.025  -1.288  0.00  0.00    -0.390 OA
HETATM   40  H   UNK N   1       4.481  14.514  -1.942  0.00  0.00     0.210 HD
ENDBRANCH  34  39
BRANCH  36  41
HETATM   41  O   UNK N   1       6.513  12.869  -1.000  0.00  0.00    -0.390 OA
HETATM   42  H   UNK N   1       7.362  12.436  -1.180  0.00  0.00     0.210 HD
ENDBRANCH  36  41
BRANCH  37  43
HETATM   43  C   UNK N   1       6.504   9.983   0.112  0.00  0.00     0.198 C 
BRANCH  43  44
HETATM   44  O   UNK N   1       5.881   9.136  -0.807  0.00  0.00    -0.398 OA
HETATM   45  H   UNK N   1       5.155   9.216  -1.445  0.00  0.00     0.209 HD
ENDBRANCH  43  44
ENDBRANCH  37  43
ENDBRANCH  31  32
ENDBRANCH  27  31
ENDBRANCH  26  27
ENDBRANCH   2  26
TORSDOF 17
