REMARK  16 active torsions:
REMARK  status: ('A' for Active; 'I' for Inactive)
REMARK    1  A    between atoms: O_1  and  C_2 
REMARK    2  A    between atoms: C_2  and  C_3 
REMARK    3  A    between atoms: C_3  and  O_4 
REMARK    4  A    between atoms: C_3  and  C_5 
REMARK    5  A    between atoms: C_5  and  O_6 
REMARK    6  A    between atoms: C_5  and  C_7 
REMARK    7  A    between atoms: C_7  and  O_8 
REMARK    8  A    between atoms: C_7  and  C_9 
REMARK    9  A    between atoms: C_9  and  N_10 
REMARK   10  A    between atoms: N_13  and  C_14 
REMARK   11  A    between atoms: C_14  and  C_15 
REMARK   12  A    between atoms: C_15  and  C_16 
REMARK   13  A    between atoms: C_16  and  O_17 
REMARK   14  A    between atoms: O_17  and  P_18 
REMARK   15  A    between atoms: P_18  and  O_19 
REMARK   16  A    between atoms: P_18  and  O_20 
ROOT
HETATM    1  N   UNK N   1      -0.435  -3.354  -0.142  0.00  0.00    -0.280 N 
HETATM    2  C   UNK N   1       0.845  -2.935  -0.356  0.00  0.00     0.331 A 
HETATM    3  O   UNK N   1       1.785  -3.691  -0.527  0.00  0.00    -0.246 OA
HETATM    4  N   UNK N   1       0.941  -1.570  -0.371  0.00  0.00    -0.291 N 
HETATM    5  C   UNK N   1      -0.316  -1.136  -0.165  0.00  0.00     0.152 A 
HETATM    6  C   UNK N   1      -1.144  -2.209  -0.019  0.00  0.00     0.148 A 
HETATM    7  N   UNK N   1      -2.471  -2.072   0.215  0.00  0.00    -0.292 N 
HETATM    8  C   UNK N   1      -2.992  -0.796   0.300  0.00  0.00     0.328 A 
HETATM    9  O   UNK N   1      -4.180  -0.638   0.512  0.00  0.00    -0.247 OA
HETATM   10  N   UNK N   1      -2.169   0.307   0.145  0.00  0.00    -0.273 N 
HETATM   11  C   UNK N   1      -0.822   0.156  -0.089  0.00  0.00     0.280 A 
HETATM   12  O   UNK N   1      -0.104   1.130  -0.224  0.00  0.00    -0.265 OA
HETATM   13  H   UNK N   1      -3.050  -2.861   0.321  0.00  0.00     0.172 HD
HETATM   14  H   UNK N   1      -2.553   1.212   0.203  0.00  0.00     0.173 HD
ENDROOT
BRANCH   1  15
HETATM   15  C   UNK N   1      -0.852  -4.757  -0.084  0.00  0.00     0.170 C 
BRANCH  15  16
HETATM   16  C   UNK N   1      -2.344  -4.960  -0.302  0.00  0.00     0.168 C 
BRANCH  16  17
HETATM   17  C   UNK N   1      -2.702  -6.441  -0.181  0.00  0.00     0.179 C 
BRANCH  17  18
HETATM   18  C   UNK N   1      -4.217  -6.630  -0.260  0.00  0.00     0.173 C 
BRANCH  18  19
HETATM   19  C   UNK N   1      -4.569  -8.108  -0.197  0.00  0.00     0.198 C 
BRANCH  19  20
HETATM   20  O   UNK N   1      -5.953  -8.273  -0.240  0.00  0.00    -0.398 OA
HETATM   21  H   UNK N   1      -6.534  -7.497  -0.270  0.00  0.00     0.209 HD
ENDBRANCH  19  20
ENDBRANCH  18  19
BRANCH  18  22
HETATM   22  O   UNK N   1      -4.842  -5.949   0.788  0.00  0.00    -0.391 OA
HETATM   23  H   UNK N   1      -4.649  -5.336   1.515  0.00  0.00     0.210 HD
ENDBRANCH  18  22
ENDBRANCH  17  18
BRANCH  17  24
HETATM   24  O   UNK N   1      -2.220  -6.961   1.025  0.00  0.00    -0.390 OA
HETATM   25  H   UNK N   1      -2.365  -7.431   1.861  0.00  0.00     0.210 HD
ENDBRANCH  17  24
ENDBRANCH  16  17
BRANCH  16  26
HETATM   26  O   UNK N   1      -2.691  -4.500  -1.575  0.00  0.00    -0.391 OA
HETATM   27  H   UNK N   1      -2.536  -4.132  -2.458  0.00  0.00     0.210 HD
ENDBRANCH  16  26
ENDBRANCH  15  16
ENDBRANCH   1  15
BRANCH   4  28
HETATM   28  C   UNK N   1       2.132  -0.754  -0.567  0.00  0.00     0.136 C 
BRANCH  28  29
HETATM   29  C   UNK N   1       3.022  -0.801   0.665  0.00  0.00     0.047 C 
BRANCH  29  30
HETATM   30  C   UNK N   1       3.817  -2.094   0.697  0.00  0.00     0.182 C 
BRANCH  30  31
HETATM   31  O   UNK N   1       5.028  -1.881   1.354  0.00  0.00    -0.297 OA
BRANCH  31  32
HETATM   32  P   UNK N   1       6.204  -1.578   0.100  0.00  0.00     0.390 P 
HETATM   33  O   UNK N   1       5.546  -0.720  -1.017  0.00  0.00    -0.632 OA
BRANCH  32  34
HETATM   34  O   UNK N   1       7.520  -0.636   0.723  0.00  0.00    -0.307 OA
HETATM   35  H   UNK N   1       8.344  -1.010   1.071  0.00  0.00     0.222 HD
ENDBRANCH  32  34
BRANCH  32  36
HETATM   36  O   UNK N   1       6.776  -3.044  -0.632  0.00  0.00    -0.307 OA
HETATM   37  H   UNK N   1       6.227  -3.730  -1.042  0.00  0.00     0.222 HD
ENDBRANCH  32  36
ENDBRANCH  31  32
ENDBRANCH  30  31
ENDBRANCH  29  30
ENDBRANCH  28  29
ENDBRANCH   4  28
TORSDOF 16
