REMARK  26 active torsions:
REMARK  status: ('A' for Active; 'I' for Inactive)
REMARK    1  A    between atoms: C_5  and  C_3 
REMARK    2  A    between atoms: C_6  and  C_4 
REMARK    3  A    between atoms: C_7  and  C_5 
REMARK    4  A    between atoms: C_8  and  C_6 
REMARK    5  A    between atoms: C_9  and  C_7 
REMARK    6  A    between atoms: C_11  and  C_8 
REMARK    7  A    between atoms: C_10  and  C_9 
REMARK    8  A    between atoms: C_12  and  C_10 
REMARK    9  A    between atoms: C_13  and  C_11 
REMARK   10  A    between atoms: C_15  and  C_12 
REMARK   11  A    between atoms: C_17  and  C_13 
REMARK   12  A    between atoms: C_16  and  C_14 
REMARK   13  A    between atoms: N_21  and  C_14 
REMARK   14  A    between atoms: O_26  and  C_15 
REMARK   15  A    between atoms: O_27  and  C_16 
REMARK   16  A    between atoms: P_30  and  C_17 
REMARK   17  A    between atoms: C_20  and  C_18 
REMARK   18  A    between atoms: O_26  and  C_18 
REMARK   19  A    between atoms: C_20  and  C_19 
REMARK   20  A    between atoms: O_28  and  C_19 
REMARK   21  A    between atoms: C_20  and  O_29 
REMARK   22  A    between atoms: P_30  and  O_22 
REMARK   23  A    between atoms: P_31  and  O_24 
REMARK   24  A    between atoms: P_31  and  O_27 
REMARK   25  A    between atoms: P_31  and  O_28 
REMARK   26  A    between atoms: P_30  and  O_29 
ROOT
HETATM    1  C   UNK N   1       2.099  -2.468  -0.040  0.00  0.00     0.179 C 
ENDROOT
BRANCH   1   2
HETATM    2  C   UNK N   1       1.182  -3.532  -0.640  0.00  0.00     0.202 C 
BRANCH   2   3
HETATM    3  O   UNK N   1       0.470  -4.200   0.360  0.00  0.00    -0.389 OA
BRANCH   3   4
HETATM    4  C   UNK N   1      -0.691  -4.674  -0.265  0.00  0.00     0.167 C 
BRANCH   4   5
HETATM    5  C   UNK N   1      -1.685  -3.552  -0.568  0.00  0.00     0.026 C 
BRANCH   5   6
HETATM    6  C   UNK N   1      -2.045  -2.779   0.688  0.00  0.00     0.002 C 
BRANCH   6   7
HETATM    7  C   UNK N   1      -3.191  -1.825   0.403  0.00  0.00     0.000 C 
BRANCH   7   8
HETATM    8  C   UNK N   1      -4.456  -2.620   0.141  0.00  0.00     0.000 C 
BRANCH   8   9
HETATM    9  C   UNK N   1      -5.654  -1.703   0.081  0.00  0.00    -0.000 C 
BRANCH   9  10
HETATM   10  C   UNK N   1      -6.892  -2.545  -0.141  0.00  0.00    -0.005 C 
HETATM   11  C   UNK N   1      -8.127  -1.684   0.005  0.00  0.00     0.005 C 
ENDBRANCH   9  10
ENDBRANCH   8   9
ENDBRANCH   7   8
ENDBRANCH   6   7
ENDBRANCH   5   6
ENDBRANCH   4   5
ENDBRANCH   3   4
ENDBRANCH   2   3
ENDBRANCH   1   2
BRANCH   1  12
HETATM   12  C   UNK N   1       2.371  -1.407  -1.114  0.00  0.00     0.215 C 
BRANCH  12  13
HETATM   13  O   UNK N   1       3.288  -0.379  -0.786  0.00  0.00    -0.294 OA
BRANCH  13  14
HETATM   14  P   UNK N   1       2.849   0.460   0.697  0.00  0.00     0.393 P 
HETATM   15  O   UNK N   1       3.192   1.973   0.611  0.00  0.00    -0.631 OA
BRANCH  14  16
HETATM   16  O   UNK N   1       4.554   0.589   0.405  0.00  0.00    -0.307 OA
HETATM   17  H   UNK N   1       5.093  -0.200   0.241  0.00  0.00     0.222 HD
ENDBRANCH  14  16
BRANCH  14  18
HETATM   18  O   UNK N   1       1.698   1.103  -0.441  0.00  0.00    -0.295 OA
BRANCH  18  19
HETATM   19  C   UNK N   1       0.492   1.100   0.270  0.00  0.00     0.199 C 
BRANCH  19  20
HETATM   20  C   UNK N   1      -0.671   1.321  -0.671  0.00  0.00     0.138 C 
BRANCH  20  21
HETATM   21  N   UNK N   1      -1.396   2.511  -0.263  0.00  0.00    -0.428 N 
HETATM   22  H   UNK N   1      -0.927   3.370   0.023  0.00  0.00     0.149 HD
HETATM   23  H   UNK N   1      -2.416   2.487  -0.263  0.00  0.00     0.149 HD
ENDBRANCH  20  21
ENDBRANCH  19  20
ENDBRANCH  18  19
ENDBRANCH  14  18
ENDBRANCH  13  14
ENDBRANCH  12  13
ENDBRANCH   1  12
BRANCH   1  24
HETATM   24  O   UNK N   1       3.278  -3.001   0.556  0.00  0.00    -0.309 OA
BRANCH  24  25
HETATM   25  P   UNK N   1       4.131  -4.060  -0.558  0.00  0.00     0.238 P 
HETATM   26  O   UNK N   1       3.503  -5.155   0.347  0.00  0.00    -0.653 OA
BRANCH  25  27
HETATM   27  C   UNK N   1       5.256  -2.884   0.347  0.00  0.00     0.125 C 
BRANCH  27  28
HETATM   28  C   UNK N   1       5.936  -1.964  -0.655  0.00  0.00     0.012 C 
BRANCH  28  29
HETATM   29  C   UNK N   1       7.119  -1.263  -0.020  0.00  0.00     0.001 C 
BRANCH  29  30
HETATM   30  C   UNK N   1       8.259  -2.246   0.148  0.00  0.00     0.000 C 
BRANCH  30  31
HETATM   31  C   UNK N   1       9.575  -1.503   0.158  0.00  0.00    -0.000 C 
BRANCH  31  32
HETATM   32  C   UNK N   1      10.705  -2.508   0.133  0.00  0.00    -0.005 C 
HETATM   33  C   UNK N   1      12.019  -1.785  -0.063  0.00  0.00     0.005 C 
ENDBRANCH  31  32
ENDBRANCH  30  31
ENDBRANCH  29  30
ENDBRANCH  28  29
ENDBRANCH  27  28
ENDBRANCH  25  27
BRANCH  25  34
HETATM   34  O   UNK N   1       5.579  -4.750   0.111  0.00  0.00    -0.329 OA
HETATM   35  H   UNK N   1       5.649  -5.642   0.485  0.00  0.00     0.220 HD
ENDBRANCH  25  34
ENDBRANCH  24  25
ENDBRANCH   1  24
TORSDOF 26
