REMARK  21 active torsions:
REMARK  status: ('A' for Active; 'I' for Inactive)
REMARK    1  A    between atoms: C_3  and  C_2 
REMARK    2  A    between atoms: C_4  and  C_3 
REMARK    3  A    between atoms: C_5  and  C_4 
REMARK    4  A    between atoms: C_6  and  C_5 
REMARK    5  A    between atoms: C_7  and  C_6 
REMARK    6  A    between atoms: C_8  and  C_7 
REMARK    7  A    between atoms: C_9  and  C_8 
REMARK    8  A    between atoms: C_11  and  C_10 
REMARK    9  A    between atoms: C_12  and  C_11 
REMARK   10  A    between atoms: C_13  and  C_12 
REMARK   11  A    between atoms: C_14  and  C_13 
REMARK   12  A    between atoms: C_15  and  C_14 
REMARK   13  A    between atoms: C_16  and  C_15 
REMARK   14  A    between atoms: C_17  and  C_16 
REMARK   15  A    between atoms: C_18  and  C_17 
REMARK   16  A    between atoms: O_25  and  C_18 
REMARK   17  A    between atoms: C_20  and  C_19 
REMARK   18  A    between atoms: O_22  and  C_19 
REMARK   19  A    between atoms: C_21  and  C_20 
REMARK   20  A    between atoms: C_20  and  O_23 
REMARK   21  A    between atoms: O_25  and  C_21 
ROOT
HETATM    1  C   UNK N   1      -2.247  -3.447  -0.825  0.00  0.00     0.000 C 
ENDROOT
BRANCH   1   2
HETATM    2  C   UNK N   1      -3.067  -3.289   0.445  0.00  0.00     0.000 C 
BRANCH   2   3
HETATM    3  C   UNK N   1      -4.413  -3.979   0.333  0.00  0.00     0.004 C 
BRANCH   3   4
HETATM    4  C   UNK N   1      -5.287  -3.316  -0.722  0.00  0.00     0.027 C 
BRANCH   4   5
HETATM    5  C   UNK N   1      -6.731  -3.605  -0.449  0.00  0.00    -0.031 C 
HETATM    6  C   UNK N   1      -7.399  -3.027   0.561  0.00  0.00    -0.031 C 
BRANCH   6   7
HETATM    7  C   UNK N   1      -6.746  -2.036   1.481  0.00  0.00     0.027 C 
BRANCH   7   8
HETATM    8  C   UNK N   1      -7.512  -0.721   1.530  0.00  0.00     0.004 C 
BRANCH   8   9
HETATM    9  C   UNK N   1      -7.358   0.089   0.253  0.00  0.00     0.000 C 
BRANCH   9  10
HETATM   10  C   UNK N   1      -8.631  -0.010  -0.567  0.00  0.00     0.000 C 
BRANCH  10  11
HETATM   11  C   UNK N   1      -8.802   1.217  -1.448  0.00  0.00     0.000 C 
BRANCH  11  12
HETATM   12  C   UNK N   1      -9.507   2.335  -0.693  0.00  0.00    -0.000 C 
BRANCH  12  13
HETATM   13  C   UNK N   1      -8.504   3.195   0.051  0.00  0.00    -0.005 C 
HETATM   14  C   UNK N   1      -9.231   4.322   0.757  0.00  0.00     0.005 C 
ENDBRANCH  12  13
ENDBRANCH  11  12
ENDBRANCH  10  11
ENDBRANCH   9  10
ENDBRANCH   8   9
ENDBRANCH   7   8
ENDBRANCH   6   7
ENDBRANCH   4   5
ENDBRANCH   3   4
ENDBRANCH   2   3
ENDBRANCH   1   2
BRANCH   1  15
HETATM   15  C   UNK N   1      -1.983  -2.077  -1.431  0.00  0.00     0.000 C 
BRANCH  15  16
HETATM   16  C   UNK N   1      -0.731  -1.420  -0.862  0.00  0.00     0.002 C 
BRANCH  16  17
HETATM   17  C   UNK N   1      -0.839  -1.154   0.636  0.00  0.00     0.027 C 
BRANCH  17  18
HETATM   18  C   UNK N   1      -0.026  -2.183   1.408  0.00  0.00     0.178 C 
BRANCH  18  19
HETATM   19  O   UNK N   1       1.293  -2.061   1.041  0.00  0.00    -0.319 OA
BRANCH  19  20
HETATM   20  C   UNK N   1       1.974  -3.051   0.416  0.00  0.00     0.289 C 
HETATM   21  O   UNK N   1       1.513  -4.181   0.341  0.00  0.00    -0.262 OA
BRANCH  20  22
HETATM   22  C   UNK N   1       3.282  -2.728  -0.233  0.00  0.00     0.241 C 
BRANCH  22  23
HETATM   23  C   UNK N   1       4.252  -2.198   0.811  0.00  0.00     0.206 C 
BRANCH  23  24
HETATM   24  O   UNK N   1       5.452  -1.818   0.209  0.00  0.00    -0.398 OA
HETATM   25  H   UNK N   1       6.097  -2.409  -0.210  0.00  0.00     0.209 HD
ENDBRANCH  23  24
ENDBRANCH  22  23
BRANCH  22  26
HETATM   26  O   UNK N   1       3.067  -1.753  -1.209  0.00  0.00    -0.383 OA
HETATM   27  H   UNK N   1       3.579  -1.285  -1.887  0.00  0.00     0.210 HD
ENDBRANCH  22  26
ENDBRANCH  20  22
ENDBRANCH  19  20
ENDBRANCH  18  19
ENDBRANCH  17  18
ENDBRANCH  16  17
ENDBRANCH  15  16
ENDBRANCH   1  15
TORSDOF 21
