REMARK  19 active torsions:
REMARK  status: ('A' for Active; 'I' for Inactive)
REMARK    1  A    between atoms: C_7  and  C_3 
REMARK    2  A    between atoms: O_37  and  C_3 
REMARK    3  A    between atoms: C_8  and  C_4 
REMARK    4  A    between atoms: O_38  and  C_4 
REMARK    5  A    between atoms: C_10  and  O_26 
REMARK    6  A    between atoms: C_11  and  O_27 
REMARK    7  A    between atoms: C_12  and  O_28 
REMARK    8  A    between atoms: C_13  and  O_41 
REMARK    9  A    between atoms: C_16  and  N_25 
REMARK   10  A    between atoms: C_17  and  O_29 
REMARK   11  A    between atoms: P_43  and  O_30 
REMARK   12  A    between atoms: P_43  and  O_31 
REMARK   13  A    between atoms: P_44  and  O_33 
REMARK   14  A    between atoms: P_45  and  O_35 
REMARK   15  A    between atoms: P_44  and  O_37 
REMARK   16  A    between atoms: P_45  and  O_38 
REMARK   17  A    between atoms: P_43  and  O_41 
REMARK   18  A    between atoms: P_44  and  O_42 
REMARK   19  A    between atoms: P_45  and  O_42 
ROOT
HETATM    1  C   UNK N   1       4.223  -0.819  -0.341  0.00  0.00     0.180 C 
HETATM    2  C   UNK N   1       5.492  -0.184   0.208  0.00  0.00     0.183 C 
HETATM    3  C   UNK N   1       5.261   1.316   0.138  0.00  0.00     0.214 C 
HETATM    4  C   UNK N   1       4.019   1.413  -0.772  0.00  0.00     0.263 C 
HETATM    5  O   UNK N   1       3.639   0.120  -1.206  0.00  0.00    -0.353 OA
ENDROOT
BRANCH   1   6
HETATM    6  C   UNK N   1       3.184  -1.295   0.683  0.00  0.00     0.215 C 
BRANCH   6   7
HETATM    7  O   UNK N   1       3.549  -2.534   1.233  0.00  0.00    -0.294 OA
BRANCH   7   8
HETATM    8  P   UNK N   1       2.829  -3.808   0.254  0.00  0.00     0.401 P 
HETATM    9  O   UNK N   1       2.308  -3.236  -1.094  0.00  0.00    -0.631 OA
BRANCH   8  10
HETATM   10  O   UNK N   1       1.446  -4.481   1.056  0.00  0.00    -0.307 OA
HETATM   11  H   UNK N   1       0.733  -3.999   1.504  0.00  0.00     0.222 HD
ENDBRANCH   8  10
BRANCH   8  12
HETATM   12  O   UNK N   1       3.899  -5.123  -0.164  0.00  0.00    -0.195 OA
BRANCH  12  13
HETATM   13  P   UNK N   1       5.561  -4.653   0.086  0.00  0.00     0.401 P 
HETATM   14  O   UNK N   1       5.921  -3.429   0.965  0.00  0.00    -0.631 OA
BRANCH  13  15
HETATM   15  O   UNK N   1       5.263  -5.413   1.614  0.00  0.00    -0.307 OA
HETATM   16  H   UNK N   1       4.811  -5.482   2.469  0.00  0.00     0.222 HD
ENDBRANCH  13  15
BRANCH  13  17
HETATM   17  O   UNK N   1       6.778  -5.866   0.030  0.00  0.00    -0.294 OA
BRANCH  17  18
HETATM   18  C   UNK N   1       7.458  -5.682  -1.166  0.00  0.00     0.215 C 
BRANCH  18  19
HETATM   19  C   UNK N   1       8.954  -5.898  -0.964  0.00  0.00     0.180 C 
HETATM   20  C   UNK N   1       9.309  -7.134  -0.128  0.00  0.00     0.182 C 
HETATM   21  C   UNK N   1      10.765  -6.836   0.023  0.00  0.00     0.204 C 
HETATM   22  C   UNK N   1      10.693  -5.348   0.367  0.00  0.00     0.288 C 
HETATM   23  O   UNK N   1       9.599  -4.796  -0.354  0.00  0.00    -0.349 OA
BRANCH  20  24
HETATM   24  O   UNK N   1       8.696  -7.102   1.135  0.00  0.00    -0.390 OA
HETATM   25  H   UNK N   1       8.503  -6.724   2.007  0.00  0.00     0.210 HD
ENDBRANCH  20  24
BRANCH  21  26
HETATM   26  O   UNK N   1      11.391  -7.601   1.009  0.00  0.00    -0.388 OA
HETATM   27  H   UNK N   1      11.149  -8.244   1.694  0.00  0.00     0.210 HD
ENDBRANCH  21  26
BRANCH  22  28
HETATM   28  O   UNK N   1      11.886  -4.711   0.023  0.00  0.00    -0.369 OA
HETATM   29  H   UNK N   1      12.684  -5.208  -0.216  0.00  0.00     0.212 HD
ENDBRANCH  22  28
ENDBRANCH  18  19
ENDBRANCH  17  18
ENDBRANCH  13  17
ENDBRANCH  12  13
ENDBRANCH   8  12
ENDBRANCH   7   8
ENDBRANCH   6   7
ENDBRANCH   1   6
BRANCH   2  30
HETATM   30  O   UNK N   1       5.860  -0.633   1.480  0.00  0.00    -0.390 OA
HETATM   31  H   UNK N   1       5.718  -1.010   2.362  0.00  0.00     0.210 HD
ENDBRANCH   2  30
BRANCH   3  32
HETATM   32  O   UNK N   1       6.352   1.870  -0.582  0.00  0.00    -0.284 OA
BRANCH  32  33
HETATM   33  P   UNK N   1       7.315   2.969   0.365  0.00  0.00     0.391 P 
HETATM   34  O   UNK N   1       8.657   3.091  -0.408  0.00  0.00    -0.632 OA
BRANCH  33  35
HETATM   35  O   UNK N   1       7.727   2.361   1.937  0.00  0.00    -0.307 OA
HETATM   36  H   UNK N   1       7.548   1.992   2.815  0.00  0.00     0.222 HD
ENDBRANCH  33  35
BRANCH  33  37
HETATM   37  O   UNK N   1       6.643   4.568   0.396  0.00  0.00    -0.307 OA
HETATM   38  H   UNK N   1       7.229   5.340   0.414  0.00  0.00     0.222 HD
ENDBRANCH  33  37
ENDBRANCH  32  33
ENDBRANCH   3  32
BRANCH   4  39
HETATM   39  N   UNK N   1       2.866   2.146  -0.212  0.00  0.00    -0.297 N 
HETATM   40  C   UNK N   1       2.826   3.470   0.113  0.00  0.00     0.188 A 
HETATM   41  N   UNK N   1       1.554   3.878   0.404  0.00  0.00    -0.346 N 
HETATM   42  C   UNK N   1       0.806   2.769   0.248  0.00  0.00     0.123 A 
ATOM     43  HN  UNK N   1       1.242   4.810   0.677  1.00  0.00     0.167 HD
HETATM   44  C   UNK N   1      -0.562   2.571   0.303  0.00  0.00     0.143 A 
HETATM   45  C   UNK N   1       1.599   1.725  -0.091  0.00  0.00     0.142 A 
HETATM   46  N   UNK N   1      -1.532   3.471   0.536  0.00  0.00    -0.349 N 
HETATM   47  N   UNK N   1      -1.052   1.347   0.057  0.00  0.00    -0.301 N 
HETATM   48  C   UNK N   1      -2.688   2.763   0.431  0.00  0.00     0.107 A 
ATOM     49  HN  UNK N   1      -1.425   4.464   0.745  1.00  0.00     0.167 HD
HETATM   50  C   UNK N   1      -2.384   1.434   0.135  0.00  0.00     0.116 A 
HETATM   51  C   UNK N   1      -0.254   0.282  -0.248  0.00  0.00     0.191 A 
HETATM   52  N   UNK N   1       1.099   0.477  -0.344  0.00  0.00    -0.336 N 
ATOM     53  HN  UNK N   1       1.720  -0.291  -0.598  1.00  0.00     0.168 HD
ENDBRANCH   4  39
TORSDOF 19
