REMARK  11 active torsions:
REMARK  status: ('A' for Active; 'I' for Inactive)
REMARK    1  A    between atoms: C_2  and  C_4 
REMARK    2  A    between atoms: C_4  and  C_5 
REMARK    3  A    between atoms: C_5  and  N_6 
REMARK    4  A    between atoms: C_5  and  C_15 
REMARK       I    between atoms: N_6  and  C_7 
REMARK       I    between atoms: C_7  and  N_9 
REMARK       I    between atoms: C_15  and  N_17 
REMARK    5  A    between atoms: C_18  and  N_17 
REMARK    6  A    between atoms: C_18  and  C_19 
REMARK    7  A    between atoms: C_18  and  C_27 
REMARK    8  A    between atoms: C_19  and  C_20 
REMARK    9  A    between atoms: C_20  and  C_21 
REMARK   10  A    between atoms: C_28  and  S_29 
REMARK   11  A    between atoms: S_29  and  C_32 
ROOT
HETATM    1  C   UNK N   1       6.321  -6.281  -0.435  0.00  0.00     0.108 C 
ENDROOT
BRANCH   1   2
HETATM    2  N   UNK N   1       4.946  -6.594  -0.778  0.00  0.00    -0.351 N 
HETATM    3  C   UNK N   1       3.876  -5.951  -0.245  0.00  0.00     0.241 C 
HETATM    4  O   UNK N   1       4.030  -5.139   0.656  0.00  0.00    -0.271 OA
HETATM    5  H   UNK N   1       4.781  -7.311  -1.433  0.00  0.00     0.163 HD
BRANCH   3   6
HETATM    6  C   UNK N   1       2.475  -6.313  -0.666  0.00  0.00     0.178 C 
BRANCH   6   7
HETATM    7  C   UNK N   1       2.148  -7.576   0.137  0.00  0.00     0.038 C 
BRANCH   7   8
HETATM    8  C   UNK N   1       3.043  -8.763  -0.171  0.00  0.00    -0.020 C 
HETATM    9  C   UNK N   1       2.452  -9.624  -1.269  0.00  0.00     0.009 C 
HETATM   10  C   UNK N   1       3.182  -9.574   1.096  0.00  0.00     0.009 C 
ENDBRANCH   7   8
ENDBRANCH   6   7
BRANCH   6  11
HETATM   11  N   UNK N   1       1.632  -5.221  -0.203  0.00  0.00    -0.330 N 
HETATM   12  C   UNK N   1       0.296  -5.187   0.055  0.00  0.00     0.319 C 
HETATM   13  O   UNK N   1      -0.120  -4.262   0.739  0.00  0.00    -0.247 OA
HETATM   14  N   UNK N   1      -0.582  -6.155  -0.354  0.00  0.00    -0.330 N 
HETATM   15  C   UNK N   1      -0.249  -7.187  -1.316  0.00  0.00     0.153 C 
HETATM   16  C   UNK N   1      -1.896  -6.223   0.247  0.00  0.00     0.153 C 
HETATM   17  C   UNK N   1      -0.825  -8.525  -0.835  0.00  0.00     0.187 C 
HETATM   18  O   UNK N   1      -0.986  -8.490   0.564  0.00  0.00    -0.388 OA
HETATM   19  C   UNK N   1      -2.087  -7.641   0.837  0.00  0.00     0.187 C 
HETATM   20  H   UNK N   1       2.104  -4.370  -0.052  0.00  0.00     0.165 HD
ENDBRANCH   6  11
ENDBRANCH   3   6
ENDBRANCH   1   2
BRANCH   1  21
HETATM   21  C   UNK N   1       6.662  -6.280   1.061  0.00  0.00     0.034 C 
BRANCH  21  22
HETATM   22  C   UNK N   1       6.529  -4.908   1.736  0.00  0.00     0.041 C 
BRANCH  22  23
HETATM   23  C   UNK N   1       6.912  -3.777   0.834  0.00  0.00    -0.058 A 
HETATM   24  C   UNK N   1       5.949  -2.830   0.469  0.00  0.00     0.007 A 
HETATM   25  C   UNK N   1       6.279  -1.800  -0.415  0.00  0.00     0.001 A 
HETATM   26  C   UNK N   1       7.572  -1.716  -0.937  0.00  0.00     0.000 A 
HETATM   27  C   UNK N   1       8.538  -2.659  -0.571  0.00  0.00     0.001 A 
HETATM   28  C   UNK N   1       8.209  -3.690   0.314  0.00  0.00     0.007 A 
ENDBRANCH  22  23
ENDBRANCH  21  22
ENDBRANCH   1  21
BRANCH   1  29
HETATM   29  C   UNK N   1       7.290  -7.057  -1.278  0.00  0.00     0.010 C 
HETATM   30  C   UNK N   1       7.805  -8.281  -1.066  0.00  0.00     0.112 C 
BRANCH  30  31
HETATM   31  S   UNK N   1       7.561  -9.410   0.325  0.00  0.00     0.196 S 
HETATM   32  O   UNK N   1       6.077  -9.773   0.467  0.00  0.00    -0.218 OA
HETATM   33  O   UNK N   1       7.816  -8.705   1.665  0.00  0.00    -0.218 OA
BRANCH  31  34
HETATM   34  C   UNK N   1       8.527 -10.912   0.346  0.00  0.00     0.063 A 
HETATM   35  C   UNK N   1       9.919 -10.823   0.450  0.00  0.00     0.024 A 
HETATM   36  C   UNK N   1      10.703 -11.978   0.405  0.00  0.00     0.002 A 
HETATM   37  C   UNK N   1      10.095 -13.227   0.249  0.00  0.00     0.000 A 
HETATM   38  C   UNK N   1       8.703 -13.319   0.144  0.00  0.00     0.002 A 
HETATM   39  C   UNK N   1       7.918 -12.162   0.188  0.00  0.00     0.024 A 
ENDBRANCH  31  34
ENDBRANCH  30  31
ENDBRANCH   1  29
TORSDOF 11
