REMARK  4 active torsions:
REMARK  status: ('A' for Active; 'I' for Inactive)
REMARK    1  A    between atoms: O_2  and  C_3 
REMARK    2  A    between atoms: C_3  and  C_5 
REMARK    3  A    between atoms: C_5  and  C_7 
REMARK    4  A    between atoms: C_10  and  C_14 
ROOT
HETATM    1  C   UNK N   1       0.999  -0.406  -0.304  0.00  0.00    -0.042 A 
HETATM    2  C   UNK N   1       2.172  -1.155  -0.459  0.00  0.00     0.009 A 
HETATM    3  C   UNK N   1       2.129  -2.551  -0.430  0.00  0.00     0.016 A 
HETATM    4  C   UNK N   1       0.912  -3.235  -0.266  0.00  0.00     0.013 A 
HETATM    5  C   UNK N   1      -0.277  -2.476  -0.152  0.00  0.00     0.128 A 
HETATM    6  F   UNK N   1      -1.488  -3.070  -0.016  0.00  0.00    -0.205 F 
HETATM    7  C   UNK N   1      -0.223  -1.080  -0.164  0.00  0.00     0.051 A 
ENDROOT
BRANCH   1   8
HETATM    8  C   UNK N   1       1.076   1.108  -0.279  0.00  0.00     0.114 C 
HETATM    9  C   UNK N   1       2.109   1.573   0.738  0.00  0.00     0.025 C 
BRANCH   8  10
HETATM   10  C   UNK N   1      -0.234   1.784   0.037  0.00  0.00     0.266 C 
HETATM   11  O   UNK N   1      -0.787   1.571   1.109  0.00  0.00    -0.265 OA
BRANCH  10  12
HETATM   12  O   UNK N   1      -0.773   2.648  -0.857  0.00  0.00    -0.326 OA
HETATM   13  C   UNK N   1      -1.932   3.343  -0.594  0.00  0.00     0.213 C 
ENDBRANCH  10  12
ENDBRANCH   8  10
ENDBRANCH   1   8
BRANCH   4  14
HETATM   14  C   UNK N   1       0.916  -4.727  -0.201  0.00  0.00    -0.023 A 
HETATM   15  C   UNK N   1       2.124  -5.436  -0.329  0.00  0.00     0.012 A 
HETATM   16  C   UNK N   1       2.144  -6.832  -0.245  0.00  0.00     0.001 A 
HETATM   17  C   UNK N   1       0.958  -7.536  -0.026  0.00  0.00     0.000 A 
HETATM   18  C   UNK N   1      -0.248  -6.846   0.106  0.00  0.00     0.001 A 
HETATM   19  C   UNK N   1      -0.268  -5.452   0.019  0.00  0.00     0.012 A 
ENDBRANCH   4  14
TORSDOF 4
