REMARK  7 active torsions:
REMARK  status: ('A' for Active; 'I' for Inactive)
REMARK    1  A    between atoms: C_2  and  N_1 
REMARK    2  A    between atoms: C_2  and  C_3 
REMARK    3  A    between atoms: C_2  and  C_9 
REMARK    4  A    between atoms: C_3  and  C_4 
REMARK    5  A    between atoms: C_4  and  S_5 
REMARK    6  A    between atoms: S_5  and  C_6 
REMARK    7  A    between atoms: C_9  and  O_10 
ROOT
HETATM    1  C   UNK N   1       5.081   2.299  -0.000  0.00  0.00     0.174 C 
ENDROOT
BRANCH   1   2
HETATM    2  N   UNK N   1       5.592   3.659   0.000  0.00  0.00    -0.418 N 
HETATM    3  H   UNK N   1       6.599   3.826   0.000  0.00  0.00     0.150 HD
HETATM    4  H   UNK N   1       4.945   4.448   0.000  0.00  0.00     0.150 HD
ENDBRANCH   1   2
BRANCH   1   5
HETATM    5  C   UNK N   1       3.553   2.147   0.000  0.00  0.00     0.046 C 
BRANCH   5   6
HETATM    6  C   UNK N   1       3.114   0.692  -0.000  0.00  0.00     0.082 C 
BRANCH   6   7
HETATM    7  S   UNK N   1       1.320   0.291   0.000  0.00  0.00    -0.101 SA
BRANCH   7   8
HETATM    8  C   UNK N   1       0.460   1.906  -0.000  0.00  0.00     0.415 C 
HETATM    9  F   UNK N   1      -0.922   1.892   0.000  0.00  0.00    -0.203 F 
HETATM   10  F   UNK N   1       1.095   3.131   0.000  0.00  0.00    -0.203 F 
ENDBRANCH   7   8
ENDBRANCH   6   7
ENDBRANCH   5   6
ENDBRANCH   1   5
BRANCH   1  11
HETATM   11  C   UNK N   1       6.107   1.190   0.000  0.00  0.00     0.163 C 
HETATM   12  O   UNK N   1       5.765   0.020   0.000  0.00  0.00    -0.648 OA
BRANCH  11  13
HETATM   13  O   UNK N   1       7.420   1.492   0.000  0.00  0.00    -0.775 OA
HETATM   14  H   UNK N   1       8.058   0.806   0.000  0.00  0.00     0.167 HD
ENDBRANCH  11  13
ENDBRANCH   1  11
TORSDOF 7
