REMARK  7 active torsions:
REMARK  status: ('A' for Active; 'I' for Inactive)
REMARK    1  A    between atoms: C_2  and  O_3 
REMARK    2  A    between atoms: O_3  and  C_4 
REMARK    3  A    between atoms: C_4  and  C_5 
REMARK    4  A    between atoms: C_5  and  O_6 
REMARK    5  A    between atoms: O_6  and  C_7 
REMARK    6  A    between atoms: C_7  and  C_8 
REMARK    7  A    between atoms: C_8  and  O_9 
ROOT
HETATM    1  C   UNK N   1       5.026   1.870  -0.000  0.00  0.00     0.193 C 
ENDROOT
BRANCH   1   2
HETATM    2  C   UNK N   1       3.768   2.709  -0.000  0.00  0.00     0.193 C 
BRANCH   2   3
HETATM    3  O   UNK N   1       2.651   1.881   0.000  0.00  0.00    -0.389 OA
BRANCH   3   4
HETATM    4  C   UNK N   1       1.572   2.761  -0.000  0.00  0.00     0.163 C 
HETATM    5  C   UNK N   1       0.281   1.973  -0.000  0.00  0.00     0.033 C 
ENDBRANCH   3   4
ENDBRANCH   2   3
ENDBRANCH   1   2
BRANCH   1   6
HETATM    6  O   UNK N   1       6.122   2.725   0.000  0.00  0.00    -0.387 OA
BRANCH   6   7
HETATM    7  C   UNK N   1       7.240   1.897   0.000  0.00  0.00     0.193 C 
BRANCH   7   8
HETATM    8  C   UNK N   1       8.471   2.774  -0.000  0.00  0.00     0.193 C 
BRANCH   8   9
HETATM    9  O   UNK N   1       9.621   1.991  -0.000  0.00  0.00    -0.394 OA
HETATM   10  C   UNK N   1      10.660   2.919  -0.000  0.00  0.00     0.201 C 
ENDBRANCH   8   9
ENDBRANCH   7   8
ENDBRANCH   6   7
ENDBRANCH   1   6
TORSDOF 7
