REMARK  15 active torsions:
REMARK  status: ('A' for Active; 'I' for Inactive)
REMARK    1  A    between atoms: C_1  and  O_24 
REMARK    2  A    between atoms: C_2  and  O_23 
REMARK    3  A    between atoms: C_3  and  O_18 
REMARK    4  A    between atoms: C_4  and  O_13 
REMARK    5  A    between atoms: C_5  and  O_12 
REMARK    6  A    between atoms: C_6  and  O_7 
REMARK    7  A    between atoms: O_7  and  P_8 
REMARK    8  A    between atoms: P_8  and  O_10 
REMARK    9  A    between atoms: P_8  and  O_11 
REMARK   10  A    between atoms: O_13  and  P_14 
REMARK   11  A    between atoms: P_14  and  O_16 
REMARK   12  A    between atoms: P_14  and  O_17 
REMARK   13  A    between atoms: O_18  and  P_19 
REMARK   14  A    between atoms: P_19  and  O_21 
REMARK   15  A    between atoms: P_19  and  O_22 
ROOT
HETATM    1  C   UNK N   1       0.710   2.054   0.172  0.00  0.00     0.181 C 
HETATM    2  C   UNK N   1       1.905   1.539   0.985  0.00  0.00     0.181 C 
HETATM    3  C   UNK N   1       2.291   0.101   0.579  0.00  0.00     0.197 C 
HETATM    4  C   UNK N   1       1.065  -0.849   0.518  0.00  0.00     0.197 C 
HETATM    5  C   UNK N   1      -0.208  -0.176   1.061  0.00  0.00     0.182 C 
HETATM    6  C   UNK N   1      -0.523   1.150   0.343  0.00  0.00     0.196 C 
ENDROOT
BRANCH   3   7
HETATM    7  O   UNK N   1       3.002   0.099  -0.632  0.00  0.00    -0.286 OA
BRANCH   7   8
HETATM    8  P   UNK N   1       4.628  -0.418  -0.262  0.00  0.00     0.391 P 
HETATM    9  O   UNK N   1       5.073   0.221   1.082  0.00  0.00    -0.632 OA
BRANCH   8  10
HETATM   10  O   UNK N   1       4.748  -2.140  -0.090  0.00  0.00    -0.307 OA
HETATM   11  H   UNK N   1       3.948  -2.679   0.006  0.00  0.00     0.222 HD
ENDBRANCH   8  10
BRANCH   8  12
HETATM   12  O   UNK N   1       5.739   0.154  -1.466  0.00  0.00    -0.307 OA
HETATM   13  H   UNK N   1       6.326  -0.224  -2.139  0.00  0.00     0.222 HD
ENDBRANCH   8  12
ENDBRANCH   7   8
ENDBRANCH   3   7
BRANCH   2  14
HETATM   14  O   UNK N   1       2.992   2.407   0.896  0.00  0.00    -0.390 OA
HETATM   15  H   UNK N   1       3.894   2.054   0.834  0.00  0.00     0.210 HD
ENDBRANCH   2  14
BRANCH   4  16
HETATM   16  O   UNK N   1       0.849  -1.351  -0.773  0.00  0.00    -0.286 OA
BRANCH  16  17
HETATM   17  P   UNK N   1       0.851  -3.087  -0.601  0.00  0.00     0.391 P 
HETATM   18  O   UNK N   1       0.214  -3.665  -1.891  0.00  0.00    -0.632 OA
BRANCH  17  19
HETATM   19  O   UNK N   1       2.452  -3.747  -0.502  0.00  0.00    -0.307 OA
HETATM   20  H   UNK N   1       2.580  -4.707  -0.447  0.00  0.00     0.222 HD
ENDBRANCH  17  19
BRANCH  17  21
HETATM   21  O   UNK N   1      -0.143  -3.631   0.715  0.00  0.00    -0.307 OA
HETATM   22  H   UNK N   1      -0.684  -3.303   1.450  0.00  0.00     0.222 HD
ENDBRANCH  17  21
ENDBRANCH  16  17
ENDBRANCH   4  16
BRANCH   1  23
HETATM   23  O   UNK N   1       1.043   2.148  -1.181  0.00  0.00    -0.390 OA
HETATM   24  H   UNK N   1       1.215   1.981  -2.121  0.00  0.00     0.210 HD
ENDBRANCH   1  23
BRANCH   5  25
HETATM   25  O   UNK N   1      -1.301  -1.039   0.997  0.00  0.00    -0.390 OA
HETATM   26  H   UNK N   1      -2.201  -0.681   0.952  0.00  0.00     0.210 HD
ENDBRANCH   5  25
BRANCH   6  27
HETATM   27  O   UNK N   1      -1.504   1.840   1.062  0.00  0.00    -0.286 OA
BRANCH  27  28
HETATM   28  P   UNK N   1      -2.991   1.687   0.163  0.00  0.00     0.391 P 
HETATM   29  O   UNK N   1      -4.032   1.067   1.133  0.00  0.00    -0.632 OA
BRANCH  28  30
HETATM   30  O   UNK N   1      -2.874   0.605  -1.193  0.00  0.00    -0.307 OA
HETATM   31  H   UNK N   1      -3.364   0.247  -1.949  0.00  0.00     0.222 HD
ENDBRANCH  28  30
BRANCH  28  32
HETATM   32  O   UNK N   1      -3.614   3.234  -0.315  0.00  0.00    -0.307 OA
HETATM   33  H   UNK N   1      -3.039   3.968  -0.582  0.00  0.00     0.222 HD
ENDBRANCH  28  32
ENDBRANCH  27  28
ENDBRANCH   6  27
TORSDOF 15
