REMARK  18 active torsions:
REMARK  status: ('A' for Active; 'I' for Inactive)
REMARK    1  A    between atoms: C_10  and  C_4 
REMARK    2  A    between atoms: N_22  and  C_4 
REMARK    3  A    between atoms: C_11  and  C_6 
REMARK    4  A    between atoms: O_40  and  C_6 
REMARK    5  A    between atoms: C_12  and  C_7 
REMARK    6  A    between atoms: O_41  and  C_7 
REMARK    7  A    between atoms: C_14  and  O_32 
REMARK    8  A    between atoms: C_15  and  O_33 
REMARK    9  A    between atoms: C_16  and  O_34 
REMARK   10  A    between atoms: C_17  and  O_35 
REMARK   11  A    between atoms: N_23  and  C_18 
REMARK   12  A    between atoms: C_20  and  N_30 
REMARK   13  A    between atoms: C_21  and  N_31 
REMARK   14  A    between atoms: P_45  and  O_37 
REMARK   15  A    between atoms: P_45  and  O_40 
REMARK   16  A    between atoms: P_46  and  O_41 
REMARK   17  A    between atoms: P_45  and  O_44 
REMARK   18  A    between atoms: P_46  and  O_44 
ROOT
HETATM    1  O   UNK N   1      -2.760  -2.382  -1.988  0.00  0.00    -0.624 OA
HETATM    2  O   UNK N   1      -2.830  -0.196  -0.536  0.00  0.00    -0.624 OA
HETATM    3  P   UNK N   1      -2.901  -1.935  -0.509  0.00  0.00     0.417 P 
ENDROOT
BRANCH   3   4
HETATM    4  O   UNK N   1      -1.561  -2.645   0.372  0.00  0.00    -0.287 OA
BRANCH   4   5
HETATM    5  C   UNK N   1      -0.938  -1.585   1.032  0.00  0.00     0.216 C 
BRANCH   5   6
HETATM    6  C   UNK N   1       0.185  -1.018   0.173  0.00  0.00     0.180 C 
HETATM    7  C   UNK N   1       1.549  -1.640   0.429  0.00  0.00     0.182 C 
HETATM    8  C   UNK N   1       2.510  -0.509   0.034  0.00  0.00     0.198 C 
HETATM    9  C   UNK N   1       1.526   0.622  -0.322  0.00  0.00     0.262 C 
HETATM   10  O   UNK N   1       0.368   0.351   0.431  0.00  0.00    -0.353 OA
BRANCH   7  11
HETATM   11  O   UNK N   1       1.743  -2.815  -0.299  0.00  0.00    -0.390 OA
HETATM   12  H   UNK N   1       1.104  -3.340  -0.806  0.00  0.00     0.210 HD
ENDBRANCH   7  11
BRANCH   8  13
HETATM   13  O   UNK N   1       3.265  -0.181   1.165  0.00  0.00    -0.388 OA
HETATM   14  H   UNK N   1       3.724  -0.520   1.949  0.00  0.00     0.210 HD
ENDBRANCH   8  13
BRANCH   9  15
HETATM   15  N   UNK N   1       1.971   2.007  -0.124  0.00  0.00    -0.297 N 
HETATM   16  C   UNK N   1       1.125   3.070  -0.076  0.00  0.00     0.188 A 
HETATM   17  N   UNK N   1       1.798   4.244   0.062  0.00  0.00    -0.346 N 
HETATM   18  C   UNK N   1       3.091   3.884   0.075  0.00  0.00     0.122 A 
ATOM     19  HN  UNK N   1       1.409   5.184   0.138  1.00  0.00     0.167 HD
HETATM   20  C   UNK N   1       4.225   4.673   0.159  0.00  0.00     0.131 A 
HETATM   21  C   UNK N   1       3.200   2.544  -0.038  0.00  0.00     0.142 A 
HETATM   22  N   UNK N   1       5.441   4.052   0.118  0.00  0.00    -0.337 N 
HETATM   23  C   UNK N   1       5.532   2.686  -0.008  0.00  0.00     0.183 A 
ATOM     24  HN  UNK N   1       6.293   4.609   0.182  1.00  0.00     0.168 HD
HETATM   25  N   UNK N   1       4.401   1.919  -0.092  0.00  0.00    -0.336 N 
ATOM     26  HN  UNK N   1       4.460   0.905  -0.194  1.00  0.00     0.168 HD
BRANCH  20  27
HETATM   27  N   UNK N   1       4.135   6.075   0.270  0.00  0.00    -0.383 N 
HETATM   28  H   UNK N   1       4.951   6.619   0.347  0.00  0.00     0.157 HD
HETATM   29  H   UNK N   1       3.252   6.511   0.270  0.00  0.00     0.157 HD
ENDBRANCH  20  27
ENDBRANCH   9  15
ENDBRANCH   5   6
ENDBRANCH   4   5
ENDBRANCH   3   4
BRANCH   3  30
HETATM   30  O   UNK N   1      -4.470  -2.465   0.034  0.00  0.00    -0.188 OA
BRANCH  30  31
HETATM   31  P   UNK N   1      -4.248  -3.994   0.838  0.00  0.00     0.402 P 
HETATM   32  O   UNK N   1      -3.752  -3.683   2.275  0.00  0.00    -0.631 OA
BRANCH  31  33
HETATM   33  O   UNK N   1      -5.762  -4.823   1.025  0.00  0.00    -0.307 OA
HETATM   34  H   UNK N   1      -6.586  -4.322   1.130  0.00  0.00     0.222 HD
ENDBRANCH  31  33
BRANCH  31  35
HETATM   35  O   UNK N   1      -3.044  -5.009   0.093  0.00  0.00    -0.294 OA
BRANCH  35  36
HETATM   36  C   UNK N   1      -3.665  -5.566  -1.026  0.00  0.00     0.215 C 
BRANCH  36  37
HETATM   37  C   UNK N   1      -3.531  -7.087  -1.031  0.00  0.00     0.180 C 
HETATM   38  C   UNK N   1      -4.159  -7.753   0.172  0.00  0.00     0.182 C 
HETATM   39  C   UNK N   1      -3.568  -9.141   0.081  0.00  0.00     0.198 C 
HETATM   40  C   UNK N   1      -2.283  -8.895  -0.749  0.00  0.00     0.259 C 
HETATM   41  O   UNK N   1      -2.183  -7.499  -0.981  0.00  0.00    -0.353 OA
BRANCH  38  42
HETATM   42  O   UNK N   1      -5.556  -7.753   0.141  0.00  0.00    -0.390 OA
HETATM   43  H   UNK N   1      -6.041  -6.914   0.119  0.00  0.00     0.210 HD
ENDBRANCH  38  42
BRANCH  39  44
HETATM   44  O   UNK N   1      -3.334  -9.649   1.363  0.00  0.00    -0.388 OA
HETATM   45  H   UNK N   1      -3.557  -9.966   2.252  0.00  0.00     0.210 HD
ENDBRANCH  39  44
BRANCH  40  46
HETATM   46  N   UNK N   1      -1.059  -9.480  -0.177  0.00  0.00    -0.337 N 
HETATM   47  C   UNK N   1      -1.004 -10.832   0.012  0.00  0.00     0.093 A 
HETATM   48  C   UNK N   1       0.163 -11.442   0.475  0.00  0.00     0.018 A 
HETATM   49  C   UNK N   1       1.289 -10.661   0.722  0.00  0.00     0.011 A 
HETATM   50  C   UNK N   1       1.231  -9.282   0.516  0.00  0.00    -0.025 A 
HETATM   51  C   UNK N   1       0.039  -8.704   0.068  0.00  0.00     0.102 A 
BRANCH  50  52
HETATM   52  C   UNK N   1       2.435  -8.434   0.744  0.00  0.00     0.151 C 
BRANCH  52  53
HETATM   53  N   UNK N   1       3.488  -8.809  -0.186  0.00  0.00    -0.426 N 
HETATM   54  H   UNK N   1       3.630  -9.580  -0.838  0.00  0.00     0.150 HD
HETATM   55  H   UNK N   1       4.265  -8.147  -0.186  0.00  0.00     0.150 HD
ENDBRANCH  52  53
ENDBRANCH  50  52
ENDBRANCH  40  46
ENDBRANCH  36  37
ENDBRANCH  35  36
ENDBRANCH  31  35
ENDBRANCH  30  31
ENDBRANCH   3  30
TORSDOF 18
