REMARK  11 active torsions:
REMARK  status: ('A' for Active; 'I' for Inactive)
REMARK    1  A    between atoms: C_3  and  C_2 
REMARK    2  A    between atoms: C_4  and  C_2 
REMARK    3  A    between atoms: C_7  and  C_3 
REMARK    4  A    between atoms: C_8  and  C_4 
REMARK    5  A    between atoms: C_13  and  C_7 
REMARK    6  A    between atoms: C_7  and  N_15 
REMARK    7  A    between atoms: C_8  and  O_19 
REMARK    8  A    between atoms: C_9  and  N_16 
REMARK    9  A    between atoms: C_14  and  C_10 
REMARK   10  A    between atoms: O_22  and  C_13 
REMARK   11  A    between atoms: O_24  and  C_14 
ROOT
HETATM    1  C   UNK N   1       0.880   6.185   0.197  0.00  0.00     0.111 C 
HETATM    2  N   UNK N   1       2.098   6.622   0.245  0.00  0.00    -0.359 N 
ATOM      3  HN  UNK N   1       2.332   7.440   0.808  1.00  0.00     0.162 HD
ENDROOT
BRANCH   2   4
HETATM    4  C   UNK N   1       3.122   5.933  -0.513  0.00  0.00     0.209 C 
HETATM    5  C   UNK N   1       4.546   6.015  -0.082  0.00  0.00     0.251 C 
HETATM    6  N   UNK N   1       4.716   4.741   0.157  0.00  0.00    -0.293 N 
HETATM    7  O   UNK N   1       5.390   6.894  -0.186  0.00  0.00    -0.271 OA
HETATM    8  C   UNK N   1       5.824   3.831   0.242  0.00  0.00     0.115 C 
HETATM    9  C   UNK N   1       3.342   4.402  -0.045  0.00  0.00     0.187 C 
HETATM   10  C   UNK N   1       5.550   2.499   0.070  0.00  0.00    -0.041 C 
HETATM   11  C   UNK N   1       6.601   1.437   0.044  0.00  0.00     0.047 C 
HETATM   12  C   UNK N   1       4.128   2.033  -0.145  0.00  0.00     0.112 C 
HETATM   13  S   UNK N   1       3.228   3.117  -1.313  0.00  0.00    -0.136 SA
BRANCH   8  14
HETATM   14  C   UNK N   1       7.234   4.335   0.386  0.00  0.00     0.194 C 
HETATM   15  O   UNK N   1       7.451   5.524   0.530  0.00  0.00    -0.645 OA
BRANCH  14  16
HETATM   16  O   UNK N   1       8.283   3.491   0.340  0.00  0.00    -0.772 OA
HETATM   17  H   UNK N   1       8.140   2.566   0.309  0.00  0.00     0.167 HD
ENDBRANCH  14  16
ENDBRANCH   8  14
ENDBRANCH   2   4
BRANCH   1  18
HETATM   18  C   UNK N   1      -0.238   6.925   0.864  0.00  0.00     0.083 C 
BRANCH  18  19
HETATM   19  C   UNK N   1      -1.352   7.245  -0.144  0.00  0.00     0.010 C 
BRANCH  19  20
HETATM   20  C   UNK N   1      -1.975   5.971  -0.730  0.00  0.00     0.036 C 
BRANCH  20  21
HETATM   21  C   UNK N   1      -3.008   5.322   0.185  0.00  0.00     0.173 C 
BRANCH  21  22
HETATM   22  C   UNK N   1      -4.334   6.017   0.028  0.00  0.00     0.163 C 
HETATM   23  O   UNK N   1      -5.318   5.402  -0.355  0.00  0.00    -0.648 OA
BRANCH  22  24
HETATM   24  O   UNK N   1      -4.439   7.330   0.305  0.00  0.00    -0.775 OA
HETATM   25  H   UNK N   1      -3.684   7.851   0.497  0.00  0.00     0.167 HD
ENDBRANCH  22  24
ENDBRANCH  21  22
BRANCH  21  26
HETATM   26  N   UNK N   1      -3.126   3.915  -0.171  0.00  0.00    -0.418 N 
HETATM   27  H   UNK N   1      -4.021   3.494  -0.420  0.00  0.00     0.150 HD
HETATM   28  H   UNK N   1      -2.289   3.333  -0.171  0.00  0.00     0.150 HD
ENDBRANCH  21  26
ENDBRANCH  20  21
ENDBRANCH  19  20
ENDBRANCH  18  19
ENDBRANCH   1  18
BRANCH   1  29
HETATM   29  O   UNK N   1       0.595   5.045  -0.472  0.00  0.00    -0.350 OA
HETATM   30  H   UNK N   1      -0.188   4.822  -0.935  0.00  0.00     0.219 HD
ENDBRANCH   1  29
TORSDOF 11
