REMARK  5 active torsions:
REMARK  status: ('A' for Active; 'I' for Inactive)
REMARK       I    between atoms: N_1  and  C_2 
REMARK    1  A    between atoms: C_9  and  C_10 
REMARK    2  A    between atoms: C_10  and  O_11 
REMARK    3  A    between atoms: O_11  and  P_12 
REMARK    4  A    between atoms: P_12  and  O_13 
REMARK    5  A    between atoms: P_12  and  O_14 
ROOT
HETATM    1  N   UNK N   1      -2.004   0.634  -0.257  0.00  0.00    -0.234 N 
HETATM    2  C   UNK N   1      -0.737   0.021  -0.209  0.00  0.00     0.680 A 
HETATM    3  N   UNK N   1       0.386   0.775  -0.359  0.00  0.00    -0.174 N 
ATOM      4  HN  UNK N   1       0.301   1.777  -0.530  1.00  0.00     0.186 HD
HETATM    5  C   UNK N   1       1.618   0.210  -0.284  0.00  0.00     0.153 A 
HETATM    6  N   UNK N   1       2.733   0.972  -0.423  0.00  0.00    -0.348 N 
ATOM      7  HN  UNK N   1       2.642   1.970  -0.614  1.00  0.00     0.167 HD
HETATM    8  C   UNK N   1       3.970   0.420  -0.309  0.00  0.00     0.117 A 
HETATM    9  C   UNK N   1       4.100  -0.947  -0.048  0.00  0.00     0.050 A 
HETATM   10  N   UNK N   1       2.984  -1.720   0.072  0.00  0.00    -0.349 N 
ATOM     11  HN  UNK N   1       3.078  -2.719   0.252  1.00  0.00     0.166 HD
HETATM   12  C   UNK N   1       1.746  -1.169  -0.047  0.00  0.00     0.147 A 
HETATM   13  C   UNK N   1       0.584  -1.934   0.082  0.00  0.00     0.290 A 
HETATM   14  O   UNK N   1       0.649  -3.135   0.274  0.00  0.00    -0.265 OA
HETATM   15  N   UNK N   1      -0.639  -1.320   0.000  0.00  0.00    -0.154 N 
HETATM   16  H   UNK N   1      -2.076   1.615  -0.290  0.00  0.00     0.174 HD
HETATM   17  H   UNK N   1      -2.818   0.081  -0.257  0.00  0.00     0.174 HD
HETATM   18  H   UNK N   1      -1.459  -1.857   0.095  0.00  0.00     0.187 HD
ENDROOT
BRANCH   9  19
HETATM   19  C   UNK N   1       5.453  -1.524   0.185  0.00  0.00     0.239 C 
BRANCH  19  20
HETATM   20  O   UNK N   1       5.663  -2.666  -0.591  0.00  0.00    -0.291 OA
BRANCH  20  21
HETATM   21  P   UNK N   1       6.311  -3.827   0.533  0.00  0.00     0.391 P 
HETATM   22  O   UNK N   1       7.529  -3.526  -0.381  0.00  0.00    -0.632 OA
BRANCH  21  23
HETATM   23  O   UNK N   1       6.788  -5.397  -0.028  0.00  0.00    -0.307 OA
HETATM   24  H   UNK N   1       6.162  -6.067  -0.342  0.00  0.00     0.222 HD
ENDBRANCH  21  23
BRANCH  21  25
HETATM   25  O   UNK N   1       5.026  -4.557  -0.377  0.00  0.00    -0.307 OA
HETATM   26  H   UNK N   1       4.314  -4.140  -0.886  0.00  0.00     0.222 HD
ENDBRANCH  21  25
ENDBRANCH  20  21
ENDBRANCH  19  20
ENDBRANCH   9  19
TORSDOF 5
