REMARK  4 active torsions:
REMARK  status: ('A' for Active; 'I' for Inactive)
REMARK    1  A    between atoms: C_3  and  C_17 
REMARK    2  A    between atoms: C_13  and  C_14 
REMARK    3  A    between atoms: C_14  and  O_15 
REMARK    4  A    between atoms: C_20  and  C_23 
ROOT
HETATM    1  C   UNK N   1      -0.158  -3.014   0.000  0.00  0.00     0.052 C 
HETATM    2  C   UNK N   1       1.097  -2.195   0.000  0.00  0.00    -0.017 A 
HETATM    3  C   UNK N   1       1.026  -0.771   0.000  0.00  0.00     0.050 A 
HETATM    4  N   UNK N   1       2.173  -0.051   0.000  0.00  0.00    -0.354 N 
ATOM      5  HN  UNK N   1       2.106   0.967   0.000  1.00  0.00     0.166 HD
HETATM    6  C   UNK N   1       3.398  -0.610   0.000  0.00  0.00     0.044 A 
HETATM    7  C   UNK N   1       4.519   0.222   0.000  0.00  0.00     0.033 A 
HETATM    8  C   UNK N   1       5.799  -0.326   0.000  0.00  0.00     0.044 A 
HETATM    9  C   UNK N   1       5.960  -1.710  -0.000  0.00  0.00     0.117 A 
HETATM   10  F   UNK N   1       7.204  -2.243  -0.000  0.00  0.00    -0.206 F 
HETATM   11  C   UNK N   1       4.840  -2.547  -0.000  0.00  0.00     0.057 A 
HETATM   12  C   UNK N   1       3.539  -2.013   0.000  0.00  0.00     0.011 A 
HETATM   13  C   UNK N   1       2.375  -2.836   0.000  0.00  0.00     0.058 A 
ENDROOT
BRANCH   3  14
HETATM   14  C   UNK N   1      -0.244   0.010   0.000  0.00  0.00    -0.009 A 
HETATM   15  C   UNK N   1      -1.510  -0.588   0.000  0.00  0.00     0.014 A 
HETATM   16  C   UNK N   1      -2.664   0.190   0.000  0.00  0.00     0.013 A 
HETATM   17  C   UNK N   1      -2.579   1.590  -0.000  0.00  0.00    -0.023 A 
HETATM   18  C   UNK N   1      -1.315   2.190  -0.000  0.00  0.00     0.013 A 
HETATM   19  C   UNK N   1      -0.163   1.410  -0.000  0.00  0.00     0.014 A 
BRANCH  17  20
HETATM   20  C   UNK N   1      -3.819   2.406  -0.000  0.00  0.00     0.013 A 
HETATM   21  C   UNK N   1      -5.062   1.751  -0.000  0.00  0.00     0.015 A 
HETATM   22  C   UNK N   1      -6.253   2.477   0.000  0.00  0.00     0.001 A 
HETATM   23  C   UNK N   1      -6.218   3.870   0.000  0.00  0.00     0.003 A 
HETATM   24  C   UNK N   1      -4.994   4.540  -0.000  0.00  0.00     0.043 A 
HETATM   25  C   UNK N   1      -3.795   3.822  -0.000  0.00  0.00     0.127 A 
HETATM   26  F   UNK N   1      -2.628   4.514  -0.000  0.00  0.00    -0.205 F 
ENDBRANCH  17  20
ENDBRANCH   3  14
BRANCH  13  27
HETATM   27  C   UNK N   1       2.490  -4.346  -0.000  0.00  0.00     0.177 C 
HETATM   28  O   UNK N   1       3.583  -4.888  -0.000  0.00  0.00    -0.646 OA
BRANCH  27  29
HETATM   29  O   UNK N   1       1.396  -5.132  -0.000  0.00  0.00    -0.773 OA
HETATM   30  H   UNK N   1       0.542  -4.746  -0.000  0.00  0.00     0.167 HD
ENDBRANCH  27  29
ENDBRANCH  13  27
TORSDOF 4
