REMARK  4 active torsions:
REMARK  status: ('A' for Active; 'I' for Inactive)
REMARK    1  A    between atoms: C_2  and  O_1 
REMARK    2  A    between atoms: C_5  and  O_6 
REMARK    3  A    between atoms: C_7  and  O_8 
REMARK    4  A    between atoms: C_9  and  O_10 
ROOT
HETATM    1  C   UNK N   1      -1.435  -1.107   0.000  0.00  0.00     0.173 A 
HETATM    2  C   UNK N   1      -1.186   0.397  -0.000  0.00  0.00     0.205 A 
HETATM    3  O   UNK N   1       0.144   0.910   0.000  0.00  0.00    -0.356 OA
HETATM    4  C   UNK N   1       1.213  -0.010  -0.000  0.00  0.00     0.288 A 
HETATM    5  C   UNK N   1       1.083  -1.530   0.000  0.00  0.00     0.204 A 
HETATM    6  C   UNK N   1      -0.301  -2.114  -0.000  0.00  0.00     0.182 A 
ENDROOT
BRANCH   1   7
HETATM    7  O   UNK N   1      -2.773  -1.512  -0.000  0.00  0.00    -0.391 OA
HETATM    8  H   UNK N   1      -3.481  -0.848  -0.000  0.00  0.00     0.210 HD
ENDBRANCH   1   7
BRANCH   6   9
HETATM    9  O   UNK N   1      -0.500  -3.497   0.000  0.00  0.00    -0.390 OA
HETATM   10  H   UNK N   1      -1.401  -3.857   0.000  0.00  0.00     0.210 HD
ENDBRANCH   6   9
BRANCH   5  11
HETATM   11  O   UNK N   1       2.214  -2.346  -0.000  0.00  0.00    -0.388 OA
HETATM   12  H   UNK N   1       2.116  -3.311  -0.000  0.00  0.00     0.210 HD
ENDBRANCH   5  11
BRANCH   4  13
HETATM   13  O   UNK N   1       2.484   0.567   0.000  0.00  0.00    -0.369 OA
HETATM   14  H   UNK N   1       3.273   0.003   0.000  0.00  0.00     0.212 HD
ENDBRANCH   4  13
TORSDOF 4
