REMARK  12 active torsions:
REMARK  status: ('A' for Active; 'I' for Inactive)
REMARK    1  A    between atoms: C_1  and  C_5 
REMARK    2  A    between atoms: C_11  and  C_13 
REMARK    3  A    between atoms: C_12  and  O_14 
REMARK    4  A    between atoms: C_15  and  C_17 
REMARK    5  A    between atoms: C_18  and  C_19 
REMARK    6  A    between atoms: C_20  and  C_22 
REMARK    7  A    between atoms: C_23  and  C_24 
REMARK    8  A    between atoms: C_25  and  C_26 
REMARK    9  A    between atoms: C_28  and  C_29 
REMARK   10  A    between atoms: C_30  and  C_31 
REMARK   11  A    between atoms: C_34  and  C_33 
REMARK   12  A    between atoms: C_43  and  O_44 
ROOT
HETATM    1  C   UNK N   1      -0.189   1.308  -0.690  0.00  0.00     0.001 C 
HETATM    2  C   UNK N   1      -0.462   0.036  -0.997  0.00  0.00     0.001 C 
ENDROOT
BRANCH   1   3
HETATM    3  C   UNK N   1       1.189   1.826  -0.526  0.00  0.00     0.007 C 
HETATM    4  C   UNK N   1       2.288   1.071  -0.356  0.00  0.00    -0.062 C 
HETATM    5  C   UNK N   1       2.230  -0.430  -0.398  0.00  0.00     0.048 C 
BRANCH   4   6
HETATM    6  C   UNK N   1       3.559   1.763  -0.051  0.00  0.00     0.007 C 
HETATM    7  C   UNK N   1       4.625   1.186   0.528  0.00  0.00     0.001 C 
BRANCH   7   8
HETATM    8  C   UNK N   1       4.620  -0.193   1.071  0.00  0.00     0.007 C 
HETATM    9  C   UNK N   1       5.704  -0.978   1.200  0.00  0.00    -0.062 C 
HETATM   10  C   UNK N   1       5.504  -2.356   1.734  0.00  0.00     0.048 C 
BRANCH   9  11
HETATM   11  C   UNK N   1       7.068  -0.590   0.771  0.00  0.00     0.006 C 
HETATM   12  C   UNK N   1       7.371   0.650   0.397  0.00  0.00     0.015 C 
BRANCH  12  13
HETATM   13  C   UNK N   1       8.708   1.074  -0.129  0.00  0.00     0.118 A 
HETATM   14  C   UNK N   1       8.947   2.548  -0.214  0.00  0.00     0.097 A 
HETATM   15  C   UNK N   1      10.337   3.103  -0.512  0.00  0.00     0.073 C 
HETATM   16  C   UNK N   1       7.843   3.554   0.076  0.00  0.00     0.050 C 
HETATM   17  O   UNK N   1       8.542   1.774  -1.329  0.00  0.00    -0.358 OA
HETATM   18  C   UNK N   1      11.436   2.112  -0.151  0.00  0.00     0.122 C 
HETATM   19  C   UNK N   1      11.156   0.759  -0.798  0.00  0.00     0.044 C 
HETATM   20  C   UNK N   1       9.916   0.102  -0.188  0.00  0.00    -0.007 C 
HETATM   21  C   UNK N   1      10.253  -0.379   1.217  0.00  0.00     0.018 C 
HETATM   22  C   UNK N   1       9.574  -1.111  -1.039  0.00  0.00     0.018 C 
BRANCH  18  23
HETATM   23  O   UNK N   1      12.661   2.600  -0.603  0.00  0.00    -0.395 OA
HETATM   24  H   UNK N   1      13.381   2.032  -0.917  0.00  0.00     0.210 HD
ENDBRANCH  18  23
ENDBRANCH  12  13
ENDBRANCH   9  11
ENDBRANCH   7   8
ENDBRANCH   4   6
ENDBRANCH   1   3
BRANCH   2  25
HETATM   25  C   UNK N   1      -1.784  -0.592  -0.789  0.00  0.00     0.007 C 
HETATM   26  C   UNK N   1      -2.692  -0.193   0.118  0.00  0.00    -0.062 C 
HETATM   27  C   UNK N   1      -2.421   0.960   1.043  0.00  0.00     0.048 C 
BRANCH  26  28
HETATM   28  C   UNK N   1      -3.890  -1.040   0.304  0.00  0.00     0.007 C 
HETATM   29  C   UNK N   1      -4.967  -0.729   1.041  0.00  0.00     0.001 C 
BRANCH  29  30
HETATM   30  C   UNK N   1      -5.225   0.606   1.623  0.00  0.00     0.007 C 
HETATM   31  C   UNK N   1      -5.591   1.663   0.877  0.00  0.00    -0.062 C 
HETATM   32  C   UNK N   1      -5.671   3.001   1.528  0.00  0.00     0.048 C 
BRANCH  31  33
HETATM   33  C   UNK N   1      -5.792   1.575  -0.589  0.00  0.00     0.006 C 
HETATM   34  C   UNK N   1      -6.776   0.883  -1.196  0.00  0.00     0.015 C 
BRANCH  34  35
HETATM   35  C   UNK N   1      -7.954   0.225  -0.505  0.00  0.00     0.118 A 
HETATM   36  C   UNK N   1      -8.141  -1.247  -0.762  0.00  0.00     0.097 A 
HETATM   37  C   UNK N   1      -9.419  -1.975  -0.357  0.00  0.00     0.073 C 
HETATM   38  C   UNK N   1      -7.048  -2.091  -1.391  0.00  0.00     0.050 C 
HETATM   39  O   UNK N   1      -7.602  -0.729   0.450  0.00  0.00    -0.358 OA
HETATM   40  C   UNK N   1     -10.619  -1.040  -0.263  0.00  0.00     0.122 C 
HETATM   41  C   UNK N   1     -10.279   0.203   0.553  0.00  0.00     0.044 C 
HETATM   42  C   UNK N   1      -9.209   1.050  -0.144  0.00  0.00    -0.007 C 
HETATM   43  C   UNK N   1      -9.795   1.655  -1.412  0.00  0.00     0.018 C 
HETATM   44  C   UNK N   1      -8.841   2.188   0.789  0.00  0.00     0.018 C 
BRANCH  40  45
HETATM   45  O   UNK N   1     -11.680  -1.715   0.339  0.00  0.00    -0.395 OA
HETATM   46  H   UNK N   1     -12.456  -1.311   0.758  0.00  0.00     0.210 HD
ENDBRANCH  40  45
ENDBRANCH  34  35
ENDBRANCH  31  33
ENDBRANCH  29  30
ENDBRANCH  26  28
ENDBRANCH   2  25
TORSDOF 12
