REMARK  5 active torsions:
REMARK  status: ('A' for Active; 'I' for Inactive)
REMARK    1  A    between atoms: C_3  and  C_2 
REMARK    2  A    between atoms: O_13  and  C_2 
REMARK    3  A    between atoms: C_5  and  O_14 
REMARK    4  A    between atoms: C_6  and  O_15 
REMARK    5  A    between atoms: N_9  and  C_8 
ROOT
HETATM    1  C   UNK N   1      -0.353  -1.723  -0.342  0.00  0.00     0.072 C 
HETATM    2  C   UNK N   1       0.992  -0.070   0.878  0.00  0.00     0.146 A 
HETATM    3  C   UNK N   1      -1.192  -0.539   0.146  0.00  0.00     0.157 C 
HETATM    4  C   UNK N   1      -0.157   0.574   0.108  0.00  0.00     0.172 C 
HETATM    5  C   UNK N   1       0.955  -1.560   0.459  0.00  0.00     0.166 A 
HETATM    6  C   UNK N   1       2.839  -0.583  -0.225  0.00  0.00     0.219 A 
HETATM    7  N   UNK N   1       2.276   0.367   0.411  0.00  0.00    -0.346 N 
ATOM      8  HN  UNK N   1       2.675   1.292   0.563  1.00  0.00     0.163 HD
HETATM    9  O   UNK N   1       2.113  -1.712  -0.285  0.00  0.00    -0.314 OA
ENDROOT
BRANCH   1  10
HETATM   10  C   UNK N   1      -1.053  -3.062  -0.121  0.00  0.00     0.174 C 
BRANCH  10  11
HETATM   11  O   UNK N   1      -0.238  -4.119  -0.526  0.00  0.00    -0.400 OA
HETATM   12  H   UNK N   1      -0.592  -4.977  -0.808  0.00  0.00     0.209 HD
ENDBRANCH  10  11
ENDBRANCH   1  10
BRANCH   3  13
HETATM   13  O   UNK N   1      -2.280  -0.279  -0.691  0.00  0.00    -0.392 OA
HETATM   14  H   UNK N   1      -2.501   0.465  -1.272  0.00  0.00     0.210 HD
ENDBRANCH   3  13
BRANCH   4  15
HETATM   15  O   UNK N   1      -0.597   1.757   0.703  0.00  0.00    -0.391 OA
HETATM   16  H   UNK N   1      -0.038   2.433   1.116  0.00  0.00     0.210 HD
ENDBRANCH   4  15
BRANCH   6  17
HETATM   17  N   UNK N   1       4.132  -0.469  -0.804  0.00  0.00    -0.342 N 
HETATM   18  C   UNK N   1       4.837   0.597  -0.672  0.00  0.00     0.122 C 
ATOM     19  HN  UNK N   1       4.510  -1.252  -1.337  1.00  0.00     0.167 HD
ENDBRANCH   6  17
TORSDOF 5
