REMARK  13 active torsions:
REMARK  status: ('A' for Active; 'I' for Inactive)
REMARK    1  A    between atoms: C_9  and  C_4 
REMARK    2  A    between atoms: N_15  and  C_4 
REMARK    3  A    between atoms: C_8  and  C_5 
REMARK    4  A    between atoms: O_23  and  C_5 
REMARK    5  A    between atoms: C_10  and  C_7 
REMARK    6  A    between atoms: O_16  and  C_7 
REMARK    7  A    between atoms: C_12  and  C_10 
REMARK    8  A    between atoms: N_15  and  C_10 
REMARK    9  A    between atoms: O_17  and  C_11 
REMARK   10  A    between atoms: O_19  and  C_12 
REMARK   11  A    between atoms: P_24  and  O_20 
REMARK   12  A    between atoms: P_24  and  O_21 
REMARK   13  A    between atoms: P_24  and  O_23 
ROOT
HETATM    1  C   UNK N   1      -1.984  -0.646   0.157  0.00  0.00     0.071 C 
HETATM    2  C   UNK N   1       0.806  -2.810  -1.029  0.00  0.00     0.098 A 
HETATM    3  C   UNK N   1      -0.610  -1.198  -0.018  0.00  0.00     0.039 A 
HETATM    4  C   UNK N   1       1.923  -2.277  -0.387  0.00  0.00    -0.008 A 
HETATM    5  C   UNK N   1       1.768  -1.167   0.465  0.00  0.00     0.004 A 
HETATM    6  C   UNK N   1       0.483  -0.620   0.648  0.00  0.00     0.096 A 
HETATM    7  N   UNK N   1      -0.425  -2.271  -0.829  0.00  0.00    -0.367 N 
ATOM      8  HN  UNK N   1      -1.231  -2.682  -1.300  1.00  0.00     0.165 HD
ENDROOT
BRANCH   5   9
HETATM    9  C   UNK N   1       2.959  -0.589   1.186  0.00  0.00     0.157 C 
BRANCH   9  10
HETATM   10  N   UNK N   1       3.194   0.815   0.853  0.00  0.00    -0.402 N 
HETATM   11  H   UNK N   1       2.884   1.606   1.418  0.00  0.00     0.154 HD
BRANCH  10  12
HETATM   12  C   UNK N   1       3.937   0.931  -0.406  0.00  0.00     0.204 C 
BRANCH  12  13
HETATM   13  C   UNK N   1       4.052   2.403  -0.831  0.00  0.00     0.147 C 
HETATM   14  C   UNK N   1       4.832   3.251   0.164  0.00  0.00     0.042 C 
BRANCH  13  15
HETATM   15  O   UNK N   1       2.781   2.952  -1.002  0.00  0.00    -0.393 OA
HETATM   16  H   UNK N   1       2.670   3.908  -1.120  0.00  0.00     0.210 HD
ENDBRANCH  13  15
ENDBRANCH  12  13
BRANCH  12  17
HETATM   17  C   UNK N   1       5.288   0.264  -0.332  0.00  0.00     0.165 C 
HETATM   18  O   UNK N   1       6.122   0.633   0.480  0.00  0.00    -0.648 OA
BRANCH  17  19
HETATM   19  O   UNK N   1       5.570  -0.760  -1.158  0.00  0.00    -0.775 OA
HETATM   20  H   UNK N   1       5.050  -1.286  -1.734  0.00  0.00     0.167 HD
ENDBRANCH  17  19
ENDBRANCH  12  17
ENDBRANCH  10  12
ENDBRANCH   9  10
ENDBRANCH   5   9
BRANCH   4  21
HETATM   21  C   UNK N   1       3.256  -2.897  -0.651  0.00  0.00     0.221 C 
BRANCH  21  22
HETATM   22  O   UNK N   1       3.658  -3.688   0.428  0.00  0.00    -0.292 OA
BRANCH  22  23
HETATM   23  P   UNK N   1       4.888  -4.720  -0.240  0.00  0.00     0.391 P 
HETATM   24  O   UNK N   1       5.623  -4.037   0.945  0.00  0.00    -0.632 OA
BRANCH  23  25
HETATM   25  O   UNK N   1       5.498  -6.066   0.669  0.00  0.00    -0.307 OA
HETATM   26  H   UNK N   1       5.016  -6.738   1.177  0.00  0.00     0.222 HD
ENDBRANCH  23  25
BRANCH  23  27
HETATM   27  O   UNK N   1       3.581  -5.700   0.351  0.00  0.00    -0.307 OA
HETATM   28  H   UNK N   1       2.742  -5.341   0.680  0.00  0.00     0.222 HD
ENDBRANCH  23  27
ENDBRANCH  22  23
ENDBRANCH  21  22
ENDBRANCH   4  21
BRANCH   6  29
HETATM   29  O   UNK N   1       0.302   0.444   1.451  0.00  0.00    -0.358 OA
HETATM   30  H   UNK N   1       0.880   0.925   2.010  0.00  0.00     0.217 HD
ENDBRANCH   6  29
TORSDOF 13
