REMARK  2 active torsions:
REMARK  status: ('A' for Active; 'I' for Inactive)
REMARK    1  A    between atoms: O_1  and  C_2 
REMARK    2  A    between atoms: C_5  and  C_8 
ROOT
HETATM    1  C   UNK N   1       0.495  -1.517   0.251  0.00  0.00     0.065 A 
HETATM    2  C   UNK N   1      -0.620  -0.791  -0.180  0.00  0.00     0.037 A 
HETATM    3  C   UNK N   1      -0.551   0.600  -0.287  0.00  0.00     0.019 A 
HETATM    4  C   UNK N   1       0.633   1.277   0.044  0.00  0.00     0.048 A 
HETATM    5  C   UNK N   1       1.744   0.545   0.487  0.00  0.00     0.019 A 
HETATM    6  C   UNK N   1       1.676  -0.848   0.585  0.00  0.00     0.037 A 
ENDROOT
BRANCH   4   7
HETATM    7  C   UNK N   1       0.726   2.770  -0.081  0.00  0.00     0.417 C 
HETATM    8  F   UNK N   1       0.944   3.329   1.164  0.00  0.00    -0.166 F 
HETATM    9  F   UNK N   1       1.779   3.098  -0.916  0.00  0.00    -0.166 F 
HETATM   10  F   UNK N   1      -0.440   3.300  -0.610  0.00  0.00    -0.166 F 
ENDBRANCH   4   7
BRANCH   1  11
HETATM   11  O   UNK N   1       0.432  -2.854   0.341  0.00  0.00    -0.361 OA
HETATM   12  H   UNK N   1      -0.399  -3.282   0.403  0.00  0.00     0.217 HD
ENDBRANCH   1  11
TORSDOF 2
