REMARK  5 active torsions:
REMARK  status: ('A' for Active; 'I' for Inactive)
REMARK    1  A    between atoms: C_2  and  C_3 
REMARK    2  A    between atoms: C_3  and  C_5 
REMARK    3  A    between atoms: C_5  and  C_6 
REMARK    4  A    between atoms: C_6  and  C_7 
REMARK    5  A    between atoms: C_7  and  O_10 
ROOT
HETATM    1  C   UNK N   1       4.924  -1.983  -0.066  0.00  0.00     0.044 C 
ENDROOT
BRANCH   1   2
HETATM    2  C   UNK N   1       3.715  -1.134   0.321  0.00  0.00     0.081 C 
BRANCH   2   3
HETATM    3  C   UNK N   1       2.426  -1.893   0.195  0.00  0.00     0.126 C 
HETATM    4  O   UNK N   1       2.431  -3.106   0.029  0.00  0.00    -0.298 OA
BRANCH   3   5
HETATM    5  C   UNK N   1       1.133  -1.132   0.249  0.00  0.00     0.074 C 
HETATM    6  C   UNK N   1      -0.082  -2.017   0.012  0.00  0.00     0.013 C 
ENDBRANCH   3   5
ENDBRANCH   2   3
ENDBRANCH   1   2
BRANCH   1   7
HETATM    7  C   UNK N   1       6.208  -1.167  -0.170  0.00  0.00     0.051 C 
HETATM    8  C   UNK N   1       6.664  -0.706   1.201  0.00  0.00     0.045 C 
HETATM    9  C   UNK N   1       7.285  -2.042  -0.775  0.00  0.00     0.045 C 
BRANCH   7  10
HETATM   10  O   UNK N   1       6.011  -0.058  -0.996  0.00  0.00    -0.391 OA
HETATM   11  H   UNK N   1       6.610   0.445  -1.569  0.00  0.00     0.210 HD
ENDBRANCH   7  10
ENDBRANCH   1   7
TORSDOF 5
