REMARK  6 active torsions:
REMARK  status: ('A' for Active; 'I' for Inactive)
REMARK    1  A    between atoms: N_1  and  C_2 
REMARK    2  A    between atoms: C_2  and  C_3 
REMARK    3  A    between atoms: C_3  and  C_4 
REMARK    4  A    between atoms: C_4  and  C_5 
REMARK    5  A    between atoms: C_5  and  C_6 
REMARK    6  A    between atoms: C_6  and  N_7 
ROOT
HETATM    1  C   UNK N   1       3.952   1.282   0.000  0.00  0.00     0.003 C 
ENDROOT
BRANCH   1   2
HETATM    2  C   UNK N   1       2.709   2.139  -0.000  0.00  0.00     0.019 C 
BRANCH   2   3
HETATM    3  C   UNK N   1       1.500   1.233  -0.000  0.00  0.00     0.111 C 
BRANCH   3   4
HETATM    4  N   UNK N   1       0.293   2.039   0.000  0.00  0.00    -0.430 N 
HETATM    5  H   UNK N   1       0.360   3.057   0.000  0.00  0.00     0.149 HD
HETATM    6  H   UNK N   1      -0.622   1.588   0.000  0.00  0.00     0.149 HD
ENDBRANCH   3   4
ENDBRANCH   2   3
ENDBRANCH   1   2
BRANCH   1   7
HETATM    7  C   UNK N   1       5.178   2.164   0.000  0.00  0.00     0.019 C 
BRANCH   7   8
HETATM    8  C   UNK N   1       6.405   1.282   0.000  0.00  0.00     0.111 C 
BRANCH   8   9
HETATM    9  N   UNK N   1       7.595   2.112  -0.000  0.00  0.00    -0.430 N 
HETATM   10  H   UNK N   1       8.518   1.679  -0.000  0.00  0.00     0.149 HD
HETATM   11  H   UNK N   1       7.508   3.129  -0.000  0.00  0.00     0.149 HD
ENDBRANCH   8   9
ENDBRANCH   7   8
ENDBRANCH   1   7
TORSDOF 6
