REMARK  1 active torsions:
REMARK  status: ('A' for Active; 'I' for Inactive)
REMARK    1  A    between atoms: C_2  and  O_5 
ROOT
HETATM    1  C   UNK N   1       1.301  -1.504   0.000  0.00  0.00     0.045 C 
HETATM    2  C   UNK N   1       1.129  -0.000   0.000  0.00  0.00     0.047 C 
HETATM    3  C   UNK N   1       1.301   1.504   0.000  0.00  0.00     0.045 C 
HETATM    4  C   UNK N   1       2.641  -0.000   0.000  0.00  0.00     0.045 C 
ENDROOT
BRANCH   2   5
HETATM    5  O   UNK N   1      -0.266  -0.000   0.000  0.00  0.00    -0.391 OA
HETATM    6  H   UNK N   1      -0.751   0.840   0.000  0.00  0.00     0.210 HD
ENDBRANCH   2   5
TORSDOF 1
