REMARK  4 active torsions:
REMARK  status: ('A' for Active; 'I' for Inactive)
REMARK    1  A    between atoms: C_1  and  O_7 
REMARK    2  A    between atoms: C_2  and  O_8 
REMARK    3  A    between atoms: C_3  and  O_9 
REMARK    4  A    between atoms: O_10  and  C_5 
ROOT
HETATM    1  C   UNK N   1       1.799   1.114   0.442  0.00  0.00     0.185 C 
HETATM    2  C   UNK N   1       0.507   1.686  -0.158  0.00  0.00     0.209 C 
HETATM    3  C   UNK N   1       2.096  -0.266  -0.168  0.00  0.00     0.204 C 
HETATM    4  C   UNK N   1      -0.618   0.654   0.024  0.00  0.00     0.341 C 
HETATM    5  C   UNK N   1       0.853  -1.159   0.002  0.00  0.00     0.291 C 
HETATM    6  F   UNK N   1      -1.777   1.147  -0.548  0.00  0.00    -0.217 F 
HETATM    7  O   UNK N   1      -0.284  -0.574  -0.611  0.00  0.00    -0.322 OA
ENDROOT
BRANCH   1   8
HETATM    8  O   UNK N   1       2.869   1.986   0.228  0.00  0.00    -0.390 OA
HETATM    9  H   UNK N   1       3.765   1.645   0.080  0.00  0.00     0.210 HD
ENDBRANCH   1   8
BRANCH   2  10
HETATM   10  O   UNK N   1       0.675   1.961  -1.519  0.00  0.00    -0.388 OA
HETATM   11  H   UNK N   1       0.899   1.955  -2.462  0.00  0.00     0.210 HD
ENDBRANCH   2  10
BRANCH   3  12
HETATM   12  O   UNK N   1       2.405  -0.142  -1.525  0.00  0.00    -0.388 OA
HETATM   13  H   UNK N   1       2.587  -0.284  -2.468  0.00  0.00     0.210 HD
ENDBRANCH   3  12
BRANCH   5  14
HETATM   14  O   UNK N   1       1.097  -2.399  -0.600  0.00  0.00    -0.368 OA
ATOM     15  HO  UNK N   1       0.331  -2.950  -0.495  1.00  0.00     0.212 HD
ENDBRANCH   5  14
TORSDOF 4
