REMARK  10 active torsions:
REMARK  status: ('A' for Active; 'I' for Inactive)
REMARK    1  A    between atoms: C_5  and  C_3 
REMARK    2  A    between atoms: O_14  and  C_3 
REMARK    3  A    between atoms: C_7  and  C_4 
REMARK    4  A    between atoms: O_21  and  C_4 
REMARK    5  A    between atoms: C_6  and  O_15 
REMARK    6  A    between atoms: C_8  and  N_13 
REMARK    7  A    between atoms: O_16  and  C_9 
REMARK    8  A    between atoms: P_23  and  O_18 
REMARK    9  A    between atoms: P_23  and  O_19 
REMARK   10  A    between atoms: P_23  and  O_21 
ROOT
HETATM    1  C   UNK N   1      -0.127   2.350   0.804  0.00  0.00     0.088 C 
HETATM    2  C   UNK N   1      -0.967   3.457   0.255  0.00  0.00     0.153 C 
HETATM    3  C   UNK N   1      -2.094   2.670  -0.422  0.00  0.00     0.177 C 
HETATM    4  C   UNK N   1      -0.202   1.421  -0.397  0.00  0.00     0.235 C 
HETATM    5  O   UNK N   1      -1.553   1.418  -0.817  0.00  0.00    -0.356 OA
ENDROOT
BRANCH   4   6
HETATM    6  N   UNK N   1       0.325   0.072  -0.111  0.00  0.00    -0.282 N 
HETATM    7  C   UNK N   1      -0.495  -1.017  -0.174  0.00  0.00     0.112 A 
HETATM    8  C   UNK N   1       0.005  -2.310   0.009  0.00  0.00     0.032 A 
HETATM    9  C   UNK N   1       1.385  -2.463   0.248  0.00  0.00     0.153 A 
HETATM   10  N   UNK N   1       2.178  -1.366   0.316  0.00  0.00    -0.288 N 
HETATM   11  C   UNK N   1       1.672  -0.108   0.145  0.00  0.00     0.330 A 
ATOM     12  HN  UNK N   1       3.175  -1.482   0.500  1.00  0.00     0.172 HD
HETATM   13  O   UNK N   1       2.428   0.850   0.188  0.00  0.00    -0.246 OA
BRANCH   8  14
HETATM   14  C   UNK N   1      -0.971  -3.456  -0.081  0.00  0.00     0.208 C 
BRANCH  14  15
HETATM   15  O   UNK N   1      -0.376  -4.710   0.067  0.00  0.00    -0.396 OA
HETATM   16  H   UNK N   1      -0.924  -5.504   0.170  0.00  0.00     0.209 HD
ENDBRANCH  14  15
ENDBRANCH   8  14
BRANCH   9  17
HETATM   17  O   UNK N   1       1.939  -3.678   0.405  0.00  0.00    -0.345 OA
HETATM   18  H   UNK N   1       1.399  -4.435   0.515  0.00  0.00     0.219 HD
ENDBRANCH   9  17
ENDBRANCH   4   6
BRANCH   2  19
HETATM   19  O   UNK N   1      -1.398   4.358   1.231  0.00  0.00    -0.393 OA
HETATM   20  H   UNK N   1      -1.005   4.929   1.909  0.00  0.00     0.210 HD
ENDBRANCH   2  19
BRANCH   3  21
HETATM   21  C   UNK N   1      -3.300   2.409   0.490  0.00  0.00     0.215 C 
BRANCH  21  22
HETATM   22  O   UNK N   1      -4.011   3.593   0.762  0.00  0.00    -0.294 OA
BRANCH  22  23
HETATM   23  P   UNK N   1      -5.292   3.681  -0.424  0.00  0.00     0.390 P 
HETATM   24  O   UNK N   1      -6.050   3.047   0.774  0.00  0.00    -0.632 OA
BRANCH  23  25
HETATM   25  O   UNK N   1      -6.653   4.741  -0.230  0.00  0.00    -0.307 OA
HETATM   26  H   UNK N   1      -6.521   5.696  -0.122  0.00  0.00     0.222 HD
ENDBRANCH  23  25
BRANCH  23  27
HETATM   27  O   UNK N   1      -4.790   5.283   0.023  0.00  0.00    -0.307 OA
HETATM   28  H   UNK N   1      -3.875   5.488   0.273  0.00  0.00     0.222 HD
ENDBRANCH  23  27
ENDBRANCH  22  23
ENDBRANCH  21  22
ENDBRANCH   3  21
TORSDOF 10
