REMARK  6 active torsions:
REMARK  status: ('A' for Active; 'I' for Inactive)
REMARK    1  A    between atoms: C_4  and  C_3 
REMARK    2  A    between atoms: S_10  and  C_3 
REMARK    3  A    between atoms: C_5  and  C_4 
REMARK    4  A    between atoms: C_4  and  N_7 
REMARK    5  A    between atoms: O_9  and  C_5 
REMARK    6  A    between atoms: S_10  and  As_6 
ROOT
HETATM    1  C   UNK N   1      -1.503   0.663  -0.047  0.00  0.00     0.183 C 
ENDROOT
BRANCH   1   2
HETATM    2  C   UNK N   1      -0.337   1.081   0.851  0.00  0.00     0.121 C 
BRANCH   2   3
HETATM    3  S   UNK N   1       0.587   2.481   0.131  0.00  0.00    -0.095 SA
BRANCH   3   4
HETATM    4 As   UNK N   1       2.611   1.765   0.845  0.00  0.00     0.000 As
HETATM    5  C   UNK N   1       2.773   0.417  -0.580  0.00  0.00     0.000 C 
HETATM    6  C   UNK N   1       3.507   3.119  -0.270  0.00  0.00     0.000 C 
ENDBRANCH   3   4
ENDBRANCH   2   3
ENDBRANCH   1   2
BRANCH   1   7
HETATM    7  C   UNK N   1      -2.582   1.722  -0.073  0.00  0.00     0.163 C 
HETATM    8  O   UNK N   1      -3.725   1.451   0.283  0.00  0.00    -0.648 OA
BRANCH   7   9
HETATM    9  O   UNK N   1      -2.307   2.965  -0.501  0.00  0.00    -0.775 OA
HETATM   10  H   UNK N   1      -1.460   3.233  -0.799  0.00  0.00     0.167 HD
ENDBRANCH   7   9
ENDBRANCH   1   7
BRANCH   1  11
HETATM   11  N   UNK N   1      -2.039  -0.597   0.442  0.00  0.00    -0.417 N 
HETATM   12  H   UNK N   1      -2.992  -0.713   0.785  0.00  0.00     0.150 HD
HETATM   13  H   UNK N   1      -1.425  -1.412   0.442  0.00  0.00     0.150 HD
ENDBRANCH   1  11
TORSDOF 6
