REMARK  7 active torsions:
REMARK  status: ('A' for Active; 'I' for Inactive)
REMARK    1  A    between atoms: C_2  and  N_1 
REMARK    2  A    between atoms: C_2  and  C_3 
REMARK    3  A    between atoms: C_2  and  C_8 
REMARK    4  A    between atoms: C_3  and  O_4 
REMARK    5  A    between atoms: C_3  and  C_5 
REMARK    6  A    between atoms: C_5  and  O_6 
REMARK    7  A    between atoms: C_8  and  O_9 
ROOT
HETATM    1  C   UNK N   1       2.152   1.232  -0.000  0.00  0.00     0.213 C 
ENDROOT
BRANCH   1   2
HETATM    2  N   UNK N   1       2.080   2.684   0.000  0.00  0.00    -0.415 N 
HETATM    3  H   UNK N   1       2.937   3.238   0.000  0.00  0.00     0.150 HD
HETATM    4  H   UNK N   1       1.172   3.150   0.000  0.00  0.00     0.150 HD
ENDBRANCH   1   2
BRANCH   1   5
HETATM    5  C   UNK N   1       0.850   0.426   0.000  0.00  0.00     0.248 C 
BRANCH   5   6
HETATM    6  O   UNK N   1       0.929  -0.968  -0.000  0.00  0.00    -0.382 OA
HETATM    7  H   UNK N   1       0.118  -1.500  -0.000  0.00  0.00     0.210 HD
ENDBRANCH   5   6
BRANCH   5   8
HETATM    8  C   UNK N   1      -0.517   1.038  -0.000  0.00  0.00     0.172 C 
HETATM    9  O   UNK N   1      -0.654   2.249  -0.000  0.00  0.00    -0.648 OA
BRANCH   8  10
HETATM   10  O   UNK N   1      -1.605   0.245  -0.000  0.00  0.00    -0.774 OA
HETATM   11  H   UNK N   1      -2.461   0.624  -0.000  0.00  0.00     0.167 HD
ENDBRANCH   8  10
ENDBRANCH   5   8
ENDBRANCH   1   5
BRANCH   1  12
HETATM   12  C   UNK N   1       3.513   0.607   0.000  0.00  0.00     0.166 C 
HETATM   13  O   UNK N   1       3.635  -0.607   0.000  0.00  0.00    -0.648 OA
BRANCH  12  14
HETATM   14  O   UNK N   1       4.611   1.386   0.000  0.00  0.00    -0.775 OA
HETATM   15  H   UNK N   1       5.463   0.995   0.000  0.00  0.00     0.167 HD
ENDBRANCH  12  14
ENDBRANCH   1  12
TORSDOF 7
