REMARK  4 active torsions:
REMARK  status: ('A' for Active; 'I' for Inactive)
REMARK    1  A    between atoms: O_1  and  C_2 
REMARK    2  A    between atoms: C_3  and  C_2 
REMARK    3  A    between atoms: C_6  and  O_7 
REMARK    4  A    between atoms: C_8  and  O_9 
ROOT
HETATM    1  C   UNK N   1       1.433   0.116  -0.301  0.00  0.00     0.131 C 
HETATM    2  N   UNK N   1       0.789  -1.170  -0.069  0.00  0.00    -0.410 N 
HETATM    3  C   UNK N   1      -0.648  -0.876  -0.020  0.00  0.00     0.148 C 
HETATM    4  C   UNK N   1      -0.806   0.604  -0.302  0.00  0.00     0.166 C 
HETATM    5  C   UNK N   1       0.478   1.153   0.232  0.00  0.00     0.172 C 
HETATM    6  H   UNK N   1       1.239  -2.079   0.037  0.00  0.00     0.153 HD
ENDROOT
BRANCH   1   7
HETATM    7  C   UNK N   1       2.795   0.176   0.371  0.00  0.00     0.191 C 
BRANCH   7   8
HETATM    8  O   UNK N   1       3.461   1.344  -0.001  0.00  0.00    -0.399 OA
HETATM    9  H   UNK N   1       4.396   1.348  -0.260  0.00  0.00     0.209 HD
ENDBRANCH   7   8
ENDBRANCH   1   7
BRANCH   5  10
HETATM   10  O   UNK N   1       0.742   2.419  -0.288  0.00  0.00    -0.391 OA
HETATM   11  H   UNK N   1       1.598   2.700  -0.649  0.00  0.00     0.210 HD
ENDBRANCH   5  10
BRANCH   4  12
HETATM   12  O   UNK N   1      -1.903   1.135   0.377  0.00  0.00    -0.391 OA
HETATM   13  H   UNK N   1      -1.964   1.980   0.849  0.00  0.00     0.210 HD
ENDBRANCH   4  12
TORSDOF 4
