REMARK  4 active torsions:
REMARK  status: ('A' for Active; 'I' for Inactive)
REMARK    1  A    between atoms: C_2  and  O_3 
REMARK    2  A    between atoms: O_3  and  P_4 
REMARK    3  A    between atoms: P_4  and  O_5 
REMARK    4  A    between atoms: P_4  and  O_6 
ROOT
HETATM    1  P   UNK N   1       1.085   0.242  -0.661  0.00  0.00     0.390 P 
HETATM    2  O   UNK N   1      -0.085   0.470   0.336  0.00  0.00    -0.632 OA
ENDROOT
BRANCH   1   3
HETATM    3  O   UNK N   1       1.256  -1.107   0.428  0.00  0.00    -0.297 OA
BRANCH   3   4
HETATM    4  C   UNK N   1       0.824  -2.225  -0.296  0.00  0.00     0.176 C 
HETATM    5  C   UNK N   1      -0.593  -2.584   0.114  0.00  0.00     0.034 C 
ENDBRANCH   3   4
ENDBRANCH   1   3
BRANCH   1   6
HETATM    6  O   UNK N   1       1.344   1.861  -0.093  0.00  0.00    -0.307 OA
HETATM    7  H   UNK N   1       2.201   2.188   0.224  0.00  0.00     0.222 HD
ENDBRANCH   1   6
BRANCH   1   8
HETATM    8  O   UNK N   1       2.605   0.358   0.172  0.00  0.00    -0.307 OA
HETATM    9  H   UNK N   1       3.085  -0.345   0.637  0.00  0.00     0.222 HD
ENDBRANCH   1   8
TORSDOF 4
