REMARK  4 active torsions:
REMARK  status: ('A' for Active; 'I' for Inactive)
REMARK    1  A    between atoms: N_1  and  C_2 
REMARK    2  A    between atoms: C_3  and  O_4 
REMARK    3  A    between atoms: C_8  and  C_9 
REMARK    4  A    between atoms: C_9  and  O_10 
ROOT
HETATM    1  C   UNK N   1       1.750   0.698   0.000  0.00  0.00     0.076 A 
HETATM    2  C   UNK N   1       1.784  -0.708  -0.000  0.00  0.00     0.092 A 
HETATM    3  C   UNK N   1       0.596  -1.440  -0.000  0.00  0.00     0.039 A 
HETATM    4  C   UNK N   1      -0.633  -0.784   0.000  0.00  0.00     0.004 A 
HETATM    5  C   UNK N   1      -0.679   0.608   0.000  0.00  0.00     0.021 A 
HETATM    6  C   UNK N   1       0.498   1.367   0.000  0.00  0.00     0.066 A 
ENDROOT
BRANCH   6   7
HETATM    7  C   UNK N   1       0.367   2.845   0.000  0.00  0.00     0.178 C 
HETATM    8  O   UNK N   1       1.349   3.567  -0.000  0.00  0.00    -0.646 OA
BRANCH   7   9
HETATM    9  O   UNK N   1      -0.861   3.402  -0.000  0.00  0.00    -0.773 OA
HETATM   10  H   UNK N   1      -0.952   4.335  -0.000  0.00  0.00     0.167 HD
ENDBRANCH   7   9
ENDBRANCH   6   7
BRANCH   1  11
HETATM   11  N   UNK N   1       2.965   1.419   0.000  0.00  0.00    -0.396 N 
HETATM   12  H   UNK N   1       3.824   0.938   0.000  0.00  0.00     0.156 HD
HETATM   13  H   UNK N   1       2.953   2.404   0.000  0.00  0.00     0.156 HD
ENDBRANCH   1  11
BRANCH   2  14
HETATM   14  O   UNK N   1       2.960  -1.359  -0.000  0.00  0.00    -0.358 OA
HETATM   15  H   UNK N   1       2.977  -2.296  -0.000  0.00  0.00     0.217 HD
ENDBRANCH   2  14
TORSDOF 4
