REMARK  0 active torsions:
REMARK  status: ('A' for Active; 'I' for Inactive)
ROOT
HETATM    1  C   UNK N   1       1.599   0.843   0.000  0.00  0.00     0.198 A 
HETATM    2  C   UNK N   1      -0.527   0.797   0.000  0.00  0.00     0.198 A 
HETATM    3  N   UNK N   1       0.518   1.646   0.000  0.00  0.00    -0.346 N 
ATOM      4  HN  UNK N   1       0.496   2.666   0.000  1.00  0.00     0.167 HD
HETATM    5  N   UNK N   1       1.224  -0.448   0.000  0.00  0.00    -0.295 N 
HETATM    6  N   UNK N   1      -0.096  -0.476   0.000  0.00  0.00    -0.295 N 
ATOM      7  HN  UNK N   1      -0.682  -1.311   0.000  1.00  0.00     0.187 HD
HETATM    8  H   UNK N   1       1.824  -1.229   0.000  0.00  0.00     0.187 HD
ENDROOT
TORSDOF 0
