REMARK WARNING: 32 MAX_TORS EXCEEDED!!!
REMARK  89 active torsions:
REMARK  status: ('A' for Active; 'I' for Inactive)
REMARK    1  A    between atoms: C_2  and  C_3 
REMARK    2  A    between atoms: C_3  and  C_4 
REMARK    3  A    between atoms: C_4  and  C_5 
REMARK    4  A    between atoms: C_5  and  C_6 
REMARK    5  A    between atoms: C_6  and  C_7 
REMARK    6  A    between atoms: C_7  and  C_8 
REMARK    7  A    between atoms: C_8  and  C_9 
REMARK    8  A    between atoms: C_9  and  C_10 
REMARK    9  A    between atoms: C_10  and  C_11 
REMARK   10  A    between atoms: C_11  and  C_12 
REMARK   11  A    between atoms: C_12  and  C_13 
REMARK   12  A    between atoms: C_13  and  C_14 
REMARK   13  A    between atoms: C_14  and  C_15 
REMARK   14  A    between atoms: C_15  and  C_16 
REMARK   15  A    between atoms: C_16  and  C_17 
REMARK   16  A    between atoms: C_17  and  C_18 
REMARK   17  A    between atoms: C_18  and  O_20 
REMARK   18  A    between atoms: O_20  and  C_21 
REMARK   19  A    between atoms: C_21  and  C_22 
REMARK   20  A    between atoms: C_22  and  C_23 
REMARK   21  A    between atoms: C_22  and  O_81 
REMARK   22  A    between atoms: C_23  and  O_24 
REMARK   23  A    between atoms: P_25  and  O_24 
REMARK   24  A    between atoms: P_25  and  O_26 
REMARK   25  A    between atoms: P_25  and  O_28 
REMARK   26  A    between atoms: O_28  and  C_29 
REMARK   27  A    between atoms: C_29  and  C_30 
REMARK   28  A    between atoms: C_30  and  O_31 
REMARK   29  A    between atoms: C_30  and  C_32 
REMARK   30  A    between atoms: C_32  and  O_33 
REMARK   31  A    between atoms: P_34  and  O_33 
REMARK   32  A    between atoms: P_34  and  O_35 
REMARK   33  A    between atoms: P_34  and  O_37 
REMARK   34  A    between atoms: O_37  and  C_38 
REMARK   35  A    between atoms: C_38  and  C_39 
REMARK   36  A    between atoms: C_39  and  C_40 
REMARK   37  A    between atoms: C_39  and  O_61 
REMARK   38  A    between atoms: C_40  and  O_41 
REMARK   39  A    between atoms: O_41  and  C_42 
REMARK   40  A    between atoms: C_42  and  C_44 
REMARK   41  A    between atoms: C_44  and  C_45 
REMARK   42  A    between atoms: C_45  and  C_46 
REMARK   43  A    between atoms: C_46  and  C_47 
REMARK   44  A    between atoms: C_47  and  C_48 
REMARK   45  A    between atoms: C_48  and  C_49 
REMARK   46  A    between atoms: C_49  and  C_50 
REMARK   47  A    between atoms: C_50  and  C_51 
REMARK   48  A    between atoms: C_51  and  C_52 
REMARK   49  A    between atoms: C_52  and  C_53 
REMARK   50  A    between atoms: C_53  and  C_54 
REMARK   51  A    between atoms: C_54  and  C_55 
REMARK   52  A    between atoms: C_55  and  C_56 
REMARK   53  A    between atoms: C_56  and  C_57 
REMARK   54  A    between atoms: C_57  and  C_58 
REMARK   55  A    between atoms: C_58  and  C_59 
REMARK   56  A    between atoms: O_61  and  C_62 
REMARK   57  A    between atoms: C_62  and  C_64 
REMARK   58  A    between atoms: C_64  and  C_65 
REMARK   59  A    between atoms: C_65  and  C_66 
REMARK   60  A    between atoms: C_66  and  C_67 
REMARK   61  A    between atoms: C_67  and  C_68 
REMARK   62  A    between atoms: C_68  and  C_69 
REMARK   63  A    between atoms: C_69  and  C_70 
REMARK   64  A    between atoms: C_70  and  C_71 
REMARK   65  A    between atoms: C_71  and  C_72 
REMARK   66  A    between atoms: C_72  and  C_73 
REMARK   67  A    between atoms: C_73  and  C_74 
REMARK   68  A    between atoms: C_74  and  C_75 
REMARK   69  A    between atoms: C_75  and  C_76 
REMARK   70  A    between atoms: C_76  and  C_77 
REMARK   71  A    between atoms: C_77  and  C_78 
REMARK   72  A    between atoms: C_78  and  C_79 
REMARK   73  A    between atoms: O_81  and  C_82 
REMARK   74  A    between atoms: C_82  and  C_84 
REMARK   75  A    between atoms: C_84  and  C_85 
REMARK   76  A    between atoms: C_85  and  C_86 
REMARK   77  A    between atoms: C_86  and  C_87 
REMARK   78  A    between atoms: C_87  and  C_88 
REMARK   79  A    between atoms: C_88  and  C_89 
REMARK   80  A    between atoms: C_89  and  C_90 
REMARK   81  A    between atoms: C_90  and  C_91 
REMARK   82  A    between atoms: C_91  and  C_92 
REMARK   83  A    between atoms: C_92  and  C_93 
REMARK   84  A    between atoms: C_93  and  C_94 
REMARK   85  A    between atoms: C_94  and  C_95 
REMARK   86  A    between atoms: C_95  and  C_96 
REMARK   87  A    between atoms: C_96  and  C_97 
REMARK   88  A    between atoms: C_97  and  C_98 
REMARK   89  A    between atoms: C_98  and  C_99 
ROOT
HETATM    1  C   UNK N   1      48.372  14.901   0.650  0.00  0.00     0.166 C 
ENDROOT
BRANCH   1   2
HETATM    2  C   UNK N   1      47.622  15.868  -0.251  0.00  0.00     0.214 C 
BRANCH   2   3
HETATM    3  O   UNK N   1      48.185  17.143  -0.144  0.00  0.00    -0.294 OA
BRANCH   3   4
HETATM    4  P   UNK N   1      46.869  18.242  -0.322  0.00  0.00     0.393 P 
HETATM    5  O   UNK N   1      47.492  19.661  -0.394  0.00  0.00    -0.631 OA
BRANCH   4   6
HETATM    6  O   UNK N   1      45.808  18.212   1.067  0.00  0.00    -0.294 OA
BRANCH   6   7
HETATM    7  C   UNK N   1      44.985  17.093   0.877  0.00  0.00     0.215 C 
BRANCH   7   8
HETATM    8  C   UNK N   1      43.664  17.478   0.209  0.00  0.00     0.180 C 
BRANCH   8   9
HETATM    9  C   UNK N   1      43.276  16.395  -0.789  0.00  0.00     0.213 C 
BRANCH   9  10
HETATM   10  O   UNK N   1      42.756  15.260  -0.205  0.00  0.00    -0.319 OA
BRANCH  10  11
HETATM   11  C   UNK N   1      41.570  15.215   0.455  0.00  0.00     0.258 C 
HETATM   12  O   UNK N   1      41.093  14.130   0.741  0.00  0.00    -0.265 OA
BRANCH  11  13
HETATM   13  C   UNK N   1      40.850  16.457   0.897  0.00  0.00     0.111 C 
BRANCH  13  14
HETATM   14  C   UNK N   1      40.060  17.088  -0.233  0.00  0.00     0.010 C 
BRANCH  14  15
HETATM   15  C   UNK N   1      40.685  18.411  -0.625  0.00  0.00     0.000 C 
BRANCH  15  16
HETATM   16  C   UNK N   1      39.642  19.342  -1.211  0.00  0.00     0.000 C 
BRANCH  16  17
HETATM   17  C   UNK N   1      39.121  20.303  -0.149  0.00  0.00     0.000 C 
BRANCH  17  18
HETATM   18  C   UNK N   1      38.166  19.635   0.831  0.00  0.00     0.000 C 
BRANCH  18  19
HETATM   19  C   UNK N   1      36.876  19.238   0.137  0.00  0.00     0.000 C 
BRANCH  19  20
HETATM   20  C   UNK N   1      36.828  17.730   0.011  0.00  0.00     0.000 C 
BRANCH  20  21
HETATM   21  C   UNK N   1      35.674  17.315  -0.877  0.00  0.00     0.000 C 
BRANCH  21  22
HETATM   22  C   UNK N   1      34.707  16.448  -0.096  0.00  0.00     0.000 C 
BRANCH  22  23
HETATM   23  C   UNK N   1      33.629  17.317   0.515  0.00  0.00     0.000 C 
BRANCH  23  24
HETATM   24  C   UNK N   1      32.276  16.846   0.025  0.00  0.00     0.000 C 
BRANCH  24  25
HETATM   25  C   UNK N   1      31.260  17.944   0.247  0.00  0.00     0.000 C 
BRANCH  25  26
HETATM   26  C   UNK N   1      29.880  17.442  -0.116  0.00  0.00     0.000 C 
BRANCH  26  27
HETATM   27  C   UNK N   1      28.888  18.574   0.043  0.00  0.00    -0.000 C 
BRANCH  27  28
HETATM   28  C   UNK N   1      27.481  18.045  -0.128  0.00  0.00    -0.005 C 
HETATM   29  C   UNK N   1      26.497  19.186   0.021  0.00  0.00     0.005 C 
ENDBRANCH  27  28
ENDBRANCH  26  27
ENDBRANCH  25  26
ENDBRANCH  24  25
ENDBRANCH  23  24
ENDBRANCH  22  23
ENDBRANCH  21  22
ENDBRANCH  20  21
ENDBRANCH  19  20
ENDBRANCH  18  19
ENDBRANCH  17  18
ENDBRANCH  16  17
ENDBRANCH  15  16
ENDBRANCH  14  15
ENDBRANCH  13  14
ENDBRANCH  11  13
ENDBRANCH  10  11
ENDBRANCH   9  10
ENDBRANCH   8   9
BRANCH   8  30
HETATM   30  O   UNK N   1      43.835  18.639  -0.506  0.00  0.00    -0.312 OA
BRANCH  30  31
HETATM   31  C   UNK N   1      43.592  19.864   0.005  0.00  0.00     0.259 C 
HETATM   32  O   UNK N   1      42.969  20.000   1.048  0.00  0.00    -0.265 OA
BRANCH  31  33
HETATM   33  C   UNK N   1      44.139  21.052  -0.707  0.00  0.00     0.111 C 
BRANCH  33  34
HETATM   34  C   UNK N   1      45.014  21.859   0.241  0.00  0.00     0.010 C 
BRANCH  34  35
HETATM   35  C   UNK N   1      45.328  23.245  -0.314  0.00  0.00     0.000 C 
BRANCH  35  36
HETATM   36  C   UNK N   1      44.101  24.017  -0.809  0.00  0.00     0.000 C 
BRANCH  36  37
HETATM   37  C   UNK N   1      42.960  24.044   0.198  0.00  0.00     0.000 C 
BRANCH  37  38
HETATM   38  C   UNK N   1      41.946  22.971  -0.164  0.00  0.00     0.000 C 
BRANCH  38  39
HETATM   39  C   UNK N   1      40.732  23.059   0.735  0.00  0.00     0.000 C 
BRANCH  39  40
HETATM   40  C   UNK N   1      39.546  23.647  -0.021  0.00  0.00     0.000 C 
BRANCH  40  41
HETATM   41  C   UNK N   1      39.822  25.056  -0.527  0.00  0.00     0.000 C 
BRANCH  41  42
HETATM   42  C   UNK N   1      40.188  25.975   0.627  0.00  0.00     0.000 C 
BRANCH  42  43
HETATM   43  C   UNK N   1      40.265  27.411   0.159  0.00  0.00     0.000 C 
BRANCH  43  44
HETATM   44  C   UNK N   1      38.861  27.934  -0.045  0.00  0.00     0.000 C 
BRANCH  44  45
HETATM   45  C   UNK N   1      38.879  29.441  -0.122  0.00  0.00     0.000 C 
BRANCH  45  46
HETATM   46  C   UNK N   1      37.449  29.927  -0.142  0.00  0.00     0.000 C 
BRANCH  46  47
HETATM   47  C   UNK N   1      37.419  31.435  -0.065  0.00  0.00    -0.000 C 
BRANCH  47  48
HETATM   48  C   UNK N   1      35.979  31.895  -0.034  0.00  0.00    -0.005 C 
HETATM   49  C   UNK N   1      35.933  33.405   0.041  0.00  0.00     0.005 C 
ENDBRANCH  47  48
ENDBRANCH  46  47
ENDBRANCH  45  46
ENDBRANCH  44  45
ENDBRANCH  43  44
ENDBRANCH  42  43
ENDBRANCH  41  42
ENDBRANCH  40  41
ENDBRANCH  39  40
ENDBRANCH  38  39
ENDBRANCH  37  38
ENDBRANCH  36  37
ENDBRANCH  35  36
ENDBRANCH  34  35
ENDBRANCH  33  34
ENDBRANCH  31  33
ENDBRANCH  30  31
ENDBRANCH   8  30
ENDBRANCH   7   8
ENDBRANCH   6   7
ENDBRANCH   4   6
BRANCH   4  50
HETATM   50  O   UNK N   1      46.062  17.996  -1.842  0.00  0.00    -0.307 OA
HETATM   51  H   UNK N   1      45.718  18.318  -2.690  0.00  0.00     0.222 HD
ENDBRANCH   4  50
ENDBRANCH   3   4
ENDBRANCH   2   3
ENDBRANCH   1   2
BRANCH   1  52
HETATM   52  O   UNK N   1      47.748  13.656   0.620  0.00  0.00    -0.391 OA
HETATM   53  H   UNK N   1      46.780  13.599   0.600  0.00  0.00     0.210 HD
ENDBRANCH   1  52
BRANCH   1  54
HETATM   54  C   UNK N   1      49.813  14.756   0.187  0.00  0.00     0.214 C 
BRANCH  54  55
HETATM   55  O   UNK N   1      50.432  16.004   0.237  0.00  0.00    -0.294 OA
BRANCH  55  56
HETATM   56  P   UNK N   1      51.751  15.955  -0.892  0.00  0.00     0.393 P 
HETATM   57  O   UNK N   1      51.806  17.341  -1.590  0.00  0.00    -0.631 OA
BRANCH  56  58
HETATM   58  O   UNK N   1      51.534  14.762  -2.137  0.00  0.00    -0.307 OA
HETATM   59  H   UNK N   1      50.897  14.534  -2.832  0.00  0.00     0.222 HD
ENDBRANCH  56  58
BRANCH  56  60
HETATM   60  O   UNK N   1      53.244  15.746  -0.033  0.00  0.00    -0.294 OA
BRANCH  60  61
HETATM   61  C   UNK N   1      52.995  16.313   1.223  0.00  0.00     0.215 C 
BRANCH  61  62
HETATM   62  C   UNK N   1      53.906  17.500   1.482  0.00  0.00     0.180 C 
BRANCH  62  63
HETATM   63  C   UNK N   1      55.323  17.038   1.804  0.00  0.00     0.213 C 
BRANCH  63  64
HETATM   64  O   UNK N   1      55.876  16.280   0.792  0.00  0.00    -0.319 OA
BRANCH  64  65
HETATM   65  C   UNK N   1      56.510  16.797  -0.293  0.00  0.00     0.258 C 
HETATM   66  O   UNK N   1      57.047  16.037  -1.081  0.00  0.00    -0.265 OA
BRANCH  65  67
HETATM   67  C   UNK N   1      56.564  18.274  -0.565  0.00  0.00     0.111 C 
BRANCH  67  68
HETATM   68  C   UNK N   1      57.182  19.017   0.604  0.00  0.00     0.010 C 
BRANCH  68  69
HETATM   69  C   UNK N   1      57.771  20.331   0.145  0.00  0.00     0.000 C 
BRANCH  69  70
HETATM   70  C   UNK N   1      59.284  20.252   0.270  0.00  0.00     0.000 C 
BRANCH  70  71
HETATM   71  C   UNK N   1      59.932  19.819  -1.039  0.00  0.00     0.000 C 
BRANCH  71  72
HETATM   72  C   UNK N   1      59.588  18.382  -1.409  0.00  0.00     0.000 C 
BRANCH  72  73
HETATM   73  C   UNK N   1      60.724  17.431  -1.081  0.00  0.00     0.000 C 
BRANCH  73  74
HETATM   74  C   UNK N   1      60.665  16.971   0.367  0.00  0.00     0.000 C 
BRANCH  74  75
HETATM   75  C   UNK N   1      61.856  17.490   1.162  0.00  0.00     0.000 C 
BRANCH  75  76
HETATM   76  C   UNK N   1      63.163  16.842   0.728  0.00  0.00     0.000 C 
BRANCH  76  77
HETATM   77  C   UNK N   1      63.759  17.596  -0.449  0.00  0.00     0.000 C 
BRANCH  77  78
HETATM   78  C   UNK N   1      65.197  17.176  -0.666  0.00  0.00     0.000 C 
BRANCH  78  79
HETATM   79  C   UNK N   1      66.099  17.913   0.304  0.00  0.00     0.000 C 
BRANCH  79  80
HETATM   80  C   UNK N   1      67.519  17.421   0.136  0.00  0.00     0.000 C 
BRANCH  80  81
HETATM   81  C   UNK N   1      68.464  18.601   0.165  0.00  0.00    -0.000 C 
BRANCH  81  82
HETATM   82  C   UNK N   1      69.884  18.109  -0.013  0.00  0.00    -0.005 C 
HETATM   83  C   UNK N   1      70.821  19.295  -0.091  0.00  0.00     0.005 C 
ENDBRANCH  81  82
ENDBRANCH  80  81
ENDBRANCH  79  80
ENDBRANCH  78  79
ENDBRANCH  77  78
ENDBRANCH  76  77
ENDBRANCH  75  76
ENDBRANCH  74  75
ENDBRANCH  73  74
ENDBRANCH  72  73
ENDBRANCH  71  72
ENDBRANCH  70  71
ENDBRANCH  69  70
ENDBRANCH  68  69
ENDBRANCH  67  68
ENDBRANCH  65  67
ENDBRANCH  64  65
ENDBRANCH  63  64
ENDBRANCH  62  63
BRANCH  62  84
HETATM   84  O   UNK N   1      53.896  18.380   0.419  0.00  0.00    -0.312 OA
BRANCH  84  85
HETATM   85  C   UNK N   1      53.696  19.712   0.577  0.00  0.00     0.259 C 
HETATM   86  O   UNK N   1      53.512  20.185   1.687  0.00  0.00    -0.265 OA
BRANCH  85  87
HETATM   87  C   UNK N   1      53.809  20.616  -0.616  0.00  0.00     0.111 C 
BRANCH  87  88
HETATM   88  C   UNK N   1      52.534  21.403  -0.895  0.00  0.00     0.010 C 
BRANCH  88  89
HETATM   89  C   UNK N   1      52.363  22.548   0.092  0.00  0.00     0.000 C 
BRANCH  89  90
HETATM   90  C   UNK N   1      51.401  22.122   1.190  0.00  0.00     0.000 C 
BRANCH  90  91
HETATM   91  C   UNK N   1      50.048  22.808   1.080  0.00  0.00     0.000 C 
BRANCH  91  92
HETATM   92  C   UNK N   1      49.358  22.536  -0.252  0.00  0.00     0.000 C 
BRANCH  92  93
HETATM   93  C   UNK N   1      49.643  23.648  -1.257  0.00  0.00     0.000 C 
BRANCH  93  94
HETATM   94  C   UNK N   1      48.908  24.926  -0.881  0.00  0.00     0.000 C 
BRANCH  94  95
HETATM   95  C   UNK N   1      49.699  25.707   0.156  0.00  0.00     0.000 C 
BRANCH  95  96
HETATM   96  C   UNK N   1      48.758  26.392   1.132  0.00  0.00     0.000 C 
BRANCH  96  97
HETATM   97  C   UNK N   1      48.403  27.794   0.668  0.00  0.00     0.000 C 
BRANCH  97  98
HETATM   98  C   UNK N   1      47.382  27.753  -0.454  0.00  0.00     0.000 C 
BRANCH  98  99
HETATM   99  C   UNK N   1      47.033  29.166  -0.872  0.00  0.00     0.000 C 
BRANCH  99 100
HETATM  100  C   UNK N   1      45.959  29.733   0.034  0.00  0.00     0.000 C 
BRANCH 100 101
HETATM  101  C   UNK N   1      45.851  31.222  -0.211  0.00  0.00    -0.000 C 
BRANCH 101 102
HETATM  102  C   UNK N   1      44.522  31.733   0.300  0.00  0.00    -0.005 C 
HETATM  103  C   UNK N   1      44.437  33.225   0.058  0.00  0.00     0.005 C 
ENDBRANCH 101 102
ENDBRANCH 100 101
ENDBRANCH  99 100
ENDBRANCH  98  99
ENDBRANCH  97  98
ENDBRANCH  96  97
ENDBRANCH  95  96
ENDBRANCH  94  95
ENDBRANCH  93  94
ENDBRANCH  92  93
ENDBRANCH  91  92
ENDBRANCH  90  91
ENDBRANCH  89  90
ENDBRANCH  88  89
ENDBRANCH  87  88
ENDBRANCH  85  87
ENDBRANCH  84  85
ENDBRANCH  62  84
ENDBRANCH  61  62
ENDBRANCH  60  61
ENDBRANCH  56  60
ENDBRANCH  55  56
ENDBRANCH  54  55
ENDBRANCH   1  54
TORSDOF 89
