REMARK  4 active torsions:
REMARK  status: ('A' for Active; 'I' for Inactive)
REMARK    1  A    between atoms: C_16  and  C_13 
REMARK    2  A    between atoms: C_15  and  O_24 
REMARK    3  A    between atoms: C_19  and  O_25 
REMARK    4  A    between atoms: C_23  and  O_27 
ROOT
HETATM    1  C   UNK N   1       4.230   1.888   1.697  0.00  0.00     0.016 C 
HETATM    2  C   UNK N   1       0.546   0.660  -1.821  0.00  0.00     0.022 C 
HETATM    3  C   UNK N   1       4.690   4.068  -0.911  0.00  0.00     0.006 C 
HETATM    4  C   UNK N   1       3.209   3.972  -0.560  0.00  0.00     0.008 C 
HETATM    5  C   UNK N   1       7.156   1.000   0.899  0.00  0.00     0.032 C 
HETATM    6  C   UNK N   1      -1.086   2.231   0.004  0.00  0.00     0.013 C 
HETATM    7  C   UNK N   1       5.807   0.561   0.356  0.00  0.00     0.012 C 
HETATM    8  C   UNK N   1       0.118   3.141  -0.362  0.00  0.00     0.040 C 
HETATM    9  C   UNK N   1       6.818   2.799  -0.893  0.00  0.00     0.037 C 
HETATM   10  C   UNK N   1       3.156   0.020  -0.743  0.00  0.00     0.038 C 
HETATM   11  C   UNK N   1       5.555   3.097  -0.078  0.00  0.00    -0.004 C 
HETATM   12  C   UNK N   1       7.830   1.957  -0.089  0.00  0.00     0.118 C 
HETATM   13  C   UNK N   1      -0.480   0.889   0.454  0.00  0.00     0.030 C 
HETATM   14  C   UNK N   1       2.635   2.584  -0.908  0.00  0.00     0.026 C 
HETATM   15  C   UNK N   1       3.733   1.455  -0.776  0.00  0.00     0.003 C 
HETATM   16  C   UNK N   1       1.898  -0.178   0.107  0.00  0.00     0.130 C 
HETATM   17  C   UNK N   1       4.818   1.750   0.301  0.00  0.00    -0.036 C 
HETATM   18  C   UNK N   1       0.850   0.875  -0.312  0.00  0.00     0.021 C 
HETATM   19  C   UNK N   1       1.361   2.299  -0.056  0.00  0.00     0.072 C 
ENDROOT
BRANCH  13  20
HETATM   20  C   UNK N   1      -1.308  -0.341   0.166  0.00  0.00    -0.045 A 
HETATM   21  C   UNK N   1      -0.936  -1.558   0.533  0.00  0.00     0.087 A 
HETATM   22  C   UNK N   1      -1.914  -2.435  -0.030  0.00  0.00     0.283 A 
HETATM   23  O   UNK N   1      -1.892  -3.650   0.052  0.00  0.00    -0.260 OA
HETATM   24  O   UNK N   1      -2.842  -1.748  -0.713  0.00  0.00    -0.314 OA
HETATM   25  C   UNK N   1      -2.580  -0.388  -0.655  0.00  0.00     0.213 A 
ENDBRANCH  13  20
BRANCH  16  26
HETATM   26  O   UNK N   1       2.201  -0.104   1.468  0.00  0.00    -0.395 OA
HETATM   27  H   UNK N   1       2.350  -0.260   2.414  0.00  0.00     0.210 HD
ENDBRANCH  16  26
BRANCH  19  28
HETATM   28  O   UNK N   1       1.639   2.490   1.303  0.00  0.00    -0.389 OA
HETATM   29  H   UNK N   1       1.850   2.389   2.245  0.00  0.00     0.210 HD
ENDBRANCH  19  28
BRANCH  12  30
HETATM   30  O   UNK N   1       8.679   2.802   0.624  0.00  0.00    -0.396 OA
HETATM   31  H   UNK N   1       9.483   2.585   1.121  0.00  0.00     0.210 HD
ENDBRANCH  12  30
TORSDOF 4
