REMARK  13 active torsions:
REMARK  status: ('A' for Active; 'I' for Inactive)
REMARK    1  A    between atoms: C_6  and  C_2 
REMARK    2  A    between atoms: O_32  and  C_2 
REMARK    3  A    between atoms: C_7  and  C_5 
REMARK    4  A    between atoms: C_5  and  O_26 
REMARK    5  A    between atoms: C_13  and  C_7 
REMARK    6  A    between atoms: C_7  and  N_15 
REMARK    7  A    between atoms: C_9  and  O_27 
REMARK    8  A    between atoms: C_10  and  O_28 
REMARK    9  A    between atoms: N_16  and  C_11 
REMARK   10  A    between atoms: O_29  and  C_13 
REMARK   11  A    between atoms: C_14  and  N_25 
REMARK   12  A    between atoms: N_23  and  S_34 
REMARK   13  A    between atoms: S_34  and  O_32 
ROOT
HETATM    1  C   UNK N   1       0.023  -1.518   0.546  0.00  0.00     0.180 C 
HETATM    2  C   UNK N   1       1.450  -1.904   1.045  0.00  0.00     0.182 C 
HETATM    3  C   UNK N   1       2.068  -0.554   1.262  0.00  0.00     0.198 C 
HETATM    4  C   UNK N   1       1.378   0.181   0.129  0.00  0.00     0.262 C 
HETATM    5  O   UNK N   1       0.019  -0.126   0.284  0.00  0.00    -0.353 OA
ENDROOT
BRANCH   1   6
HETATM    6  C   UNK N   1      -0.387  -2.209  -0.760  0.00  0.00     0.226 C 
BRANCH   6   7
HETATM    7  O   UNK N   1       0.069  -3.527  -0.833  0.00  0.00    -0.257 OA
BRANCH   7   8
HETATM    8  S   UNK N   1      -1.324  -4.485  -0.672  0.00  0.00     0.363 S 
HETATM    9  O   UNK N   1      -0.972  -5.915  -1.102  0.00  0.00    -0.175 OA
HETATM   10  O   UNK N   1      -1.709  -4.560   0.813  0.00  0.00    -0.175 OA
BRANCH   8  11
HETATM   11  N   UNK N   1      -2.601  -3.865  -1.720  0.00  0.00    -0.243 N 
HETATM   12  C   UNK N   1      -3.809  -3.559  -1.389  0.00  0.00     0.152 C 
ATOM     13  HN  UNK N   1      -2.355  -3.732  -2.701  1.00  0.00     0.182 HD
BRANCH  12  14
HETATM   14  C   UNK N   1      -4.361  -3.795   0.006  0.00  0.00     0.179 C 
BRANCH  14  15
HETATM   15  C   UNK N   1      -5.765  -3.207   0.229  0.00  0.00     0.144 C 
HETATM   16  C   UNK N   1      -6.804  -3.779  -0.725  0.00  0.00     0.042 C 
BRANCH  15  17
HETATM   17  O   UNK N   1      -5.723  -1.817   0.091  0.00  0.00    -0.393 OA
HETATM   18  H   UNK N   1      -4.873  -1.360  -0.005  0.00  0.00     0.210 HD
ENDBRANCH  15  17
ENDBRANCH  14  15
BRANCH  14  19
HETATM   19  N   UNK N   1      -4.391  -5.228   0.271  0.00  0.00    -0.417 N 
HETATM   20  H   UNK N   1      -5.269  -5.711   0.456  0.00  0.00     0.150 HD
HETATM   21  H   UNK N   1      -3.518  -5.756   0.271  0.00  0.00     0.150 HD
ENDBRANCH  14  19
ENDBRANCH  12  14
BRANCH  12  22
HETATM   22  O   UNK N   1      -4.597  -3.001  -2.329  0.00  0.00    -0.347 OA
HETATM   23  H   UNK N   1      -4.535  -2.333  -2.983  0.00  0.00     0.219 HD
ENDBRANCH  12  22
ENDBRANCH   8  11
ENDBRANCH   7   8
ENDBRANCH   6   7
ENDBRANCH   1   6
BRANCH   2  24
HETATM   24  O   UNK N   1       2.202  -2.540   0.047  0.00  0.00    -0.390 OA
HETATM   25  H   UNK N   1       2.080  -3.210  -0.644  0.00  0.00     0.210 HD
ENDBRANCH   2  24
BRANCH   3  26
HETATM   26  O   UNK N   1       1.659  -0.027   2.491  0.00  0.00    -0.388 OA
HETATM   27  H   UNK N   1       1.834   0.402   3.344  0.00  0.00     0.210 HD
ENDBRANCH   3  26
BRANCH   4  28
HETATM   28  N   UNK N   1       1.640   1.612   0.129  0.00  0.00    -0.297 N 
HETATM   29  C   UNK N   1       0.765   2.642   0.261  0.00  0.00     0.188 A 
HETATM   30  N   UNK N   1       1.397   3.844   0.121  0.00  0.00    -0.346 N 
HETATM   31  C   UNK N   1       2.685   3.517  -0.108  0.00  0.00     0.122 A 
ATOM     32  HN  UNK N   1       0.988   4.776   0.177  1.00  0.00     0.167 HD
HETATM   33  C   UNK N   1       3.783   4.323  -0.358  0.00  0.00     0.131 A 
HETATM   34  C   UNK N   1       2.824   2.182  -0.095  0.00  0.00     0.142 A 
HETATM   35  N   UNK N   1       4.989   3.715  -0.578  0.00  0.00    -0.337 N 
HETATM   36  C   UNK N   1       5.105   2.346  -0.555  0.00  0.00     0.183 A 
ATOM     37  HN  UNK N   1       5.814   4.286  -0.761  1.00  0.00     0.168 HD
HETATM   38  N   UNK N   1       4.010   1.563  -0.318  0.00  0.00    -0.336 N 
ATOM     39  HN  UNK N   1       4.082   0.546  -0.309  1.00  0.00     0.168 HD
BRANCH  33  40
HETATM   40  N   UNK N   1       3.668   5.726  -0.403  0.00  0.00    -0.383 N 
HETATM   41  H   UNK N   1       4.477   6.286  -0.435  0.00  0.00     0.157 HD
HETATM   42  H   UNK N   1       2.778   6.147  -0.403  0.00  0.00     0.157 HD
ENDBRANCH  33  40
ENDBRANCH   4  28
TORSDOF 13
