REMARK  4 active torsions:
REMARK  status: ('A' for Active; 'I' for Inactive)
REMARK    1  A    between atoms: C_2  and  O_4 
REMARK    2  A    between atoms: O_4  and  P_5 
REMARK    3  A    between atoms: P_5  and  O_6 
REMARK    4  A    between atoms: P_5  and  O_7 
ROOT
HETATM    1  P   UNK N   1       1.334   0.507  -0.655  0.00  0.00     0.391 P 
HETATM    2  O   UNK N   1       0.288   1.113   0.319  0.00  0.00    -0.632 OA
ENDROOT
BRANCH   1   3
HETATM    3  O   UNK N   1       1.028  -0.817   0.434  0.00  0.00    -0.292 OA
BRANCH   3   4
HETATM    4  C   UNK N   1       0.267  -1.737  -0.297  0.00  0.00     0.125 C 
HETATM    5  C   UNK N   1       0.757  -3.143  -0.020  0.00  0.00     0.040 C 
HETATM    6  C   UNK N   1      -1.194  -1.626   0.099  0.00  0.00     0.040 C 
ENDBRANCH   3   4
ENDBRANCH   1   3
BRANCH   1   7
HETATM    7  O   UNK N   1       2.100   1.955  -0.083  0.00  0.00    -0.307 OA
HETATM    8  H   UNK N   1       3.015   1.989   0.236  0.00  0.00     0.222 HD
ENDBRANCH   1   7
BRANCH   1   9
HETATM    9  O   UNK N   1       2.793   0.122   0.203  0.00  0.00    -0.307 OA
HETATM   10  H   UNK N   1       3.015  -0.692   0.682  0.00  0.00     0.222 HD
ENDBRANCH   1   9
TORSDOF 4
