REMARK  4 active torsions:
REMARK  status: ('A' for Active; 'I' for Inactive)
REMARK    1  A    between atoms: C_8  and  C_3 
REMARK    2  A    between atoms: O_19  and  C_3 
REMARK    3  A    between atoms: C_7  and  O_20 
REMARK    4  A    between atoms: C_9  and  N_18 
ROOT
HETATM    1  C   UNK N   1       3.293   4.876   0.502  0.00  0.00     0.070 C 
HETATM    2  C   UNK N   1       4.229   1.482  -0.791  0.00  0.00     0.182 A 
HETATM    3  C   UNK N   1       0.026   2.008   0.490  0.00  0.00     0.187 A 
HETATM    4  C   UNK N   1       3.203   3.449   0.092  0.00  0.00     0.037 A 
HETATM    5  C   UNK N   1       2.016   2.736   0.185  0.00  0.00     0.100 A 
HETATM    6  C   UNK N   1       1.967   1.453  -0.221  0.00  0.00     0.140 A 
HETATM    7  N   UNK N   1       4.301   2.797  -0.397  0.00  0.00    -0.354 N 
ATOM      8  HN  UNK N   1       5.189   3.294  -0.470  1.00  0.00     0.166 HD
HETATM    9  N   UNK N   1       3.046   0.799  -0.713  0.00  0.00    -0.336 N 
ATOM     10  HN  UNK N   1       2.979  -0.173  -1.015  1.00  0.00     0.168 HD
HETATM   11  N   UNK N   1       0.806   3.118   0.636  0.00  0.00    -0.347 N 
ATOM     12  HN  UNK N   1       0.535   4.030   1.004  1.00  0.00     0.167 HD
HETATM   13  N   UNK N   1       0.730   0.976  -0.045  0.00  0.00    -0.300 N 
ENDROOT
BRANCH  13  14
HETATM   14  C   UNK N   1       0.253  -0.356  -0.422  0.00  0.00     0.233 C 
HETATM   15  C   UNK N   1      -1.113  -0.688   0.162  0.00  0.00     0.088 C 
HETATM   16  C   UNK N   1      -1.074  -2.168  -0.025  0.00  0.00     0.153 C 
HETATM   17  C   UNK N   1       0.360  -2.464   0.387  0.00  0.00     0.176 C 
HETATM   18  O   UNK N   1       1.150  -1.358   0.007  0.00  0.00    -0.356 OA
BRANCH  16  19
HETATM   19  O   UNK N   1      -2.004  -2.840   0.770  0.00  0.00    -0.393 OA
HETATM   20  H   UNK N   1      -2.732  -2.513   1.322  0.00  0.00     0.210 HD
ENDBRANCH  16  19
BRANCH  17  21
HETATM   21  C   UNK N   1       0.854  -3.739  -0.288  0.00  0.00     0.198 C 
BRANCH  21  22
HETATM   22  O   UNK N   1       2.212  -3.931  -0.032  0.00  0.00    -0.398 OA
HETATM   23  H   UNK N   1       2.569  -4.816   0.145  0.00  0.00     0.209 HD
ENDBRANCH  21  22
ENDBRANCH  17  21
ENDBRANCH  13  14
TORSDOF 4
