REMARK  9 active torsions:
REMARK  status: ('A' for Active; 'I' for Inactive)
REMARK    1  A    between atoms: C_3  and  C_1 
REMARK    2  A    between atoms: O_24  and  C_1 
REMARK    3  A    between atoms: C_9  and  C_5 
REMARK    4  A    between atoms: C_7  and  O_19 
REMARK    5  A    between atoms: C_8  and  O_20 
REMARK    6  A    between atoms: N_11  and  C_10 
REMARK    7  A    between atoms: P_26  and  O_21 
REMARK    8  A    between atoms: P_26  and  O_22 
REMARK    9  A    between atoms: P_26  and  O_24 
ROOT
HETATM    1  C   UNK N   1       1.301   3.740  -0.572  0.00  0.00     0.178 C 
HETATM    2  C   UNK N   1       0.268   3.431   0.529  0.00  0.00     0.180 C 
HETATM    3  C   UNK N   1      -0.582   2.434  -0.196  0.00  0.00     0.184 C 
HETATM    4  C   UNK N   1       0.462   1.662  -0.999  0.00  0.00     0.207 C 
HETATM    5  O   UNK N   1       1.371   2.635  -1.463  0.00  0.00    -0.367 OA
ENDROOT
BRANCH   4   6
HETATM    6  C   UNK N   1       1.226   0.557  -0.294  0.00  0.00     0.086 A 
HETATM    7  C   UNK N   1       2.594   0.409  -0.179  0.00  0.00     0.092 A 
HETATM    8  C   UNK N   1       2.792  -0.779   0.430  0.00  0.00     0.120 A 
HETATM    9  N   UNK N   1       3.623   1.189  -0.591  0.00  0.00    -0.349 N 
HETATM   10  C   UNK N   1       4.079  -1.242   0.655  0.00  0.00     0.130 A 
HETATM   11  N   UNK N   1       1.606  -1.353   0.703  0.00  0.00    -0.295 N 
HETATM   12  N   UNK N   1       5.123  -0.456   0.253  0.00  0.00    -0.337 N 
HETATM   13  C   UNK N   1       4.900   0.752  -0.361  0.00  0.00     0.182 A 
ATOM     14  HN  UNK N   1       6.080  -0.771   0.410  1.00  0.00     0.168 HD
HETATM   15  N   UNK N   1       0.648  -0.540   0.257  0.00  0.00    -0.299 N 
ATOM     16  HN  UNK N   1       1.465  -2.250   1.168  1.00  0.00     0.187 HD
HETATM   17  H   UNK N   1      -0.321  -0.708   0.317  0.00  0.00     0.186 HD
ATOM     18  HN  UNK N   1       3.451   2.079  -1.060  1.00  0.00     0.167 HD
BRANCH  10  19
HETATM   19  N   UNK N   1       4.315  -2.493   1.260  0.00  0.00    -0.383 N 
HETATM   20  H   UNK N   1       3.641  -3.073   1.682  0.00  0.00     0.157 HD
HETATM   21  H   UNK N   1       5.244  -2.819   1.260  0.00  0.00     0.157 HD
ENDBRANCH  10  19
ENDBRANCH   4   6
BRANCH   3  22
HETATM   22  O   UNK N   1      -1.366   1.638   0.644  0.00  0.00    -0.390 OA
HETATM   23  H   UNK N   1      -2.116   1.834   1.228  0.00  0.00     0.210 HD
ENDBRANCH   3  22
BRANCH   2  24
HETATM   24  O   UNK N   1       0.869   2.816   1.634  0.00  0.00    -0.390 OA
HETATM   25  H   UNK N   1       0.708   2.242   2.399  0.00  0.00     0.210 HD
ENDBRANCH   2  24
BRANCH   1  26
HETATM   26  C   UNK N   1       2.699   3.998  -0.015  0.00  0.00     0.215 C 
BRANCH  26  27
HETATM   27  O   UNK N   1       2.770   5.167   0.742  0.00  0.00    -0.294 OA
BRANCH  27  28
HETATM   28  P   UNK N   1       3.763   6.220  -0.220  0.00  0.00     0.390 P 
HETATM   29  O   UNK N   1       2.692   7.193   0.339  0.00  0.00    -0.632 OA
BRANCH  28  30
HETATM   30  O   UNK N   1       4.730   7.468   0.496  0.00  0.00    -0.307 OA
HETATM   31  H   UNK N   1       5.605   7.348   0.897  0.00  0.00     0.222 HD
ENDBRANCH  28  30
BRANCH  28  32
HETATM   32  O   UNK N   1       4.718   5.604   1.097  0.00  0.00    -0.307 OA
HETATM   33  H   UNK N   1       4.687   4.970   1.831  0.00  0.00     0.222 HD
ENDBRANCH  28  32
ENDBRANCH  27  28
ENDBRANCH  26  27
ENDBRANCH   1  26
TORSDOF 9
