REMARK  27 active torsions:
REMARK  status: ('A' for Active; 'I' for Inactive)
REMARK    1  A    between atoms: C_3  and  C_1 
REMARK    2  A    between atoms: C_5  and  C_1 
REMARK    3  A    between atoms: C_4  and  C_2 
REMARK    4  A    between atoms: C_6  and  C_2 
REMARK    5  A    between atoms: N_30  and  C_3 
REMARK    6  A    between atoms: N_32  and  C_4 
REMARK    7  A    between atoms: O_47  and  C_5 
REMARK    8  A    between atoms: O_48  and  C_6 
REMARK    9  A    between atoms: C_13  and  C_10 
REMARK   10  A    between atoms: N_34  and  C_10 
REMARK   11  A    between atoms: C_16  and  C_11 
REMARK   12  A    between atoms: O_37  and  C_11 
REMARK   13  A    between atoms: C_17  and  C_12 
REMARK   14  A    between atoms: O_38  and  C_12 
REMARK   15  A    between atoms: C_24  and  C_14 
REMARK   16  A    between atoms: C_25  and  C_15 
REMARK   17  A    between atoms: C_18  and  O_39 
REMARK   18  A    between atoms: C_19  and  O_40 
REMARK   19  A    between atoms: C_20  and  O_41 
REMARK   20  A    between atoms: C_21  and  O_42 
REMARK   21  A    between atoms: C_22  and  O_43 
REMARK   22  A    between atoms: O_45  and  C_24 
REMARK   23  A    between atoms: O_46  and  C_25 
REMARK   24  A    between atoms: C_26  and  O_47 
REMARK   25  A    between atoms: C_27  and  O_48 
REMARK   26  A    between atoms: N_36  and  N_28 
REMARK   27  A    between atoms: N_36  and  N_34 
ROOT
HETATM    1  C   UNK N   1       6.354   3.405   0.346  0.00  0.00     0.179 C 
HETATM    2  C   UNK N   1       6.284   4.857  -0.184  0.00  0.00     0.180 C 
HETATM    3  C   UNK N   1       4.906   5.448   0.128  0.00  0.00     0.183 C 
HETATM    4  C   UNK N   1       3.844   4.545  -0.498  0.00  0.00     0.204 C 
HETATM    5  C   UNK N   1       4.045   3.094   0.010  0.00  0.00     0.291 C 
HETATM    6  O   UNK N   1       3.948   4.579  -1.892  0.00  0.00    -0.388 OA
HETATM    7  O   UNK N   1       5.344   2.616  -0.230  0.00  0.00    -0.348 OA
HETATM    8  H   UNK N   1       4.004   4.529  -2.859  0.00  0.00     0.210 HD
ENDROOT
BRANCH   3   9
HETATM    9  O   UNK N   1       4.804   6.743  -0.390  0.00  0.00    -0.390 OA
HETATM   10  H   UNK N   1       5.546   7.254  -0.749  0.00  0.00     0.210 HD
ENDBRANCH   3   9
BRANCH   5  11
HETATM   11  O   UNK N   1       3.212   2.241  -0.738  0.00  0.00    -0.358 OA
BRANCH  11  12
HETATM   12  C   UNK N   1       2.461   1.429   0.120  0.00  0.00     0.172 C 
BRANCH  12  13
HETATM   13  C   UNK N   1       1.278   2.221   0.598  0.00  0.00     0.046 C 
BRANCH  13  14
HETATM   14  C   UNK N   1       0.792   3.091  -0.541  0.00  0.00     0.123 C 
BRANCH  14  15
HETATM   15  N   UNK N   1       0.330   4.327   0.004  0.00  0.00    -0.370 N 
HETATM   16  C   UNK N   1      -0.873   4.471   0.413  0.00  0.00     0.146 C 
ATOM     17  HN  UNK N   1       0.975   5.114   0.068  1.00  0.00     0.161 HD
BRANCH  16  18
HETATM   18  C   UNK N   1      -1.858   3.354   0.377  0.00  0.00     0.016 A 
HETATM   19  C   UNK N   1      -1.587   1.994   0.574  0.00  0.00     0.024 A 
HETATM   20  C   UNK N   1      -2.612   1.038   0.440  0.00  0.00    -0.036 A 
HETATM   21  C   UNK N   1      -3.904   1.454   0.063  0.00  0.00     0.024 A 
HETATM   22  C   UNK N   1      -4.133   2.813  -0.193  0.00  0.00     0.016 A 
HETATM   23  C   UNK N   1      -3.105   3.696  -0.001  0.00  0.00     0.031 A 
BRANCH  20  24
HETATM   24  C   UNK N   1      -2.327  -0.425   0.601  0.00  0.00     0.194 C 
BRANCH  24  25
HETATM   25  N   UNK N   1      -0.916  -0.736   0.458  0.00  0.00    -0.248 N 
ATOM     26  HN  UNK N   1      -0.403  -1.131   1.246  1.00  0.00     0.197 HD
BRANCH  25  27
HETATM   27  N   UNK N   1      -0.340  -0.529  -0.598  0.00  0.00    -0.248 NA
BRANCH  27  28
HETATM   28  N   UNK N   1       0.220  -0.336  -1.662  0.00  0.00    -0.261 N 
HETATM   29  H   UNK N   1       0.581  -0.649  -2.523  0.00  0.00     0.193 HD
ATOM     30  HN  UNK N   1       0.414   0.666  -1.662  1.00  0.00     0.193 HD
ENDBRANCH  27  28
ENDBRANCH  25  27
ENDBRANCH  24  25
ENDBRANCH  20  24
BRANCH  22  31
HETATM   31  C   UNK N   1      -5.419   3.352  -0.701  0.00  0.00     0.146 C 
HETATM   32  N   UNK N   1      -5.494   4.458  -1.394  0.00  0.00    -0.370 N 
ATOM     33  HN  UNK N   1      -6.428   4.802  -1.617  1.00  0.00     0.161 HD
BRANCH  32  34
HETATM   34  C   UNK N   1      -4.359   5.248  -1.880  0.00  0.00     0.123 C 
BRANCH  34  35
HETATM   35  C   UNK N   1      -3.767   6.273  -0.888  0.00  0.00     0.046 C 
BRANCH  35  36
HETATM   36  C   UNK N   1      -4.312   6.096   0.539  0.00  0.00     0.172 C 
BRANCH  36  37
HETATM   37  O   UNK N   1      -4.809   7.284   1.075  0.00  0.00    -0.358 OA
BRANCH  37  38
HETATM   38  C   UNK N   1      -5.920   7.705   0.318  0.00  0.00     0.291 C 
HETATM   39  C   UNK N   1      -7.239   7.078   0.833  0.00  0.00     0.204 C 
HETATM   40  C   UNK N   1      -8.420   7.687   0.049  0.00  0.00     0.183 C 
HETATM   41  C   UNK N   1      -8.316   9.224   0.049  0.00  0.00     0.180 C 
HETATM   42  C   UNK N   1      -6.923   9.615  -0.488  0.00  0.00     0.179 C 
HETATM   43  O   UNK N   1      -5.949   9.119   0.404  0.00  0.00    -0.348 OA
BRANCH  39  44
HETATM   44  O   UNK N   1      -7.232   5.689   0.660  0.00  0.00    -0.388 OA
HETATM   45  H   UNK N   1      -8.064   5.203   0.541  0.00  0.00     0.210 HD
ENDBRANCH  39  44
BRANCH  40  46
HETATM   46  O   UNK N   1      -8.401   7.229  -1.274  0.00  0.00    -0.390 OA
HETATM   47  H   UNK N   1      -8.669   7.058  -2.191  0.00  0.00     0.210 HD
ENDBRANCH  40  46
BRANCH  41  48
HETATM   48  O   UNK N   1      -8.473   9.700   1.356  0.00  0.00    -0.390 OA
HETATM   49  H   UNK N   1      -8.242   9.959   2.262  0.00  0.00     0.210 HD
ENDBRANCH  41  48
BRANCH  42  50
HETATM   50  C   UNK N   1      -6.722  11.111  -0.725  0.00  0.00     0.198 C 
BRANCH  50  51
HETATM   51  O   UNK N   1      -7.278  11.894   0.285  0.00  0.00    -0.398 OA
HETATM   52  H   UNK N   1      -6.999  12.501   0.988  0.00  0.00     0.209 HD
ENDBRANCH  50  51
ENDBRANCH  42  50
ENDBRANCH  37  38
ENDBRANCH  36  37
ENDBRANCH  35  36
ENDBRANCH  34  35
ENDBRANCH  32  34
BRANCH  31  53
HETATM   53  O   UNK N   1      -6.548   2.660  -0.462  0.00  0.00    -0.346 OA
HETATM   54  H   UNK N   1      -7.359   3.100  -0.296  0.00  0.00     0.219 HD
ENDBRANCH  31  53
ENDBRANCH  22  31
ENDBRANCH  16  18
BRANCH  16  55
HETATM   55  O   UNK N   1      -1.282   5.703   0.777  0.00  0.00    -0.346 OA
HETATM   56  H   UNK N   1      -0.682   6.377   1.030  0.00  0.00     0.219 HD
ENDBRANCH  16  55
ENDBRANCH  14  15
ENDBRANCH  13  14
ENDBRANCH  12  13
ENDBRANCH  11  12
ENDBRANCH   5  11
BRANCH   2  57
HETATM   57  O   UNK N   1       7.273   5.646   0.407  0.00  0.00    -0.390 OA
HETATM   58  H   UNK N   1       8.091   5.325   0.817  0.00  0.00     0.210 HD
ENDBRANCH   2  57
BRANCH   1  59
HETATM   59  C   UNK N   1       7.642   2.711  -0.090  0.00  0.00     0.198 C 
BRANCH  59  60
HETATM   60  O   UNK N   1       8.783   3.427   0.256  0.00  0.00    -0.398 OA
HETATM   61  H   UNK N   1       9.614   2.988   0.498  0.00  0.00     0.209 HD
ENDBRANCH  59  60
ENDBRANCH   1  59
TORSDOF 27
