REMARK  19 active torsions:
REMARK  status: ('A' for Active; 'I' for Inactive)
REMARK    1  A    between atoms: C_5  and  C_2 
REMARK    2  A    between atoms: C_7  and  C_2 
REMARK    3  A    between atoms: C_6  and  C_3 
REMARK    4  A    between atoms: C_8  and  C_3 
REMARK    5  A    between atoms: N_30  and  C_5 
REMARK    6  A    between atoms: N_31  and  C_6 
REMARK    7  A    between atoms: N_35  and  C_7 
REMARK    8  A    between atoms: N_36  and  C_8 
REMARK    9  A    between atoms: C_22  and  C_17 
REMARK   10  A    between atoms: C_24  and  C_17 
REMARK   11  A    between atoms: C_23  and  C_18 
REMARK   12  A    between atoms: O_37  and  C_18 
REMARK   13  A    between atoms: C_28  and  C_19 
REMARK   14  A    between atoms: N_33  and  C_20 
REMARK   15  A    between atoms: O_43  and  C_21 
REMARK   16  A    between atoms: O_38  and  C_24 
REMARK   17  A    between atoms: C_25  and  O_39 
REMARK   18  A    between atoms: O_42  and  C_28 
REMARK   19  A    between atoms: C_29  and  O_43 
ROOT
HETATM    1  C   UNK N   1      -1.767  -1.163  -0.137  0.00  0.00     0.179 C 
HETATM    2  C   UNK N   1      -0.674  -2.230   0.166  0.00  0.00     0.180 C 
HETATM    3  C   UNK N   1       0.720  -1.687  -0.190  0.00  0.00     0.183 C 
HETATM    4  C   UNK N   1       0.833  -0.216   0.194  0.00  0.00     0.205 C 
HETATM    5  C   UNK N   1      -0.347   0.627  -0.446  0.00  0.00     0.298 C 
HETATM    6  O   UNK N   1       0.925  -1.789  -1.572  0.00  0.00    -0.390 OA
HETATM    7  O   UNK N   1       0.807  -0.081   1.585  0.00  0.00    -0.388 OA
HETATM    8  O   UNK N   1      -1.300  -0.219  -1.090  0.00  0.00    -0.348 OA
HETATM    9  H   UNK N   1       0.935  -1.947  -2.529  0.00  0.00     0.210 HD
HETATM   10  H   UNK N   1       0.880  -0.019   2.551  0.00  0.00     0.210 HD
ENDROOT
BRANCH   2  11
HETATM   11  O   UNK N   1      -0.882  -3.418  -0.543  0.00  0.00    -0.390 OA
HETATM   12  H   UNK N   1      -1.668  -3.705  -1.035  0.00  0.00     0.210 HD
ENDBRANCH   2  11
BRANCH   1  13
HETATM   13  C   UNK N   1      -3.094  -1.763  -0.583  0.00  0.00     0.198 C 
BRANCH  13  14
HETATM   14  O   UNK N   1      -3.623  -2.571   0.425  0.00  0.00    -0.398 OA
HETATM   15  H   UNK N   1      -4.293  -2.534   1.125  0.00  0.00     0.209 HD
ENDBRANCH  13  14
ENDBRANCH   1  13
BRANCH   5  16
HETATM   16  O   UNK N   1       0.086   1.615  -1.325  0.00  0.00    -0.318 OA
BRANCH  16  17
HETATM   17  C   UNK N   1       0.892   2.599  -0.867  0.00  0.00     0.075 A 
HETATM   18  C   UNK N   1       0.367   3.808  -0.400  0.00  0.00     0.052 A 
HETATM   19  C   UNK N   1       1.212   4.717   0.253  0.00  0.00     0.019 A 
HETATM   20  C   UNK N   1       2.553   4.363   0.517  0.00  0.00     0.045 A 
HETATM   21  C   UNK N   1       3.076   3.166   0.017  0.00  0.00     0.037 A 
HETATM   22  C   UNK N   1       2.231   2.321  -0.680  0.00  0.00     0.066 A 
BRANCH  19  23
HETATM   23  C   UNK N   1       0.666   5.972   0.801  0.00  0.00     0.146 C 
HETATM   24  N   UNK N   1       0.840   7.117   0.224  0.00  0.00    -0.370 N 
ATOM     25  HN  UNK N   1       0.495   7.942   0.715  1.00  0.00     0.161 HD
BRANCH  24  26
HETATM   26  C   UNK N   1       1.484   7.331  -1.062  0.00  0.00     0.123 C 
BRANCH  26  27
HETATM   27  C   UNK N   1       2.902   6.782  -1.174  0.00  0.00     0.050 C 
BRANCH  27  28
HETATM   28  C   UNK N   1       3.742   7.096   0.048  0.00  0.00     0.274 C 
BRANCH  28  29
HETATM   29  N   UNK N   1       4.974   7.719  -0.373  0.00  0.00     0.091 N 
HETATM   30  C   UNK N   1       4.851   9.128  -0.021  0.00  0.00     0.302 C 
HETATM   31  C   UNK N   1       6.143   9.841  -0.377  0.00  0.00     0.302 C 
HETATM   32  N   UNK N   1       7.248   9.263   0.391  0.00  0.00     0.091 N 
HETATM   33  C   UNK N   1       7.371   7.841   0.064  0.00  0.00     0.302 C 
HETATM   34  C   UNK N   1       6.063   7.122   0.397  0.00  0.00     0.302 C 
BRANCH  32  35
HETATM   35  C   UNK N   1       8.471   9.917  -0.046  0.00  0.00     0.274 C 
BRANCH  35  36
HETATM   36  C   UNK N   1       8.526  11.334   0.496  0.00  0.00     0.049 C 
BRANCH  36  37
HETATM   37  C   UNK N   1       9.561  12.127  -0.268  0.00  0.00     0.112 C 
BRANCH  37  38
HETATM   38  N   UNK N   1       9.460  13.526   0.103  0.00  0.00    -0.430 N 
HETATM   39  H   UNK N   1      10.277  14.080   0.363  0.00  0.00     0.149 HD
HETATM   40  H   UNK N   1       8.543  13.972   0.103  0.00  0.00     0.149 HD
ENDBRANCH  37  38
ENDBRANCH  36  37
ENDBRANCH  35  36
ENDBRANCH  32  35
ENDBRANCH  28  29
ENDBRANCH  27  28
ENDBRANCH  26  27
ENDBRANCH  24  26
BRANCH  23  41
HETATM   41  O   UNK N   1      -0.044   5.919   1.944  0.00  0.00    -0.346 OA
HETATM   42  H   UNK N   1      -0.323   6.329   2.739  0.00  0.00     0.219 HD
ENDBRANCH  23  41
ENDBRANCH  19  23
BRANCH  21  43
HETATM   43  N   UNK N   1       4.365   2.700   0.417  0.00  0.00    -0.340 N 
HETATM   44  C   UNK N   1       4.995   1.728  -0.175  0.00  0.00     0.120 C 
ATOM     45  HN  UNK N   1       4.817   3.153   1.211  1.00  0.00     0.167 HD
BRANCH  44  46
HETATM   46  C   UNK N   1       6.227   1.145   0.440  0.00  0.00     0.130 C 
BRANCH  46  47
HETATM   47  C   UNK N   1       6.130  -0.354   0.408  0.00  0.00    -0.010 A 
HETATM   48  C   UNK N   1       7.000  -1.207  -0.267  0.00  0.00     0.015 A 
HETATM   49  C   UNK N   1       6.611  -2.576  -0.183  0.00  0.00     0.008 A 
HETATM   50  C   UNK N   1       5.434  -2.794   0.548  0.00  0.00     0.050 A 
HETATM   51  S   UNK N   1       4.931  -1.295   1.059  0.00  0.00    -0.106 SA
ENDBRANCH  46  47
ENDBRANCH  44  46
BRANCH  44  52
HETATM   52  O   UNK N   1       4.539   1.197  -1.331  0.00  0.00    -0.349 OA
HETATM   53  H   UNK N   1       4.062   1.288  -2.132  0.00  0.00     0.219 HD
ENDBRANCH  44  52
ENDBRANCH  21  43
ENDBRANCH  16  17
ENDBRANCH   5  16
TORSDOF 19
