REMARK  9 active torsions:
REMARK  status: ('A' for Active; 'I' for Inactive)
REMARK    1  A    between atoms: C_1  and  C_2 
REMARK    2  A    between atoms: C_2  and  C_3 
REMARK    3  A    between atoms: C_2  and  O_6 
REMARK    4  A    between atoms: C_3  and  C_4 
REMARK    5  A    between atoms: C_3  and  O_8 
REMARK    6  A    between atoms: C_4  and  O_5 
REMARK    7  A    between atoms: O_5  and  P_9 
REMARK    8  A    between atoms: P_9  and  O_10 
REMARK    9  A    between atoms: P_9  and  O_11 
ROOT
HETATM    1  C   UNK N   1      12.862 -19.491   0.208  0.00  0.00     0.177 C 
ENDROOT
BRANCH   1   2
HETATM    2  C   UNK N   1      11.696 -18.569  -0.160  0.00  0.00     0.209 C 
BRANCH   2   3
HETATM    3  C   UNK N   1      10.421 -18.975   0.512  0.00  0.00     0.265 C 
HETATM    4  O   UNK N   1       9.907 -20.054   0.270  0.00  0.00    -0.304 OA
ENDBRANCH   2   3
BRANCH   2   5
HETATM    5  O   UNK N   1      11.996 -17.256   0.206  0.00  0.00    -0.386 OA
HETATM    6  H   UNK N   1      12.891 -16.981   0.460  0.00  0.00     0.210 HD
ENDBRANCH   2   5
ENDBRANCH   1   2
BRANCH   1   7
HETATM    7  C   UNK N   1      14.084 -19.098  -0.597  0.00  0.00     0.215 C 
BRANCH   7   8
HETATM    8  O   UNK N   1      15.052 -18.531   0.236  0.00  0.00    -0.294 OA
BRANCH   8   9
HETATM    9  P   UNK N   1      16.467 -18.419  -0.769  0.00  0.00     0.390 P 
HETATM   10  O   UNK N   1      17.677 -17.884   0.041  0.00  0.00    -0.632 OA
BRANCH   9  11
HETATM   11  O   UNK N   1      15.965 -16.826  -0.289  0.00  0.00    -0.307 OA
HETATM   12  H   UNK N   1      16.595 -16.139  -0.021  0.00  0.00     0.222 HD
ENDBRANCH   9  11
BRANCH   9  13
HETATM   13  O   UNK N   1      16.726 -19.645   0.436  0.00  0.00    -0.307 OA
HETATM   14  H   UNK N   1      16.206 -20.112   1.109  0.00  0.00     0.222 HD
ENDBRANCH   9  13
ENDBRANCH   8   9
ENDBRANCH   7   8
ENDBRANCH   1   7
BRANCH   1  15
HETATM   15  O   UNK N   1      12.551 -20.816  -0.095  0.00  0.00    -0.390 OA
HETATM   16  H   UNK N   1      11.644 -21.090  -0.306  0.00  0.00     0.210 HD
ENDBRANCH   1  15
TORSDOF 9
