REMARK  17 active torsions:
REMARK  status: ('A' for Active; 'I' for Inactive)
REMARK    1  A    between atoms: C_8  and  C_2 
REMARK    2  A    between atoms: C_4  and  C_3 
REMARK    3  A    between atoms: C_5  and  C_3 
REMARK    4  A    between atoms: C_7  and  C_4 
REMARK    5  A    between atoms: C_10  and  C_5 
REMARK    6  A    between atoms: C_9  and  C_6 
REMARK    7  A    between atoms: S_25  and  C_6 
REMARK    8  A    between atoms: C_12  and  C_7 
REMARK    9  A    between atoms: C_7  and  N_14 
REMARK   10  A    between atoms: C_13  and  C_8 
REMARK   11  A    between atoms: C_8  and  N_17 
REMARK   12  A    between atoms: C_11  and  C_9 
REMARK   13  A    between atoms: C_9  and  N_15 
REMARK   14  A    between atoms: C_10  and  O_19 
REMARK   15  A    between atoms: C_11  and  O_20 
REMARK   16  A    between atoms: O_22  and  C_12 
REMARK   17  A    between atoms: O_24  and  C_13 
ROOT
HETATM    1  C   UNK N   1       4.063  -2.524   0.005  0.00  0.00     0.166 C 
ENDROOT
BRANCH   1   2
HETATM    2  C   UNK N   1       3.715  -3.739   0.855  0.00  0.00     0.104 C 
BRANCH   2   3
HETATM    3  S   UNK N   1       2.073  -4.398   0.419  0.00  0.00    -0.180 SA
HETATM    4  H   UNK N   1       1.035  -3.583   0.094  0.00  0.00     0.101 HD
ENDBRANCH   2   3
ENDBRANCH   1   2
BRANCH   1   5
HETATM    5  C   UNK N   1       5.442  -2.041   0.350  0.00  0.00     0.136 C 
HETATM    6  N   UNK N   1       6.325  -1.915  -0.582  0.00  0.00    -0.355 N 
ATOM      7  HN  UNK N   1       6.083  -2.245  -1.516  1.00  0.00     0.162 HD
BRANCH   6   8
HETATM    8  C   UNK N   1       7.643  -1.333  -0.385  0.00  0.00     0.204 C 
BRANCH   8   9
HETATM    9  C   UNK N   1       8.459  -2.135   0.594  0.00  0.00    -0.002 C 
HETATM   10  C   UNK N   1       8.750  -3.414   0.364  0.00  0.00     0.009 C 
ENDBRANCH   8   9
BRANCH   8  11
HETATM   11  C   UNK N   1       7.508   0.112   0.042  0.00  0.00     0.167 C 
HETATM   12  O   UNK N   1       6.893   0.896  -0.662  0.00  0.00    -0.648 OA
BRANCH  11  13
HETATM   13  O   UNK N   1       8.052   0.546   1.197  0.00  0.00    -0.775 OA
HETATM   14  H   UNK N   1       8.502   0.370   2.000  0.00  0.00     0.167 HD
ENDBRANCH  11  13
ENDBRANCH   8  11
ENDBRANCH   6   8
BRANCH   5  15
HETATM   15  O   UNK N   1       5.712  -1.663   1.621  0.00  0.00    -0.348 OA
HETATM   16  H   UNK N   1       6.033  -1.694   2.501  0.00  0.00     0.219 HD
ENDBRANCH   5  15
ENDBRANCH   1   5
BRANCH   1  17
HETATM   17  N   UNK N   1       3.127  -1.450   0.268  0.00  0.00    -0.362 N 
HETATM   18  C   UNK N   1       3.123  -0.335  -0.390  0.00  0.00     0.111 C 
ATOM     19  HN  UNK N   1       2.437  -1.579   1.009  1.00  0.00     0.162 HD
BRANCH  18  20
HETATM   20  C   UNK N   1       2.157   0.766  -0.042  0.00  0.00     0.083 C 
BRANCH  20  21
HETATM   21  C   UNK N   1       1.234   0.459   1.140  0.00  0.00     0.010 C 
BRANCH  21  22
HETATM   22  C   UNK N   1       0.383  -0.780   0.873  0.00  0.00     0.036 C 
BRANCH  22  23
HETATM   23  C   UNK N   1      -0.659  -0.563  -0.218  0.00  0.00     0.173 C 
BRANCH  23  24
HETATM   24  C   UNK N   1      -1.816   0.232   0.311  0.00  0.00     0.163 C 
HETATM   25  O   UNK N   1      -2.475  -0.191   1.248  0.00  0.00    -0.648 OA
BRANCH  24  26
HETATM   26  O   UNK N   1      -2.136   1.413  -0.250  0.00  0.00    -0.775 OA
HETATM   27  H   UNK N   1      -1.535   2.017  -0.641  0.00  0.00     0.167 HD
ENDBRANCH  24  26
ENDBRANCH  23  24
BRANCH  23  28
HETATM   28  N   UNK N   1      -1.132  -1.858  -0.674  0.00  0.00    -0.418 N 
HETATM   29  H   UNK N   1      -2.085  -2.025  -0.995  0.00  0.00     0.150 HD
HETATM   30  H   UNK N   1      -0.477  -2.639  -0.674  0.00  0.00     0.150 HD
ENDBRANCH  23  28
ENDBRANCH  22  23
ENDBRANCH  21  22
ENDBRANCH  20  21
ENDBRANCH  18  20
BRANCH  18  31
HETATM   31  O   UNK N   1       3.986  -0.137  -1.409  0.00  0.00    -0.350 OA
HETATM   32  H   UNK N   1       4.404  -0.587  -2.117  0.00  0.00     0.219 HD
ENDBRANCH  18  31
ENDBRANCH   1  17
TORSDOF 17
