REMARK  3 active torsions:
REMARK  status: ('A' for Active; 'I' for Inactive)
REMARK    1  A    between atoms: C_2  and  C_3 
REMARK    2  A    between atoms: C_3  and  C_4 
REMARK    3  A    between atoms: C_4  and  O_5 
ROOT
HETATM    1  C   UNK N   1       0.848  -0.316  -0.000  0.00  0.00     0.139 C 
HETATM    2  O   UNK N   1      -0.375  -0.216  -0.000  0.00  0.00    -0.650 OA
ENDROOT
BRANCH   1   3
HETATM    3  C   UNK N   1       1.725   0.899  -0.000  0.00  0.00     0.109 C 
BRANCH   3   4
HETATM    4  C   UNK N   1       0.963   2.213   0.000  0.00  0.00     0.006 C 
HETATM    5  C   UNK N   1       1.963   3.350   0.000  0.00  0.00     0.005 C 
ENDBRANCH   3   4
ENDBRANCH   1   3
BRANCH   1   6
HETATM    6  O   UNK N   1       1.412  -1.535  -0.000  0.00  0.00    -0.776 OA
HETATM    7  H   UNK N   1       0.873  -2.301  -0.000  0.00  0.00     0.167 HD
ENDBRANCH   1   6
TORSDOF 3
