REMARK  13 active torsions:
REMARK  status: ('A' for Active; 'I' for Inactive)
REMARK    1  A    between atoms: C_5  and  C_2 
REMARK    2  A    between atoms: O_17  and  C_2 
REMARK    3  A    between atoms: C_6  and  C_3 
REMARK    4  A    between atoms: O_18  and  C_3 
REMARK    5  A    between atoms: O_19  and  C_4 
REMARK    6  A    between atoms: C_7  and  N_15 
REMARK    7  A    between atoms: C_8  and  O_20 
REMARK    8  A    between atoms: C_9  and  O_21 
REMARK    9  A    between atoms: C_10  and  O_22 
REMARK   10  A    between atoms: C_11  and  O_23 
REMARK   11  A    between atoms: C_12  and  O_27 
REMARK   12  A    between atoms: C_13  and  O_24 
REMARK   13  A    between atoms: C_14  and  O_27 
ROOT
HETATM    1  C   UNK N   1       1.617  -5.886   0.103  0.00  0.00     0.179 C 
HETATM    2  C   UNK N   1      -0.895  -4.547  -0.049  0.00  0.00     0.169 C 
HETATM    3  C   UNK N   1       0.347  -3.896  -0.642  0.00  0.00     0.177 C 
HETATM    4  C   UNK N   1       1.562  -4.331   0.234  0.00  0.00     0.186 C 
HETATM    5  C   UNK N   1      -0.737  -6.072  -0.100  0.00  0.00     0.282 C 
HETATM    6  O   UNK N   1       0.426  -6.485   0.607  0.00  0.00    -0.349 OA
ENDROOT
BRANCH   4   7
HETATM    7  O   UNK N   1       2.816  -3.760  -0.145  0.00  0.00    -0.348 OA
BRANCH   7   8
HETATM    8  C   UNK N   1       2.838  -2.332  -0.151  0.00  0.00     0.292 C 
HETATM    9  C   UNK N   1       4.273  -1.808   0.030  0.00  0.00     0.204 C 
HETATM   10  C   UNK N   1       4.233  -0.282  -0.181  0.00  0.00     0.183 C 
HETATM   11  C   UNK N   1       3.247   0.358   0.812  0.00  0.00     0.180 C 
HETATM   12  C   UNK N   1       1.880  -0.354   0.738  0.00  0.00     0.179 C 
HETATM   13  O   UNK N   1       2.030  -1.766   0.885  0.00  0.00    -0.348 OA
BRANCH   9  14
HETATM   14  O   UNK N   1       5.129  -2.395  -0.905  0.00  0.00    -0.388 OA
HETATM   15  H   UNK N   1       5.073  -3.114  -1.554  0.00  0.00     0.210 HD
ENDBRANCH   9  14
BRANCH  10  16
HETATM   16  O   UNK N   1       5.505   0.272  -0.020  0.00  0.00    -0.390 OA
HETATM   17  H   UNK N   1       6.280  -0.301   0.092  0.00  0.00     0.210 HD
ENDBRANCH  10  16
BRANCH  11  18
HETATM   18  O   UNK N   1       3.749   0.234   2.111  0.00  0.00    -0.390 OA
HETATM   19  H   UNK N   1       3.850  -0.111   3.012  0.00  0.00     0.210 HD
ENDBRANCH  11  18
BRANCH  12  20
HETATM   20  C   UNK N   1       1.081   0.019  -0.520  0.00  0.00     0.198 C 
BRANCH  20  21
HETATM   21  O   UNK N   1       0.608   1.330  -0.441  0.00  0.00    -0.398 OA
HETATM   22  H   UNK N   1       1.233   2.070  -0.385  0.00  0.00     0.209 HD
ENDBRANCH  20  21
ENDBRANCH  12  20
ENDBRANCH   7   8
ENDBRANCH   4   7
BRANCH   1  23
HETATM   23  C   UNK N   1       2.782  -6.485   0.887  0.00  0.00     0.198 C 
BRANCH  23  24
HETATM   24  O   UNK N   1       4.001  -6.206   0.265  0.00  0.00    -0.398 OA
HETATM   25  H   UNK N   1       4.592  -6.842  -0.167  0.00  0.00     0.209 HD
ENDBRANCH  23  24
ENDBRANCH   1  23
BRANCH   3  26
HETATM   26  O   UNK N   1       0.127  -2.526  -0.636  0.00  0.00    -0.391 OA
HETATM   27  H   UNK N   1       0.879  -1.914  -0.632  0.00  0.00     0.210 HD
ENDBRANCH   3  26
BRANCH   2  28
HETATM   28  N   UNK N   1      -2.078  -4.080  -0.753  0.00  0.00    -0.363 N 
HETATM   29  C   UNK N   1      -3.255  -4.089  -0.234  0.00  0.00     0.107 C 
HETATM   30  C   UNK N   1      -4.402  -3.533  -1.004  0.00  0.00     0.097 C 
ATOM     31  HN  UNK N   1      -1.970  -3.728  -1.704  1.00  0.00     0.162 HD
BRANCH  29  32
HETATM   32  O   UNK N   1      -3.464  -4.559   1.015  0.00  0.00    -0.350 OA
HETATM   33  H   UNK N   1      -3.819  -4.596   1.882  0.00  0.00     0.219 HD
ENDBRANCH  29  32
ENDBRANCH   2  28
BRANCH   5  34
HETATM   34  O   UNK N   1      -0.709  -6.541  -1.419  0.00  0.00    -0.369 OA
HETATM   35  H   UNK N   1      -0.980  -6.720  -2.333  0.00  0.00     0.212 HD
ENDBRANCH   5  34
TORSDOF 13
