REMARK  2 active torsions:
REMARK  status: ('A' for Active; 'I' for Inactive)
REMARK    1  A    between atoms: C_8  and  C_9 
REMARK    2  A    between atoms: O_12  and  C_9 
ROOT
HETATM    1  C   UNK N   1       4.669   0.795  -0.385  0.00  0.00     0.001 C 
HETATM    2  C   UNK N   1       4.631   2.201   0.243  0.00  0.00     0.002 C 
HETATM    3  C   UNK N   1       3.388   0.485  -1.179  0.00  0.00     0.007 C 
HETATM    4  C   UNK N   1       3.359   2.426   1.074  0.00  0.00     0.025 C 
HETATM    5  C   UNK N   1       0.816   0.552  -0.825  0.00  0.00     0.042 C 
HETATM    6  C   UNK N   1       2.197   0.686  -0.252  0.00  0.00     0.010 C 
HETATM    7  C   UNK N   1       2.146   2.122   0.204  0.00  0.00     0.081 C 
HETATM    8  C   UNK N   1       0.006   1.239   0.285  0.00  0.00     0.176 C 
HETATM    9  N   UNK N   1       0.875   2.262   0.897  0.00  0.00    -0.404 N 
HETATM   10  H   UNK N   1       0.637   2.920   1.640  0.00  0.00     0.154 HD
ENDROOT
BRANCH   8  11
HETATM   11  C   UNK N   1      -1.269   1.841  -0.228  0.00  0.00     0.163 C 
HETATM   12  O   UNK N   1      -2.146   1.113  -0.681  0.00  0.00    -0.648 OA
BRANCH  11  13
HETATM   13  O   UNK N   1      -1.473   3.169  -0.176  0.00  0.00    -0.775 OA
HETATM   14  H   UNK N   1      -0.743   3.755  -0.139  0.00  0.00     0.167 HD
ENDBRANCH  11  13
ENDBRANCH   8  11
TORSDOF 2
