REMARK  15 active torsions:
REMARK  status: ('A' for Active; 'I' for Inactive)
REMARK    1  A    between atoms: C_5  and  C_1 
REMARK    2  A    between atoms: O_29  and  C_1 
REMARK    3  A    between atoms: P_32  and  C_4 
REMARK    4  A    between atoms: P_33  and  C_4 
REMARK    5  A    between atoms: C_7  and  O_20 
REMARK    6  A    between atoms: C_8  and  O_21 
REMARK    7  A    between atoms: N_12  and  C_9 
REMARK    8  A    between atoms: C_11  and  N_19 
REMARK    9  A    between atoms: P_32  and  O_22 
REMARK   10  A    between atoms: P_32  and  O_23 
REMARK   11  A    between atoms: P_33  and  O_25 
REMARK   12  A    between atoms: P_34  and  O_27 
REMARK   13  A    between atoms: P_34  and  O_29 
REMARK   14  A    between atoms: P_33  and  O_31 
REMARK   15  A    between atoms: P_34  and  O_31 
ROOT
HETATM    1  C   UNK N   1       0.597  -1.916   0.788  0.00  0.00     0.180 C 
HETATM    2  C   UNK N   1       1.852  -2.375   0.065  0.00  0.00     0.182 C 
HETATM    3  C   UNK N   1       2.540  -1.065  -0.068  0.00  0.00     0.198 C 
HETATM    4  C   UNK N   1       1.355  -0.208  -0.516  0.00  0.00     0.262 C 
HETATM    5  O   UNK N   1       0.223  -0.676   0.207  0.00  0.00    -0.353 OA
ENDROOT
BRANCH   1   6
HETATM    6  C   UNK N   1      -0.464  -2.998   0.623  0.00  0.00     0.215 C 
BRANCH   6   7
HETATM    7  O   UNK N   1      -1.757  -2.532   0.863  0.00  0.00    -0.294 OA
BRANCH   7   8
HETATM    8  P   UNK N   1      -2.678  -2.951  -0.567  0.00  0.00     0.400 P 
HETATM    9  O   UNK N   1      -2.036  -4.231  -1.178  0.00  0.00    -0.631 OA
BRANCH   8  10
HETATM   10  O   UNK N   1      -2.575  -1.742  -1.808  0.00  0.00    -0.307 OA
HETATM   11  H   UNK N   1      -1.960  -1.454  -2.501  0.00  0.00     0.222 HD
ENDBRANCH   8  10
BRANCH   8  12
HETATM   12  O   UNK N   1      -4.326  -3.431  -0.240  0.00  0.00    -0.218 OA
BRANCH  12  13
HETATM   13  P   UNK N   1      -5.053  -2.274   0.848  0.00  0.00     0.258 P 
HETATM   14  O   UNK N   1      -4.079  -2.100   2.043  0.00  0.00    -0.653 OA
BRANCH  13  15
HETATM   15  C   UNK N   1      -5.584  -0.634   0.150  0.00  0.00     0.250 C 
BRANCH  15  16
HETATM   16  P   UNK N   1      -6.963  -0.893  -1.072  0.00  0.00     0.247 P 
HETATM   17  O   UNK N   1      -6.470  -1.744  -2.272  0.00  0.00    -0.653 OA
BRANCH  16  18
HETATM   18  O   UNK N   1      -8.330  -1.775  -0.464  0.00  0.00    -0.329 OA
HETATM   19  H   UNK N   1      -9.138  -1.360  -0.124  0.00  0.00     0.220 HD
ENDBRANCH  16  18
BRANCH  16  20
HETATM   20  O   UNK N   1      -7.579   0.554  -1.805  0.00  0.00    -0.329 OA
HETATM   21  H   UNK N   1      -7.051   1.257  -2.215  0.00  0.00     0.220 HD
ENDBRANCH  16  20
ENDBRANCH  15  16
ENDBRANCH  13  15
BRANCH  13  22
HETATM   22  O   UNK N   1      -6.381  -3.118   1.579  0.00  0.00    -0.328 OA
HETATM   23  H   UNK N   1      -7.161  -2.711   1.988  0.00  0.00     0.220 HD
ENDBRANCH  13  22
ENDBRANCH  12  13
ENDBRANCH   8  12
ENDBRANCH   7   8
ENDBRANCH   6   7
ENDBRANCH   1   6
BRANCH   2  24
HETATM   24  O   UNK N   1       2.588  -3.311   0.794  0.00  0.00    -0.390 OA
HETATM   25  H   UNK N   1       2.281  -4.079   1.301  0.00  0.00     0.210 HD
ENDBRANCH   2  24
BRANCH   3  26
HETATM   26  O   UNK N   1       3.582  -1.098  -0.998  0.00  0.00    -0.388 OA
HETATM   27  H   UNK N   1       3.924  -1.735  -1.644  0.00  0.00     0.210 HD
ENDBRANCH   3  26
BRANCH   4  28
HETATM   28  N   UNK N   1       1.563   1.234  -0.293  0.00  0.00    -0.297 N 
HETATM   29  C   UNK N   1       0.592   2.181  -0.381  0.00  0.00     0.188 A 
HETATM   30  N   UNK N   1       1.079   3.426  -0.114  0.00  0.00    -0.346 N 
HETATM   31  C   UNK N   1       2.386   3.230   0.126  0.00  0.00     0.122 A 
ATOM     32  HN  UNK N   1       0.566   4.308  -0.100  1.00  0.00     0.167 HD
HETATM   33  C   UNK N   1       3.382   4.145   0.436  0.00  0.00     0.131 A 
HETATM   34  C   UNK N   1       2.681   1.919   0.019  0.00  0.00     0.142 A 
HETATM   35  N   UNK N   1       4.653   3.676   0.609  0.00  0.00    -0.337 N 
HETATM   36  C   UNK N   1       4.935   2.338   0.484  0.00  0.00     0.183 A 
ATOM     37  HN  UNK N   1       5.404   4.329   0.836  1.00  0.00     0.168 HD
HETATM   38  N   UNK N   1       3.940   1.447   0.188  0.00  0.00    -0.336 N 
ATOM     39  HN  UNK N   1       4.141   0.451   0.096  1.00  0.00     0.168 HD
BRANCH  33  40
HETATM   40  N   UNK N   1       3.100   5.520   0.564  0.00  0.00    -0.383 N 
HETATM   41  H   UNK N   1       3.834   6.170   0.653  0.00  0.00     0.157 HD
HETATM   42  H   UNK N   1       2.166   5.831   0.564  0.00  0.00     0.157 HD
ENDBRANCH  33  40
ENDBRANCH   4  28
TORSDOF 15
