REMARK  10 active torsions:
REMARK  status: ('A' for Active; 'I' for Inactive)
REMARK    1  A    between atoms: C_2  and  C_4 
REMARK    2  A    between atoms: C_4  and  C_5 
REMARK    3  A    between atoms: C_5  and  N_6 
REMARK    4  A    between atoms: N_6  and  C_7 
REMARK    5  A    between atoms: N_6  and  S_32 
REMARK    6  A    between atoms: C_7  and  C_8 
REMARK    7  A    between atoms: C_8  and  O_9 
REMARK    8  A    between atoms: C_10  and  C_8 
REMARK    9  A    between atoms: C_23  and  C_24 
REMARK   10  A    between atoms: S_32  and  C_35 
ROOT
HETATM    1  C   UNK N   1       0.794  -3.182   0.125  0.00  0.00     0.118 C 
HETATM    2  C   UNK N   1       1.147  -1.727   0.471  0.00  0.00     0.066 C 
HETATM    3  C   UNK N   1       2.564  -1.366   0.171  0.00  0.00    -0.056 A 
HETATM    4  C   UNK N   1       3.215  -0.403   0.953  0.00  0.00     0.010 A 
HETATM    5  C   UNK N   1       4.593  -0.207   0.814  0.00  0.00     0.037 A 
HETATM    6  C   UNK N   1       5.320  -0.996  -0.085  0.00  0.00     0.068 A 
HETATM    7  O   UNK N   1       6.673  -0.956  -0.070  0.00  0.00    -0.351 OA
HETATM    8  C   UNK N   1       7.431  -2.035  -0.495  0.00  0.00     0.176 C 
HETATM    9  C   UNK N   1       7.150  -3.252   0.399  0.00  0.00     0.036 C 
HETATM   10  C   UNK N   1       6.861  -4.485  -0.446  0.00  0.00     0.105 C 
HETATM   11  C   UNK N   1       5.821  -5.362   0.191  0.00  0.00     0.218 C 
HETATM   12  O   UNK N   1       6.153  -6.203   1.012  0.00  0.00    -0.274 OA
HETATM   13  N   UNK N   1       4.522  -5.209  -0.172  0.00  0.00    -0.347 N 
HETATM   14  C   UNK N   1       3.385  -5.987   0.302  0.00  0.00     0.179 C 
HETATM   15  C   UNK N   1       2.163  -5.190  -0.091  0.00  0.00     0.241 C 
HETATM   16  O   UNK N   1       1.570  -5.459  -1.135  0.00  0.00    -0.271 OA
HETATM   17  N   UNK N   1       1.785  -4.110   0.638  0.00  0.00    -0.352 N 
HETATM   18  C   UNK N   1       4.647  -1.903  -0.915  0.00  0.00     0.037 A 
HETATM   19  C   UNK N   1       3.281  -2.081  -0.791  0.00  0.00     0.010 A 
HETATM   20  H   UNK N   1       4.327  -4.498  -0.825  0.00  0.00     0.163 HD
HETATM   21  H   UNK N   1       2.188  -3.954   1.523  0.00  0.00     0.163 HD
ENDROOT
BRANCH   1  22
HETATM   22  C   UNK N   1      -0.629  -3.522   0.544  0.00  0.00     0.155 C 
BRANCH  22  23
HETATM   23  C   UNK N   1      -1.568  -2.881  -0.467  0.00  0.00     0.141 C 
BRANCH  23  24
HETATM   24  N   UNK N   1      -2.512  -1.980   0.179  0.00  0.00    -0.204 NA
BRANCH  24  25
HETATM   25  C   UNK N   1      -3.777  -2.142  -0.517  0.00  0.00     0.108 C 
BRANCH  25  26
HETATM   26  C   UNK N   1      -4.689  -3.080   0.268  0.00  0.00     0.019 C 
BRANCH  26  27
HETATM   27  C   UNK N   1      -4.835  -4.442  -0.399  0.00  0.00    -0.022 C 
HETATM   28  C   UNK N   1      -3.647  -5.331  -0.095  0.00  0.00     0.009 C 
HETATM   29  C   UNK N   1      -6.079  -5.122   0.132  0.00  0.00     0.009 C 
ENDBRANCH  26  27
ENDBRANCH  25  26
ENDBRANCH  24  25
BRANCH  24  30
HETATM   30  S   UNK N   1      -1.940  -0.298  -0.011  0.00  0.00     0.243 S 
HETATM   31  O   UNK N   1      -0.890  -0.284  -1.137  0.00  0.00    -0.206 OA
HETATM   32  O   UNK N   1      -1.049  -0.097   1.223  0.00  0.00    -0.206 OA
BRANCH  30  33
HETATM   33  C   UNK N   1      -3.027   1.121  -0.097  0.00  0.00     0.074 A 
HETATM   34  C   UNK N   1      -4.416   0.974  -0.086  0.00  0.00     0.025 A 
HETATM   35  C   UNK N   1      -5.237   2.108  -0.116  0.00  0.00     0.002 A 
HETATM   36  C   UNK N   1      -4.669   3.386  -0.152  0.00  0.00     0.000 A 
HETATM   37  C   UNK N   1      -3.280   3.533  -0.163  0.00  0.00     0.002 A 
HETATM   38  C   UNK N   1      -2.461   2.402  -0.134  0.00  0.00     0.025 A 
ENDBRANCH  30  33
ENDBRANCH  24  30
ENDBRANCH  23  24
ENDBRANCH  22  23
BRANCH  22  39
HETATM   39  O   UNK N   1      -0.822  -4.903   0.501  0.00  0.00    -0.392 OA
HETATM   40  H   UNK N   1      -1.721  -5.266   0.471  0.00  0.00     0.210 HD
ENDBRANCH  22  39
ENDBRANCH   1  22
BRANCH  14  41
HETATM   41  C   UNK N   1       3.360  -7.397  -0.345  0.00  0.00     0.009 C 
HETATM   42  C   UNK N   1       2.077  -8.146  -0.014  0.00  0.00     0.012 C 
HETATM   43  C   UNK N   1       4.513  -8.273   0.102  0.00  0.00     0.012 C 
ENDBRANCH  14  41
TORSDOF 10
