REMARK  27 active torsions:
REMARK  status: ('A' for Active; 'I' for Inactive)
REMARK    1  A    between atoms: C_31  and  C_23 
REMARK    2  A    between atoms: N_47  and  C_23 
REMARK    3  A    between atoms: C_32  and  C_24 
REMARK    4  A    between atoms: N_49  and  C_24 
REMARK    5  A    between atoms: C_29  and  C_25 
REMARK    6  A    between atoms: O_61  and  C_25 
REMARK    7  A    between atoms: C_30  and  C_26 
REMARK    8  A    between atoms: O_62  and  C_26 
REMARK    9  A    between atoms: C_33  and  C_27 
REMARK   10  A    between atoms: C_34  and  C_28 
REMARK   11  A    between atoms: C_39  and  C_33 
REMARK   12  A    between atoms: C_33  and  N_51 
REMARK   13  A    between atoms: C_40  and  C_34 
REMARK   14  A    between atoms: C_34  and  N_53 
REMARK   15  A    between atoms: C_36  and  C_35 
REMARK   16  A    between atoms: C_37  and  C_35 
REMARK   17  A    between atoms: C_35  and  O_55 
REMARK   18  A    between atoms: C_38  and  C_36 
REMARK   19  A    between atoms: C_36  and  O_56 
REMARK   20  A    between atoms: C_41  and  C_37 
REMARK   21  A    between atoms: C_37  and  O_61 
REMARK   22  A    between atoms: C_42  and  C_38 
REMARK   23  A    between atoms: C_38  and  O_62 
REMARK   24  A    between atoms: O_57  and  C_39 
REMARK   25  A    between atoms: O_58  and  C_40 
REMARK   26  A    between atoms: C_41  and  O_59 
REMARK   27  A    between atoms: C_42  and  O_60 
ROOT
HETATM    1  C   UNK N   1       3.206   5.995   0.472  0.00  0.00     0.186 C 
ENDROOT
BRANCH   1   2
HETATM    2  C   UNK N   1       3.794   7.422   0.656  0.00  0.00     0.186 C 
BRANCH   2   3
HETATM    3  C   UNK N   1       5.322   7.621   0.765  0.00  0.00     0.227 C 
BRANCH   3   4
HETATM    4  C   UNK N   1       6.095   7.755  -0.547  0.00  0.00     0.144 C 
HETATM    5  N   UNK N   1       6.959   8.710  -0.741  0.00  0.00    -0.360 N 
ATOM      6  HN  UNK N   1       7.459   8.726  -1.630  1.00  0.00     0.162 HD
BRANCH   5   7
HETATM    7  C   UNK N   1       7.260   9.760   0.227  0.00  0.00     0.161 C 
BRANCH   7   8
HETATM    8  C   UNK N   1       8.622  10.408  -0.039  0.00  0.00     0.008 C 
HETATM    9  C   UNK N   1       8.700  11.067  -1.407  0.00  0.00     0.012 C 
HETATM   10  C   UNK N   1       9.747   9.400   0.109  0.00  0.00     0.012 C 
ENDBRANCH   7   8
BRANCH   7  11
HETATM   11  C   UNK N   1       6.188  10.825   0.268  0.00  0.00     0.135 C 
HETATM   12  N   UNK N   1       5.405  11.014  -0.751  0.00  0.00    -0.367 N 
ATOM     13  HN  UNK N   1       5.506  10.401  -1.560  1.00  0.00     0.161 HD
BRANCH  12  14
HETATM   14  C   UNK N   1       4.394  12.056  -0.796  0.00  0.00     0.178 C 
BRANCH  14  15
HETATM   15  C   UNK N   1       4.983  13.387  -0.442  0.00  0.00     0.026 A 
HETATM   16  C   UNK N   1       6.093  13.878  -1.140  0.00  0.00     0.027 A 
HETATM   17  C   UNK N   1       6.701  15.059  -0.711  0.00  0.00     0.003 A 
HETATM   18  C   UNK N   1       6.199  15.730   0.405  0.00  0.00     0.017 A 
HETATM   19  C   UNK N   1       5.085  15.215   1.070  0.00  0.00     0.088 A 
HETATM   20  N   UNK N   1       4.508  14.060   0.641  0.00  0.00    -0.368 N 
ATOM     21  HN  UNK N   1       3.701  13.690   1.143  1.00  0.00     0.165 HD
ENDBRANCH  14  15
ENDBRANCH  12  14
BRANCH  11  22
HETATM   22  O   UNK N   1       6.093  11.606   1.363  0.00  0.00    -0.348 OA
HETATM   23  H   UNK N   1       6.530  11.934   2.124  0.00  0.00     0.219 HD
ENDBRANCH  11  22
ENDBRANCH   7  11
ENDBRANCH   5   7
BRANCH   4  24
HETATM   24  O   UNK N   1       5.892   6.857  -1.528  0.00  0.00    -0.348 OA
HETATM   25  H   UNK N   1       5.280   6.667  -2.211  0.00  0.00     0.219 HD
ENDBRANCH   4  24
ENDBRANCH   3   4
BRANCH   3  26
HETATM   26  O   UNK N   1       6.020   6.906   1.769  0.00  0.00    -0.370 OA
BRANCH  26  27
HETATM   27  C   UNK N   1       6.014   5.519   1.532  0.00  0.00     0.207 C 
BRANCH  27  28
HETATM   28  C   UNK N   1       7.166   5.071   0.690  0.00  0.00    -0.035 A 
HETATM   29  C   UNK N   1       8.472   5.497   0.966  0.00  0.00     0.009 A 
HETATM   30  C   UNK N   1       9.534   5.057   0.168  0.00  0.00     0.001 A 
HETATM   31  C   UNK N   1       9.294   4.182  -0.896  0.00  0.00     0.000 A 
HETATM   32  C   UNK N   1       7.993   3.749  -1.166  0.00  0.00     0.001 A 
HETATM   33  C   UNK N   1       6.931   4.194  -0.374  0.00  0.00     0.009 A 
ENDBRANCH  27  28
ENDBRANCH  26  27
ENDBRANCH   3  26
ENDBRANCH   2   3
BRANCH   2  34
HETATM   34  O   UNK N   1       3.226   7.956   1.824  0.00  0.00    -0.390 OA
HETATM   35  H   UNK N   1       3.349   8.480   2.631  0.00  0.00     0.210 HD
ENDBRANCH   2  34
ENDBRANCH   1   2
BRANCH   1  36
HETATM   36  C   UNK N   1       1.672   6.031   0.153  0.00  0.00     0.227 C 
BRANCH  36  37
HETATM   37  C   UNK N   1       1.392   5.835  -1.328  0.00  0.00     0.144 C 
HETATM   38  N   UNK N   1       0.773   4.805  -1.826  0.00  0.00    -0.360 N 
ATOM     39  HN  UNK N   1       0.637   4.834  -2.837  1.00  0.00     0.162 HD
BRANCH  38  40
HETATM   40  C   UNK N   1       0.243   3.614  -1.171  0.00  0.00     0.161 C 
BRANCH  40  41
HETATM   41  C   UNK N   1      -1.127   3.800  -0.461  0.00  0.00     0.008 C 
HETATM   42  C   UNK N   1      -1.740   2.456  -0.091  0.00  0.00     0.012 C 
HETATM   43  C   UNK N   1      -1.161   4.663   0.773  0.00  0.00     0.012 C 
ENDBRANCH  40  41
BRANCH  40  44
HETATM   44  C   UNK N   1       1.302   2.853  -0.412  0.00  0.00     0.135 C 
HETATM   45  N   UNK N   1       2.315   2.384  -1.065  0.00  0.00    -0.367 N 
ATOM     46  HN  UNK N   1       2.442   2.662  -2.037  1.00  0.00     0.161 HD
BRANCH  45  47
HETATM   47  C   UNK N   1       3.276   1.480  -0.472  0.00  0.00     0.178 C 
BRANCH  47  48
HETATM   48  C   UNK N   1       2.564   0.223  -0.075  0.00  0.00     0.026 A 
HETATM   49  C   UNK N   1       1.753  -0.445  -1.004  0.00  0.00     0.027 A 
HETATM   50  C   UNK N   1       0.996  -1.540  -0.589  0.00  0.00     0.003 A 
HETATM   51  C   UNK N   1       1.057  -1.958   0.740  0.00  0.00     0.017 A 
HETATM   52  C   UNK N   1       1.884  -1.274   1.635  0.00  0.00     0.088 A 
HETATM   53  N   UNK N   1       2.607  -0.200   1.216  0.00  0.00    -0.368 N 
ATOM     54  HN  UNK N   1       3.194   0.298   1.885  1.00  0.00     0.165 HD
ENDBRANCH  47  48
ENDBRANCH  45  47
BRANCH  44  55
HETATM   55  O   UNK N   1       1.141   2.577   0.900  0.00  0.00    -0.348 OA
HETATM   56  H   UNK N   1       0.919   2.578   1.811  0.00  0.00     0.219 HD
ENDBRANCH  44  55
ENDBRANCH  40  44
ENDBRANCH  38  40
BRANCH  37  57
HETATM   57  O   UNK N   1       1.839   6.776  -2.181  0.00  0.00    -0.348 OA
HETATM   58  H   UNK N   1       2.562   6.833  -2.775  0.00  0.00     0.219 HD
ENDBRANCH  37  57
ENDBRANCH  36  37
BRANCH  36  59
HETATM   59  O   UNK N   1       1.192   7.317   0.495  0.00  0.00    -0.370 OA
BRANCH  59  60
HETATM   60  C   UNK N   1      -0.057   7.326   1.109  0.00  0.00     0.207 C 
BRANCH  60  61
HETATM   61  C   UNK N   1      -0.809   8.488   0.557  0.00  0.00    -0.035 A 
HETATM   62  C   UNK N   1      -2.089   8.306   0.031  0.00  0.00     0.009 A 
HETATM   63  C   UNK N   1      -2.778   9.390  -0.523  0.00  0.00     0.001 A 
HETATM   64  C   UNK N   1      -2.181  10.654  -0.565  0.00  0.00     0.000 A 
HETATM   65  C   UNK N   1      -0.898  10.839  -0.043  0.00  0.00     0.001 A 
HETATM   66  C   UNK N   1      -0.214   9.760   0.521  0.00  0.00     0.009 A 
ENDBRANCH  60  61
ENDBRANCH  59  60
ENDBRANCH  36  59
ENDBRANCH   1  36
BRANCH   1  67
HETATM   67  O   UNK N   1       3.896   5.252  -0.490  0.00  0.00    -0.390 OA
HETATM   68  H   UNK N   1       3.689   4.579  -1.158  0.00  0.00     0.210 HD
ENDBRANCH   1  67
TORSDOF 27
