REMARK  1 active torsions:
REMARK  status: ('A' for Active; 'I' for Inactive)
REMARK       I    between atoms: N_1  and  C_2 
REMARK       I    between atoms: C_2  and  N_5 
REMARK    1  A    between atoms: N_5  and  O_6 
ROOT
HETATM    1  N   UNK N   1       2.845  -0.897   0.000  0.00  0.00    -0.233 N 
HETATM    2  C   UNK N   1       1.452  -0.667  -0.000  0.00  0.00     0.689 C 
HETATM    3  N   UNK N   1       0.643  -1.660  -0.000  0.00  0.00    -0.233 N 
ATOM      4  HN  UNK N   1       1.005  -2.614  -0.000  1.00  0.00     0.174 HD
HETATM    5  N   UNK N   1       0.958   0.660   0.000  0.00  0.00    -0.100 N 
HETATM    6  H   UNK N   1       3.192  -1.818   0.000  0.00  0.00     0.174 HD
HETATM    7  H   UNK N   1       3.469  -0.136   0.000  0.00  0.00     0.174 HD
HETATM    8  H   UNK N   1      -0.329  -1.503  -0.000  0.00  0.00     0.174 HD
HETATM    9  H   UNK N   1       1.590   1.414   0.000  0.00  0.00     0.213 HD
ENDROOT
BRANCH   5  10
HETATM   10  O   UNK N   1      -0.360   0.900  -0.000  0.00  0.00    -0.276 OA
HETATM   11  H   UNK N   1      -0.686   1.814  -0.000  0.00  0.00     0.245 HD
ENDBRANCH   5  10
TORSDOF 1
