REMARK  10 active torsions:
REMARK  status: ('A' for Active; 'I' for Inactive)
REMARK    1  A    between atoms: C_7  and  C_6 
REMARK    2  A    between atoms: C_12  and  C_6 
REMARK    3  A    between atoms: S_25  and  C_7 
REMARK    4  A    between atoms: C_10  and  C_8 
REMARK    5  A    between atoms: C_14  and  C_9 
REMARK    6  A    between atoms: N_20  and  C_9 
REMARK    7  A    between atoms: O_21  and  C_11 
REMARK    8  A    between atoms: C_15  and  C_12 
REMARK    9  A    between atoms: C_12  and  N_17 
REMARK   10  A    between atoms: O_23  and  C_14 
ROOT
HETATM    1  C   UNK N   1      -1.172  -5.204  -0.152  0.00  0.00     0.046 C 
HETATM    2  C   UNK N   1      -0.314  -4.166  -0.159  0.00  0.00     0.103 A 
HETATM    3  C   UNK N   1       0.398  -2.100  -0.042  0.00  0.00     0.110 A 
HETATM    4  C   UNK N   1       1.065  -4.147  -0.611  0.00  0.00     0.276 A 
HETATM    5  N   UNK N   1      -0.632  -2.837   0.202  0.00  0.00    -0.340 N 
ATOM      6  HN  UNK N   1      -1.521  -2.517   0.587  1.00  0.00     0.167 HD
HETATM    7  N   UNK N   1       1.489  -2.870  -0.555  0.00  0.00    -0.290 N 
HETATM    8  O   UNK N   1       1.721  -5.088  -1.031  0.00  0.00    -0.265 OA
ENDROOT
BRANCH   1   9
HETATM    9  C   UNK N   1      -2.613  -5.070   0.199  0.00  0.00    -0.034 A 
HETATM   10  C   UNK N   1      -3.172  -3.840   0.588  0.00  0.00     0.014 A 
HETATM   11  C   UNK N   1      -4.542  -3.721   0.824  0.00  0.00     0.037 A 
HETATM   12  C   UNK N   1      -5.373  -4.830   0.666  0.00  0.00     0.065 A 
HETATM   13  C   UNK N   1      -4.830  -6.062   0.289  0.00  0.00     0.037 A 
HETATM   14  C   UNK N   1      -3.455  -6.181   0.055  0.00  0.00     0.014 A 
BRANCH  12  15
HETATM   15  O   UNK N   1      -6.694  -4.711   0.872  0.00  0.00    -0.361 OA
HETATM   16  H   UNK N   1      -7.084  -3.871   1.016  0.00  0.00     0.217 HD
ENDBRANCH  12  15
ENDBRANCH   1   9
BRANCH   7  17
HETATM   17  C   UNK N   1       2.780  -2.377  -0.989  0.00  0.00     0.243 C 
BRANCH  17  18
HETATM   18  C   UNK N   1       3.894  -2.866  -0.116  0.00  0.00     0.158 C 
HETATM   19  O   UNK N   1       4.543  -2.067   0.537  0.00  0.00    -0.649 OA
BRANCH  18  20
HETATM   20  O   UNK N   1       4.212  -4.173  -0.082  0.00  0.00    -0.775 OA
HETATM   21  H   UNK N   1       3.535  -4.820  -0.059  0.00  0.00     0.167 HD
ENDBRANCH  18  20
ENDBRANCH  17  18
ENDBRANCH   7  17
BRANCH   3  22
HETATM   22  C   UNK N   1       0.374  -0.605   0.221  0.00  0.00     0.143 C 
BRANCH  22  23
HETATM   23  C   UNK N   1      -0.841   0.062  -0.431  0.00  0.00     0.042 C 
BRANCH  23  24
HETATM   24  C   UNK N   1      -2.127  -0.327   0.295  0.00  0.00     0.076 C 
BRANCH  24  25
HETATM   25  S   UNK N   1      -3.398   0.948   0.082  0.00  0.00    -0.173 SA
HETATM   26  C   UNK N   1      -4.628  -0.260  -0.481  0.00  0.00     0.089 C 
ENDBRANCH  24  25
ENDBRANCH  23  24
ENDBRANCH  22  23
BRANCH  22  27
HETATM   27  N   UNK N   1       1.578   0.047  -0.259  0.00  0.00    -0.420 N 
HETATM   28  H   UNK N   1       2.399  -0.457  -0.596  0.00  0.00     0.150 HD
HETATM   29  H   UNK N   1       1.606   1.067  -0.259  0.00  0.00     0.150 HD
ENDBRANCH  22  27
ENDBRANCH   3  22
TORSDOF 10
