REMARK  4 active torsions:
REMARK  status: ('A' for Active; 'I' for Inactive)
REMARK    1  A    between atoms: O_1  and  C_2 
REMARK    2  A    between atoms: C_2  and  C_4 
REMARK    3  A    between atoms: C_4  and  C_6 
REMARK    4  A    between atoms: C_6  and  O_7 
ROOT
HETATM    1  C   UNK N   1       1.507   0.707   0.000  0.00  0.00     0.317 C 
HETATM    2  O   UNK N   1       2.727   0.672   0.000  0.00  0.00    -0.274 OA
ENDROOT
BRANCH   1   3
HETATM    3  C   UNK N   1       0.833   2.029  -0.000  0.00  0.00     0.225 C 
HETATM    4  O   UNK N   1      -0.385   2.114  -0.000  0.00  0.00    -0.643 OA
BRANCH   3   5
HETATM    5  O   UNK N   1       1.575   3.154  -0.000  0.00  0.00    -0.770 OA
HETATM    6  H   UNK N   1       2.510   3.098  -0.000  0.00  0.00     0.168 HD
ENDBRANCH   3   5
ENDBRANCH   1   3
BRANCH   1   7
HETATM    7  C   UNK N   1       0.759  -0.574   0.000  0.00  0.00     0.225 C 
HETATM    8  O   UNK N   1      -0.462  -0.590  -0.000  0.00  0.00    -0.643 OA
BRANCH   7   9
HETATM    9  O   UNK N   1       1.436  -1.740   0.000  0.00  0.00    -0.770 OA
HETATM   10  H   UNK N   1       0.969  -2.553   0.000  0.00  0.00     0.168 HD
ENDBRANCH   7   9
ENDBRANCH   1   7
TORSDOF 4
