REMARK  9 active torsions:
REMARK  status: ('A' for Active; 'I' for Inactive)
REMARK    1  A    between atoms: C_8  and  C_5 
REMARK    2  A    between atoms: C_12  and  C_6 
REMARK    3  A    between atoms: N_18  and  C_6 
REMARK    4  A    between atoms: C_10  and  C_7 
REMARK    5  A    between atoms: O_19  and  C_7 
REMARK    6  A    between atoms: O_20  and  C_9 
REMARK    7  A    between atoms: C_13  and  C_10 
REMARK    8  A    between atoms: C_10  and  N_15 
REMARK    9  A    between atoms: O_22  and  C_12 
ROOT
HETATM    1  C   UNK N   1      -0.007   1.413  -0.146  0.00  0.00     0.046 C 
HETATM    2  C   UNK N   1      -1.308   1.061  -0.166  0.00  0.00     0.103 A 
HETATM    3  C   UNK N   1      -3.085  -0.212  -0.083  0.00  0.00     0.112 A 
HETATM    4  C   UNK N   1      -2.465   1.898  -0.430  0.00  0.00     0.276 A 
HETATM    5  N   UNK N   1      -1.804  -0.246   0.047  0.00  0.00    -0.339 N 
ATOM      6  HN  UNK N   1      -1.245  -1.071   0.265  1.00  0.00     0.167 HD
HETATM    7  N   UNK N   1      -3.552   1.105  -0.391  0.00  0.00    -0.290 N 
HETATM    8  O   UNK N   1      -2.476   3.090  -0.698  0.00  0.00    -0.265 OA
ENDROOT
BRANCH   1   9
HETATM    9  C   UNK N   1       1.097   0.430   0.038  0.00  0.00    -0.034 A 
HETATM   10  C   UNK N   1       0.854  -0.954   0.067  0.00  0.00     0.014 A 
HETATM   11  C   UNK N   1       1.906  -1.863   0.173  0.00  0.00     0.037 A 
HETATM   12  C   UNK N   1       3.219  -1.399   0.253  0.00  0.00     0.065 A 
HETATM   13  C   UNK N   1       3.476  -0.025   0.231  0.00  0.00     0.037 A 
HETATM   14  C   UNK N   1       2.420   0.887   0.116  0.00  0.00     0.014 A 
BRANCH  12  15
HETATM   15  O   UNK N   1       4.232  -2.274   0.348  0.00  0.00    -0.361 OA
HETATM   16  H   UNK N   1       4.057  -3.192   0.415  0.00  0.00     0.217 HD
ENDBRANCH  12  15
ENDBRANCH   1   9
BRANCH   7  17
HETATM   17  C   UNK N   1      -4.910   1.502  -0.708  0.00  0.00     0.243 C 
BRANCH  17  18
HETATM   18  C   UNK N   1      -5.471   2.523   0.238  0.00  0.00     0.158 C 
HETATM   19  O   UNK N   1      -6.607   2.933   0.067  0.00  0.00    -0.649 OA
BRANCH  18  20
HETATM   20  O   UNK N   1      -4.741   2.996   1.266  0.00  0.00    -0.775 OA
HETATM   21  H   UNK N   1      -4.202   2.720   1.982  0.00  0.00     0.167 HD
ENDBRANCH  18  20
ENDBRANCH  17  18
ENDBRANCH   7  17
BRANCH   3  22
HETATM   22  C   UNK N   1      -3.921  -1.463   0.094  0.00  0.00     0.166 C 
BRANCH  22  23
HETATM   23  C   UNK N   1      -3.496  -2.546  -0.894  0.00  0.00     0.196 C 
BRANCH  23  24
HETATM   24  O   UNK N   1      -2.188  -2.967  -0.642  0.00  0.00    -0.398 OA
HETATM   25  H   UNK N   1      -1.987  -3.900  -0.467  0.00  0.00     0.209 HD
ENDBRANCH  23  24
ENDBRANCH  22  23
BRANCH  22  26
HETATM   26  N   UNK N   1      -5.337  -1.202  -0.085  0.00  0.00    -0.418 N 
HETATM   27  H   UNK N   1      -5.676  -0.248  -0.212  0.00  0.00     0.150 HD
HETATM   28  H   UNK N   1      -5.999  -1.978  -0.085  0.00  0.00     0.150 HD
ENDBRANCH  22  26
ENDBRANCH   3  22
TORSDOF 9
