REMARK  6 active torsions:
REMARK  status: ('A' for Active; 'I' for Inactive)
REMARK    1  A    between atoms: C_4  and  C_2 
REMARK    2  A    between atoms: C_6  and  C_2 
REMARK    3  A    between atoms: C_9  and  C_6 
REMARK    4  A    between atoms: C_6  and  N_12 
REMARK    5  A    between atoms: O_14  and  C_8 
REMARK    6  A    between atoms: O_16  and  C_9 
ROOT
HETATM    1  C   UNK N   1       1.890   0.507  -0.271  0.00  0.00     0.043 A 
HETATM    2  C   UNK N   1      -0.324  -1.324  -0.008  0.00  0.00     0.094 A 
HETATM    3  C   UNK N   1       0.654   1.031  -0.351  0.00  0.00    -0.003 A 
HETATM    4  C   UNK N   1       2.095  -0.947  -0.050  0.00  0.00     0.060 A 
HETATM    5  C   UNK N   1      -0.527   0.124  -0.231  0.00  0.00     0.181 A 
HETATM    6  C   UNK N   1       0.907  -1.838   0.075  0.00  0.00     0.095 A 
HETATM    7  N   UNK N   1       3.288  -1.418   0.000  0.00  0.00    -0.397 N 
ATOM      8  HN  UNK N   1       4.078  -0.780  -0.095  1.00  0.00     0.156 HD
HETATM    9  O   UNK N   1      -1.661   0.551  -0.353  0.00  0.00    -0.288 OA
HETATM   10  H   UNK N   1       3.469  -2.426   0.136  0.00  0.00     0.156 HD
ENDROOT
BRANCH   3  11
HETATM   11  C   UNK N   1       0.517   2.499  -0.688  0.00  0.00     0.078 C 
BRANCH  11  12
HETATM   12  C   UNK N   1      -0.160   3.406   0.349  0.00  0.00     0.177 C 
BRANCH  12  13
HETATM   13  C   UNK N   1      -0.017   4.838  -0.103  0.00  0.00     0.163 C 
HETATM   14  O   UNK N   1      -1.003   5.518  -0.347  0.00  0.00    -0.648 OA
BRANCH  13  15
HETATM   15  O   UNK N   1       1.209   5.377  -0.240  0.00  0.00    -0.775 OA
HETATM   16  H   UNK N   1       1.961   4.826  -0.336  0.00  0.00     0.167 HD
ENDBRANCH  13  15
ENDBRANCH  12  13
BRANCH  12  17
HETATM   17  N   UNK N   1      -1.570   3.072   0.483  0.00  0.00    -0.417 N 
HETATM   18  H   UNK N   1      -2.266   3.811   0.577  0.00  0.00     0.150 HD
HETATM   19  H   UNK N   1      -1.862   2.095   0.483  0.00  0.00     0.150 HD
ENDBRANCH  12  17
ENDBRANCH  11  12
ENDBRANCH   3  11
BRANCH   6  20
HETATM   20  O   UNK N   1       1.060  -3.164   0.260  0.00  0.00    -0.358 OA
HETATM   21  H   UNK N   1       0.315  -3.717   0.389  0.00  0.00     0.217 HD
ENDBRANCH   6  20
TORSDOF 6
