REMARK WARNING: 32 MAX_TORS EXCEEDED!!!
REMARK  34 active torsions:
REMARK  status: ('A' for Active; 'I' for Inactive)
REMARK    1  A    between atoms: C_2  and  C_1 
REMARK    2  A    between atoms: C_3  and  C_1 
REMARK    3  A    between atoms: C_4  and  C_2 
REMARK    4  A    between atoms: C_13  and  C_3 
REMARK    5  A    between atoms: C_25  and  C_4 
REMARK    6  A    between atoms: N_39  and  C_13 
REMARK    7  A    between atoms: C_18  and  C_14 
REMARK    8  A    between atoms: C_22  and  C_14 
REMARK    9  A    between atoms: C_19  and  C_15 
REMARK   10  A    between atoms: C_26  and  C_15 
REMARK   11  A    between atoms: C_23  and  C_16 
REMARK   12  A    between atoms: C_27  and  C_16 
REMARK   13  A    between atoms: C_24  and  C_17 
REMARK   14  A    between atoms: S_62  and  C_17 
REMARK   15  A    between atoms: C_31  and  C_20 
REMARK   16  A    between atoms: C_32  and  C_21 
REMARK   17  A    between atoms: C_29  and  C_22 
REMARK   18  A    between atoms: C_22  and  N_45 
REMARK   19  A    between atoms: C_30  and  C_23 
REMARK   20  A    between atoms: N_41  and  C_23 
REMARK   21  A    between atoms: C_28  and  C_24 
REMARK   22  A    between atoms: N_43  and  C_24 
REMARK   23  A    between atoms: O_47  and  C_25 
REMARK   24  A    between atoms: O_48  and  C_26 
REMARK   25  A    between atoms: O_50  and  C_27 
REMARK   26  A    between atoms: O_51  and  C_28 
REMARK   27  A    between atoms: O_52  and  C_29 
REMARK   28  A    between atoms: C_30  and  O_53 
REMARK   29  A    between atoms: P_60  and  C_31 
REMARK   30  A    between atoms: P_61  and  C_32 
REMARK   31  A    between atoms: P_60  and  O_54 
REMARK   32  A    between atoms: P_60  and  O_55 
REMARK   33  A    between atoms: P_61  and  O_57 
REMARK   34  A    between atoms: P_61  and  O_58 
ROOT
HETATM    1  C   UNK N   1      -2.865   2.723  -0.121  0.00  0.00     0.162 C 
ENDROOT
BRANCH   1   2
HETATM    2  C   UNK N   1      -1.872   3.008  -1.268  0.00  0.00     0.072 C 
BRANCH   2   3
HETATM    3  C   UNK N   1      -0.538   2.370  -1.062  0.00  0.00    -0.056 A 
HETATM    4  C   UNK N   1      -0.437   0.984  -1.101  0.00  0.00     0.008 A 
HETATM    5  C   UNK N   1       0.773   0.354  -0.851  0.00  0.00     0.014 A 
HETATM    6  C   UNK N   1       1.922   1.106  -0.582  0.00  0.00     0.025 A 
HETATM    7  C   UNK N   1       1.835   2.510  -0.595  0.00  0.00     0.014 A 
HETATM    8  C   UNK N   1       0.606   3.142  -0.831  0.00  0.00     0.008 A 
BRANCH   6   9
HETATM    9  C   UNK N   1       3.218   0.438  -0.194  0.00  0.00     0.364 C 
HETATM   10  F   UNK N   1       4.198   0.721  -1.128  0.00  0.00    -0.187 F 
HETATM   11  F   UNK N   1       3.607   0.946   1.031  0.00  0.00    -0.187 F 
BRANCH   9  12
HETATM   12  P   UNK N   1       3.067  -1.425   0.000  0.00  0.00     0.315 P 
HETATM   13  O   UNK N   1       2.872  -2.127  -1.370  0.00  0.00    -0.649 OA
BRANCH  12  14
HETATM   14  O   UNK N   1       1.698  -1.938   0.938  0.00  0.00    -0.325 OA
HETATM   15  H   UNK N   1       1.068  -1.419   1.462  0.00  0.00     0.220 HD
ENDBRANCH  12  14
BRANCH  12  16
HETATM   16  O   UNK N   1       4.454  -2.203   0.693  0.00  0.00    -0.325 OA
HETATM   17  H   UNK N   1       4.466  -3.092   1.080  0.00  0.00     0.220 HD
ENDBRANCH  12  16
ENDBRANCH   9  12
ENDBRANCH   6   9
ENDBRANCH   2   3
ENDBRANCH   1   2
BRANCH   1  18
HETATM   18  C   UNK N   1      -3.176   3.987   0.646  0.00  0.00     0.135 C 
HETATM   19  N   UNK N   1      -2.744   5.134   0.226  0.00  0.00    -0.373 N 
ATOM     20  HN  UNK N   1      -2.112   5.162  -0.574  1.00  0.00     0.161 HD
BRANCH  19  21
HETATM   21  C   UNK N   1      -3.131   6.371   0.855  0.00  0.00     0.121 C 
BRANCH  21  22
HETATM   22  C   UNK N   1      -4.282   6.982   0.070  0.00  0.00     0.020 C 
BRANCH  22  23
HETATM   23  C   UNK N   1      -5.534   7.020   0.932  0.00  0.00     0.002 C 
BRANCH  23  24
HETATM   24  C   UNK N   1      -6.726   6.457   0.177  0.00  0.00     0.008 C 
BRANCH  24  25
HETATM   25  C   UNK N   1      -6.882   4.970   0.467  0.00  0.00     0.083 C 
BRANCH  25  26
HETATM   26  C   UNK N   1      -6.919   4.195  -0.817  0.00  0.00     0.111 C 
HETATM   27  N   UNK N   1      -7.898   3.413  -1.157  0.00  0.00    -0.362 N 
ATOM     28  HN  UNK N   1      -7.768   2.918  -2.039  1.00  0.00     0.162 HD
BRANCH  27  29
HETATM   29  C   UNK N   1      -9.160   3.133  -0.468  0.00  0.00     0.166 C 
BRANCH  29  30
HETATM   30  C   UNK N   1      -9.633   4.225   0.492  0.00  0.00     0.104 C 
BRANCH  30  31
HETATM   31  S   UNK N   1     -10.097   5.737  -0.407  0.00  0.00    -0.180 SA
HETATM   32  H   UNK N   1      -9.292   6.603  -1.080  0.00  0.00     0.101 HD
ENDBRANCH  30  31
ENDBRANCH  29  30
BRANCH  29  33
HETATM   33  C   UNK N   1      -9.129   1.806   0.247  0.00  0.00     0.133 C 
HETATM   34  N   UNK N   1      -8.054   1.112   0.305  0.00  0.00    -0.382 N 
HETATM   35  H   UNK N   1      -8.103   0.130   0.350  0.00  0.00     0.158 HD
ATOM     36  HN  UNK N   1      -7.147   1.578   0.305  1.00  0.00     0.158 HD
BRANCH  33  37
HETATM   37  O   UNK N   1     -10.254   1.331   0.818  0.00  0.00    -0.348 OA
HETATM   38  H   UNK N   1     -10.931   1.843   1.214  0.00  0.00     0.219 HD
ENDBRANCH  33  37
ENDBRANCH  29  33
ENDBRANCH  27  29
BRANCH  26  39
HETATM   39  O   UNK N   1      -5.867   4.306  -1.649  0.00  0.00    -0.350 OA
HETATM   40  H   UNK N   1      -5.434   3.710  -2.228  0.00  0.00     0.219 HD
ENDBRANCH  26  39
ENDBRANCH  25  26
ENDBRANCH  24  25
ENDBRANCH  23  24
ENDBRANCH  22  23
ENDBRANCH  21  22
ENDBRANCH  19  21
BRANCH  18  41
HETATM   41  O   UNK N   1      -3.997   3.924   1.714  0.00  0.00    -0.348 OA
HETATM   42  H   UNK N   1      -4.321   4.396   2.456  0.00  0.00     0.219 HD
ENDBRANCH  18  41
ENDBRANCH   1  18
BRANCH   1  43
HETATM   43  N   UNK N   1      -4.128   2.338  -0.719  0.00  0.00    -0.360 N 
HETATM   44  C   UNK N   1      -4.666   1.211  -0.997  0.00  0.00     0.136 C 
ATOM     45  HN  UNK N   1      -4.712   3.135  -0.972  1.00  0.00     0.162 HD
BRANCH  44  46
HETATM   46  C   UNK N   1      -4.107  -0.190  -0.764  0.00  0.00     0.167 C 
BRANCH  46  47
HETATM   47  C   UNK N   1      -2.719  -0.469  -0.157  0.00  0.00     0.143 C 
BRANCH  47  48
HETATM   48  C   UNK N   1      -2.579  -0.847   1.284  0.00  0.00     0.141 C 
HETATM   49  O   UNK N   1      -2.713  -0.013   2.162  0.00  0.00    -0.650 OA
BRANCH  48  50
HETATM   50  O   UNK N   1      -2.179  -2.093   1.601  0.00  0.00    -0.776 OA
HETATM   51  H   UNK N   1      -2.791  -2.768   1.821  0.00  0.00     0.167 HD
ENDBRANCH  48  50
ENDBRANCH  47  48
ENDBRANCH  46  47
BRANCH  46  52
HETATM   52  N   UNK N   1      -5.160  -1.046  -0.269  0.00  0.00    -0.362 N 
HETATM   53  C   UNK N   1      -5.779  -0.939   0.871  0.00  0.00     0.116 C 
ATOM     54  HN  UNK N   1      -5.449  -1.813  -0.876  1.00  0.00     0.162 HD
BRANCH  53  55
HETATM   55  C   UNK N   1      -6.955  -1.836   1.163  0.00  0.00     0.122 C 
BRANCH  55  56
HETATM   56  C   UNK N   1      -6.643  -3.227   0.740  0.00  0.00    -0.051 A 
HETATM   57  C   UNK N   1      -6.276  -4.168   1.697  0.00  0.00     0.008 A 
HETATM   58  C   UNK N   1      -5.741  -5.389   1.293  0.00  0.00     0.014 A 
HETATM   59  C   UNK N   1      -5.567  -5.679  -0.070  0.00  0.00     0.025 A 
HETATM   60  C   UNK N   1      -6.009  -4.754  -1.027  0.00  0.00     0.014 A 
HETATM   61  C   UNK N   1      -6.545  -3.534  -0.624  0.00  0.00     0.008 A 
BRANCH  59  62
HETATM   62  C   UNK N   1      -4.753  -6.883  -0.496  0.00  0.00     0.364 C 
HETATM   63  F   UNK N   1      -4.622  -6.831  -1.884  0.00  0.00    -0.187 F 
HETATM   64  F   UNK N   1      -3.490  -6.711   0.068  0.00  0.00    -0.187 F 
BRANCH  62  65
HETATM   65  P   UNK N   1      -5.564  -8.547   0.025  0.00  0.00     0.315 P 
HETATM   66  O   UNK N   1      -5.026  -9.897   0.569  0.00  0.00    -0.649 OA
BRANCH  65  67
HETATM   67  O   UNK N   1      -5.065  -8.011   1.599  0.00  0.00    -0.325 OA
HETATM   68  H   UNK N   1      -4.666  -8.103   2.478  0.00  0.00     0.220 HD
ENDBRANCH  65  67
BRANCH  65  69
HETATM   69  O   UNK N   1      -4.081  -8.911  -0.816  0.00  0.00    -0.325 OA
HETATM   70  H   UNK N   1      -3.844  -9.727  -1.283  0.00  0.00     0.220 HD
ENDBRANCH  65  69
ENDBRANCH  62  65
ENDBRANCH  59  62
ENDBRANCH  55  56
ENDBRANCH  53  55
BRANCH  53  71
HETATM   71  O   UNK N   1      -5.418  -0.000   1.766  0.00  0.00    -0.349 OA
HETATM   72  H   UNK N   1      -4.726   0.109   2.388  0.00  0.00     0.219 HD
ENDBRANCH  53  71
ENDBRANCH  46  52
ENDBRANCH  44  46
BRANCH  44  73
HETATM   73  O   UNK N   1      -5.865   1.242  -1.623  0.00  0.00    -0.348 OA
HETATM   74  H   UNK N   1      -6.261   1.972  -2.057  0.00  0.00     0.219 HD
ENDBRANCH  44  73
ENDBRANCH   1  43
TORSDOF 34
