REMARK  23 active torsions:
REMARK  status: ('A' for Active; 'I' for Inactive)
REMARK    1  A    between atoms: C_15  and  C_6 
REMARK    2  A    between atoms: N_43  and  C_6 
REMARK    3  A    between atoms: C_16  and  C_7 
REMARK    4  A    between atoms: O_56  and  C_7 
REMARK    5  A    between atoms: C_17  and  C_8 
REMARK    6  A    between atoms: O_57  and  C_8 
REMARK    7  A    between atoms: N_42  and  C_13 
REMARK    8  A    between atoms: C_20  and  C_15 
REMARK    9  A    between atoms: C_15  and  O_45 
REMARK   10  A    between atoms: C_20  and  C_16 
REMARK   11  A    between atoms: C_16  and  O_46 
REMARK   12  A    between atoms: C_20  and  O_47 
REMARK   13  A    between atoms: C_21  and  O_48 
REMARK   14  A    between atoms: C_22  and  O_49 
REMARK   15  A    between atoms: N_29  and  C_23 
REMARK   16  A    between atoms: O_50  and  C_26 
REMARK   17  A    between atoms: C_27  and  N_44 
REMARK   18  A    between atoms: P_60  and  O_52 
REMARK   19  A    between atoms: P_61  and  O_54 
REMARK   20  A    between atoms: P_60  and  O_56 
REMARK   21  A    between atoms: P_61  and  O_57 
REMARK   22  A    between atoms: P_60  and  O_59 
REMARK   23  A    between atoms: P_61  and  O_59 
ROOT
HETATM    1  O   UNK N   1       3.551   6.039  -0.486  0.00  0.00    -0.294 OA
ENDROOT
BRANCH   1   2
HETATM    2  C   UNK N   1       4.236   4.815  -0.299  0.00  0.00     0.215 C 
BRANCH   2   3
HETATM    3  C   UNK N   1       3.356   3.695   0.238  0.00  0.00     0.173 C 
BRANCH   3   4
HETATM    4  C   UNK N   1       2.257   3.219  -0.736  0.00  0.00     0.179 C 
BRANCH   4   5
HETATM    5  C   UNK N   1       1.172   2.458   0.037  0.00  0.00     0.167 C 
BRANCH   5   6
HETATM    6  C   UNK N   1       1.719   1.349   0.962  0.00  0.00     0.165 C 
BRANCH   6   7
HETATM    7  N   UNK N   1       1.700  -0.027   0.452  0.00  0.00    -0.327 N 
HETATM    8  C   UNK N   1       2.878  -0.707   0.209  0.00  0.00     0.065 A 
HETATM    9  C   UNK N   1       4.137  -0.090   0.335  0.00  0.00     0.061 A 
HETATM   10  C   UNK N   1       2.828  -2.061  -0.171  0.00  0.00     0.060 A 
HETATM   11  C   UNK N   1       5.344  -0.790   0.095  0.00  0.00     0.037 A 
HETATM   12  C   UNK N   1       5.253  -2.170  -0.252  0.00  0.00    -0.033 A 
HETATM   13  C   UNK N   1       6.439  -3.035  -0.512  0.00  0.00     0.050 C 
HETATM   14  C   UNK N   1       4.003  -2.776  -0.384  0.00  0.00     0.040 A 
HETATM   15  N   UNK N   1       1.633  -2.682  -0.319  0.00  0.00    -0.348 N 
HETATM   16  C   UNK N   1       0.469  -2.016  -0.100  0.00  0.00     0.129 A 
ATOM     17  HN  UNK N   1       1.607  -3.662  -0.599  1.00  0.00     0.166 HD
HETATM   18  C   UNK N   1       0.501  -0.675   0.304  0.00  0.00     0.143 A 
HETATM   19  C   UNK N   1      -0.762  -2.655  -0.259  0.00  0.00     0.175 A 
HETATM   20  N   UNK N   1      -0.678  -0.028   0.548  0.00  0.00    -0.292 N 
HETATM   21  C   UNK N   1      -1.877  -0.659   0.368  0.00  0.00     0.327 A 
ATOM     22  HN  UNK N   1      -0.663   0.940   0.868  1.00  0.00     0.172 HD
HETATM   23  N   UNK N   1      -1.913  -1.966  -0.032  0.00  0.00    -0.287 N 
HETATM   24  O   UNK N   1      -2.917  -0.051   0.558  0.00  0.00    -0.247 OA
ATOM     25  HN  UNK N   1      -2.813  -2.430  -0.161  1.00  0.00     0.172 HD
BRANCH  11  26
HETATM   26  N   UNK N   1       6.601  -0.084   0.197  0.00  0.00    -0.389 N 
HETATM   27  C   UNK N   1       7.878  -0.725   0.020  0.00  0.00     0.149 C 
HETATM   28  C   UNK N   1       6.630   1.336   0.433  0.00  0.00     0.149 C 
ENDBRANCH  11  26
BRANCH  19  29
HETATM   29  O   UNK N   1      -0.820  -3.942  -0.638  0.00  0.00    -0.344 OA
HETATM   30  H   UNK N   1      -1.618  -4.355  -0.902  0.00  0.00     0.219 HD
ENDBRANCH  19  29
ENDBRANCH   6   7
ENDBRANCH   5   6
BRANCH   5  31
HETATM   31  O   UNK N   1       0.194   2.008  -0.850  0.00  0.00    -0.391 OA
HETATM   32  H   UNK N   1      -0.417   2.441  -1.466  0.00  0.00     0.210 HD
ENDBRANCH   5  31
ENDBRANCH   4   5
BRANCH   4  33
HETATM   33  O   UNK N   1       1.637   4.307  -1.358  0.00  0.00    -0.390 OA
HETATM   34  H   UNK N   1       2.076   5.057  -1.789  0.00  0.00     0.210 HD
ENDBRANCH   4  33
ENDBRANCH   3   4
BRANCH   3  35
HETATM   35  O   UNK N   1       4.188   2.639   0.565  0.00  0.00    -0.391 OA
HETATM   36  H   UNK N   1       3.838   1.764   0.794  0.00  0.00     0.210 HD
ENDBRANCH   3  35
ENDBRANCH   2   3
ENDBRANCH   1   2
BRANCH   1  37
HETATM   37  P   UNK N   1       2.809   6.585   1.024  0.00  0.00     0.401 P 
HETATM   38  O   UNK N   1       1.747   6.693  -0.100  0.00  0.00    -0.631 OA
BRANCH  37  39
HETATM   39  O   UNK N   1       4.462   7.098   0.974  0.00  0.00    -0.307 OA
HETATM   40  H   UNK N   1       5.173   6.440   0.947  0.00  0.00     0.222 HD
ENDBRANCH  37  39
BRANCH  37  41
HETATM   41  O   UNK N   1       2.596   8.348   1.005  0.00  0.00    -0.195 OA
BRANCH  41  42
HETATM   42  P   UNK N   1       3.077   9.107  -0.524  0.00  0.00     0.401 P 
HETATM   43  O   UNK N   1       2.631  10.592  -0.452  0.00  0.00    -0.631 OA
BRANCH  42  44
HETATM   44  O   UNK N   1       2.291   8.449  -1.927  0.00  0.00    -0.307 OA
HETATM   45  H   UNK N   1       1.753   8.645  -2.710  0.00  0.00     0.222 HD
ENDBRANCH  42  44
BRANCH  42  46
HETATM   46  O   UNK N   1       4.792   9.107  -0.749  0.00  0.00    -0.294 OA
BRANCH  46  47
HETATM   47  C   UNK N   1       5.313   9.512   0.478  0.00  0.00     0.215 C 
BRANCH  47  48
HETATM   48  C   UNK N   1       6.813   9.568   0.399  0.00  0.00     0.180 C 
HETATM   49  C   UNK N   1       7.598   8.280   0.363  0.00  0.00     0.182 C 
HETATM   50  C   UNK N   1       8.967   8.872   0.041  0.00  0.00     0.198 C 
HETATM   51  C   UNK N   1       8.566  10.101  -0.832  0.00  0.00     0.262 C 
HETATM   52  O   UNK N   1       7.163  10.159  -0.819  0.00  0.00    -0.353 OA
BRANCH  49  53
HETATM   53  O   UNK N   1       7.572   7.559   1.562  0.00  0.00    -0.390 OA
HETATM   54  H   UNK N   1       7.130   7.325   2.393  0.00  0.00     0.210 HD
ENDBRANCH  49  53
BRANCH  50  55
HETATM   55  O   UNK N   1       9.605   9.286   1.215  0.00  0.00    -0.388 OA
HETATM   56  H   UNK N   1      10.075   9.047   2.029  0.00  0.00     0.210 HD
ENDBRANCH  50  55
BRANCH  51  57
HETATM   57  N   UNK N   1       9.020  11.418  -0.354  0.00  0.00    -0.297 N 
HETATM   58  C   UNK N   1       8.175  12.436  -0.017  0.00  0.00     0.188 A 
HETATM   59  N   UNK N   1       8.849  13.561   0.325  0.00  0.00    -0.346 N 
HETATM   60  C   UNK N   1      10.138  13.220   0.189  0.00  0.00     0.122 A 
ATOM     61  HN  UNK N   1       8.464  14.459   0.617  1.00  0.00     0.167 HD
HETATM   62  C   UNK N   1      11.263  13.991   0.373  0.00  0.00     0.131 A 
HETATM   63  C   UNK N   1      10.244  11.933  -0.209  0.00  0.00     0.142 A 
HETATM   64  N   UNK N   1      12.477  13.406   0.155  0.00  0.00    -0.337 N 
HETATM   65  C   UNK N   1      12.569  12.090  -0.239  0.00  0.00     0.183 A 
ATOM     66  HN  UNK N   1      13.329  13.953   0.285  1.00  0.00     0.168 HD
HETATM   67  N   UNK N   1      11.438  11.339  -0.433  0.00  0.00    -0.336 N 
ATOM     68  HN  UNK N   1      11.496  10.366  -0.737  1.00  0.00     0.168 HD
BRANCH  62  69
HETATM   69  N   UNK N   1      11.165  15.345   0.753  0.00  0.00    -0.383 N 
HETATM   70  H   UNK N   1      11.950  15.877   1.018  0.00  0.00     0.157 HD
HETATM   71  H   UNK N   1      10.279  15.775   0.753  0.00  0.00     0.157 HD
ENDBRANCH  62  69
ENDBRANCH  51  57
ENDBRANCH  47  48
ENDBRANCH  46  47
ENDBRANCH  42  46
ENDBRANCH  41  42
ENDBRANCH  37  41
ENDBRANCH   1  37
TORSDOF 23
