REMARK  13 active torsions:
REMARK  status: ('A' for Active; 'I' for Inactive)
REMARK    1  A    between atoms: C_8  and  C_4 
REMARK    2  A    between atoms: C_13  and  C_8 
REMARK    3  A    between atoms: C_8  and  N_20 
REMARK    4  A    between atoms: C_11  and  C_9 
REMARK    5  A    between atoms: C_14  and  C_10 
REMARK    6  A    between atoms: C_12  and  C_11 
REMARK    7  A    between atoms: C_12  and  O_28 
REMARK    8  A    between atoms: O_29  and  C_14 
REMARK    9  A    between atoms: C_17  and  C_15 
REMARK   10  A    between atoms: O_32  and  C_15 
REMARK   11  A    between atoms: N_18  and  C_16 
REMARK   12  A    between atoms: O_33  and  C_17 
REMARK   13  A    between atoms: O_33  and  N_25 
ROOT
HETATM    1  C   UNK N   1       2.723   4.915  -0.242  0.00  0.00     0.132 C 
HETATM    2  N   UNK N   1       1.646   5.535   0.123  0.00  0.00    -0.259 N 
ATOM      3  HN  UNK N   1       0.999   5.063   0.756  1.00  0.00     0.194 HD
ENDROOT
BRANCH   1   4
HETATM    4  C   UNK N   1       2.844   3.490   0.132  0.00  0.00     0.074 A 
HETATM    5  C   UNK N   1       3.909   2.665  -0.297  0.00  0.00     0.085 A 
HETATM    6  S   UNK N   1       3.478   1.132   0.172  0.00  0.00    -0.064 SA
HETATM    7  C   UNK N   1       2.032   1.506   0.855  0.00  0.00     0.142 A 
HETATM    8  N   UNK N   1       1.805   2.834   0.762  0.00  0.00    -0.335 N 
HETATM    9  H   UNK N   1       0.997   3.280   1.102  0.00  0.00     0.168 HD
BRANCH   7  10
HETATM   10  N   UNK N   1       1.190   0.669   1.324  0.00  0.00    -0.380 N 
HETATM   11  H   UNK N   1       0.306   0.909   1.685  0.00  0.00     0.158 HD
ATOM     12  HN  UNK N   1       1.451  -0.317   1.324  1.00  0.00     0.158 HD
ENDBRANCH   7  10
ENDBRANCH   1   4
BRANCH   1  13
HETATM   13  C   UNK N   1       3.548   5.431  -1.372  0.00  0.00     0.168 C 
HETATM   14  N   UNK N   1       4.819   5.674  -1.308  0.00  0.00    -0.355 N 
ATOM     15  HN  UNK N   1       5.283   5.871  -2.195  1.00  0.00     0.162 HD
BRANCH  14  16
HETATM   16  C   UNK N   1       5.663   5.700  -0.126  0.00  0.00     0.177 C 
BRANCH  16  17
HETATM   17  C   UNK N   1       6.861   4.812  -0.319  0.00  0.00     0.259 C 
HETATM   18  O   UNK N   1       6.736   3.607  -0.455  0.00  0.00    -0.305 OA
ENDBRANCH  16  17
BRANCH  16  19
HETATM   19  C   UNK N   1       6.118   7.165  -0.005  0.00  0.00     0.173 C 
HETATM   20  N   UNK N   1       4.938   7.998   0.071  0.00  0.00    -0.368 N 
HETATM   21  C   UNK N   1       4.960   9.274   0.252  0.00  0.00     0.109 C 
ATOM     22  HN  UNK N   1       4.029   7.546  -0.026  1.00  0.00     0.161 HD
HETATM   23  C   UNK N   1       6.256   9.982   0.516  0.00  0.00    -0.025 C 
HETATM   24  C   UNK N   1       6.334  11.312   0.470  0.00  0.00     0.022 C 
HETATM   25  C   UNK N   1       7.524   9.206   0.763  0.00  0.00     0.116 C 
HETATM   26  S   UNK N   1       7.195   7.523   1.415  0.00  0.00    -0.137 SA
BRANCH  21  27
HETATM   27  C   UNK N   1       3.662   9.984   0.185  0.00  0.00     0.193 C 
HETATM   28  O   UNK N   1       3.568  11.170   0.456  0.00  0.00    -0.645 OA
BRANCH  27  29
HETATM   29  O   UNK N   1       2.566   9.306  -0.188  0.00  0.00    -0.772 OA
HETATM   30  H   UNK N   1       1.773   9.731  -0.448  0.00  0.00     0.167 HD
ENDBRANCH  27  29
ENDBRANCH  21  27
ENDBRANCH  16  19
ENDBRANCH  14  16
BRANCH  13  31
HETATM   31  O   UNK N   1       2.921   5.658  -2.540  0.00  0.00    -0.344 OA
HETATM   32  H   UNK N   1       2.839   6.116  -3.354  0.00  0.00     0.219 HD
ENDBRANCH  13  31
ENDBRANCH   1  13
BRANCH   2  33
HETATM   33  O   UNK N   1       1.353   6.754  -0.294  0.00  0.00    -0.258 OA
BRANCH  33  34
HETATM   34  C   UNK N   1       0.063   7.119  -0.668  0.00  0.00     0.166 C 
HETATM   35  C   UNK N   1       0.135   7.710  -2.063  0.00  0.00     0.060 C 
HETATM   36  C   UNK N   1      -0.870   5.908  -0.737  0.00  0.00     0.060 C 
BRANCH  34  37
HETATM   37  C   UNK N   1      -0.508   8.155   0.282  0.00  0.00     0.178 C 
HETATM   38  O   UNK N   1       0.047   9.231   0.430  0.00  0.00    -0.648 OA
BRANCH  37  39
HETATM   39  O   UNK N   1      -1.653   7.914   0.952  0.00  0.00    -0.774 OA
HETATM   40  H   UNK N   1      -2.196   8.520   1.417  0.00  0.00     0.167 HD
ENDBRANCH  37  39
ENDBRANCH  34  37
ENDBRANCH  33  34
ENDBRANCH   2  33
TORSDOF 13
