REMARK  5 active torsions:
REMARK  status: ('A' for Active; 'I' for Inactive)
REMARK    1  A    between atoms: O_1  and  C_2 
REMARK    2  A    between atoms: C_2  and  C_3 
REMARK    3  A    between atoms: C_3  and  O_4 
REMARK    4  A    between atoms: C_3  and  C_5 
REMARK    5  A    between atoms: C_5  and  S_6 
ROOT
HETATM    1  C   UNK N   1       1.511  -0.684   0.000  0.00  0.00     0.150 C 
ENDROOT
BRANCH   1   2
HETATM    2  C   UNK N   1       3.028  -0.578  -0.000  0.00  0.00     0.196 C 
BRANCH   2   3
HETATM    3  O   UNK N   1       3.622  -1.840   0.000  0.00  0.00    -0.398 OA
HETATM    4  H   UNK N   1       3.068  -2.636   0.000  0.00  0.00     0.209 HD
ENDBRANCH   2   3
ENDBRANCH   1   2
BRANCH   1   5
HETATM    5  O   UNK N   1       0.909  -1.948  -0.000  0.00  0.00    -0.393 OA
HETATM    6  H   UNK N   1      -0.058  -2.025  -0.000  0.00  0.00     0.210 HD
ENDBRANCH   1   5
BRANCH   1   7
HETATM    7  C   UNK N   1       0.654   0.576  -0.000  0.00  0.00     0.104 C 
BRANCH   7   8
HETATM    8  S   UNK N   1      -1.131   0.224   0.000  0.00  0.00    -0.180 SA
HETATM    9  H   UNK N   1      -2.026   1.249   0.000  0.00  0.00     0.101 HD
ENDBRANCH   7   8
ENDBRANCH   1   7
TORSDOF 5
