REMARK  14 active torsions:
REMARK  status: ('A' for Active; 'I' for Inactive)
REMARK    1  A    between atoms: C_9  and  C_5 
REMARK    2  A    between atoms: N_13  and  C_5 
REMARK    3  A    between atoms: C_10  and  C_6 
REMARK    4  A    between atoms: O_22  and  C_6 
REMARK    5  A    between atoms: C_12  and  C_7 
REMARK    6  A    between atoms: N_13  and  C_8 
REMARK    7  A    between atoms: C_11  and  C_9 
REMARK    8  A    between atoms: C_9  and  O_14 
REMARK    9  A    between atoms: C_11  and  C_10 
REMARK   10  A    between atoms: C_10  and  O_15 
REMARK   11  A    between atoms: O_18  and  C_12 
REMARK   12  A    between atoms: P_23  and  O_19 
REMARK   13  A    between atoms: P_23  and  O_20 
REMARK   14  A    between atoms: P_23  and  O_22 
ROOT
HETATM    1  C   UNK N   1       3.813   3.839  -0.219  0.00  0.00     0.179 C 
HETATM    2  O   UNK N   1       3.654   3.831  -1.612  0.00  0.00    -0.390 OA
HETATM    3  H   UNK N   1       3.594   3.923  -2.576  0.00  0.00     0.210 HD
ENDROOT
BRANCH   1   4
HETATM    4  C   UNK N   1       5.164   4.481   0.123  0.00  0.00     0.167 C 
BRANCH   4   5
HETATM    5  C   UNK N   1       6.230   3.707  -0.648  0.00  0.00     0.154 C 
BRANCH   5   6
HETATM    6  N   UNK N   1       7.553   4.019  -0.202  0.00  0.00    -0.387 N 
HETATM    7  H   UNK N   1       7.729   4.950   0.067  0.00  0.00     0.159 HD
BRANCH   6   8
HETATM    8  C   UNK N   1       8.641   3.100  -0.113  0.00  0.00     0.045 A 
HETATM    9  C   UNK N   1       9.914   3.685  -0.109  0.00  0.00     0.030 A 
HETATM   10  C   UNK N   1      11.073   2.916  -0.061  0.00  0.00     0.002 A 
HETATM   11  C   UNK N   1      10.983   1.533  -0.020  0.00  0.00     0.001 A 
HETATM   12  C   UNK N   1       9.736   0.918  -0.013  0.00  0.00     0.020 A 
HETATM   13  C   UNK N   1       8.539   1.659  -0.051  0.00  0.00     0.064 A 
BRANCH  13  14
HETATM   14  C   UNK N   1       7.297   0.823   0.019  0.00  0.00     0.178 C 
HETATM   15  O   UNK N   1       6.194   1.309   0.198  0.00  0.00    -0.646 OA
BRANCH  14  16
HETATM   16  O   UNK N   1       7.398  -0.518  -0.040  0.00  0.00    -0.773 OA
HETATM   17  H   UNK N   1       6.625  -1.046  -0.080  0.00  0.00     0.167 HD
ENDBRANCH  14  16
ENDBRANCH  13  14
ENDBRANCH   6   8
ENDBRANCH   5   6
ENDBRANCH   4   5
BRANCH   4  18
HETATM   18  O   UNK N   1       5.194   5.818  -0.281  0.00  0.00    -0.391 OA
HETATM   19  H   UNK N   1       6.008   6.264  -0.563  0.00  0.00     0.210 HD
ENDBRANCH   4  18
ENDBRANCH   1   4
BRANCH   1  20
HETATM   20  C   UNK N   1       2.574   4.478   0.435  0.00  0.00     0.173 C 
BRANCH  20  21
HETATM   21  C   UNK N   1       1.383   3.730  -0.147  0.00  0.00     0.214 C 
BRANCH  21  22
HETATM   22  O   UNK N   1       0.181   3.923   0.524  0.00  0.00    -0.294 OA
BRANCH  22  23
HETATM   23  P   UNK N   1      -0.825   2.661  -0.140  0.00  0.00     0.390 P 
HETATM   24  O   UNK N   1       0.011   1.350  -0.204  0.00  0.00    -0.632 OA
BRANCH  23  25
HETATM   25  O   UNK N   1      -2.188   2.316   0.875  0.00  0.00    -0.307 OA
HETATM   26  H   UNK N   1      -2.736   2.880   1.442  0.00  0.00     0.222 HD
ENDBRANCH  23  25
BRANCH  23  27
HETATM   27  O   UNK N   1      -1.324   3.022  -1.764  0.00  0.00    -0.307 OA
HETATM   28  H   UNK N   1      -1.289   3.365  -2.671  0.00  0.00     0.222 HD
ENDBRANCH  23  27
ENDBRANCH  22  23
ENDBRANCH  21  22
ENDBRANCH  20  21
BRANCH  20  29
HETATM   29  O   UNK N   1       2.471   5.832   0.110  0.00  0.00    -0.391 OA
HETATM   30  H   UNK N   1       3.250   6.365  -0.115  0.00  0.00     0.210 HD
ENDBRANCH  20  29
ENDBRANCH   1  20
TORSDOF 14
