REMARK  12 active torsions:
REMARK  status: ('A' for Active; 'I' for Inactive)
REMARK    1  A    between atoms: C_29  and  C_6 
REMARK    2  A    between atoms: C_29  and  C_7 
REMARK    3  A    between atoms: C_16  and  C_9 
REMARK    4  A    between atoms: C_17  and  C_9 
REMARK    5  A    between atoms: C_12  and  C_11 
REMARK    6  A    between atoms: C_29  and  C_16 
REMARK    7  A    between atoms: O_33  and  C_17 
REMARK    8  A    between atoms: C_25  and  C_21 
REMARK    9  A    between atoms: O_33  and  C_21 
REMARK   10  A    between atoms: C_24  and  O_30 
REMARK   11  A    between atoms: C_27  and  O_31 
REMARK   12  A    between atoms: O_32  and  C_29 
ROOT
HETATM    1  C   UNK N   1       1.911   0.441  -2.405  0.00  0.00     0.016 C 
HETATM    2  C   UNK N   1       4.429   0.315  -0.857  0.00  0.00     0.005 C 
HETATM    3  C   UNK N   1       4.566   1.641  -0.118  0.00  0.00     0.034 C 
HETATM    4  C   UNK N   1       3.266   3.713   0.309  0.00  0.00     0.004 C 
HETATM    5  C   UNK N   1      -0.158   0.941   0.288  0.00  0.00     0.009 C 
HETATM    6  C   UNK N   1       0.964   1.778   0.859  0.00  0.00     0.010 C 
HETATM    7  C   UNK N   1       3.164  -0.423  -0.442  0.00  0.00     0.010 C 
HETATM    8  C   UNK N   1       3.267   2.413   0.009  0.00  0.00    -0.075 C 
HETATM    9  C   UNK N   1       0.573  -0.245  -0.350  0.00  0.00     0.023 C 
HETATM   10  C   UNK N   1       1.923   1.793  -0.306  0.00  0.00     0.023 C 
HETATM   11  C   UNK N   1       1.917   0.364  -0.871  0.00  0.00    -0.031 C 
ENDROOT
BRANCH   4  12
HETATM   12  C   UNK N   1       4.471   4.555   0.476  0.00  0.00     0.008 C 
HETATM   13  C   UNK N   1       4.380   5.891   0.301  0.00  0.00    -0.048 C 
HETATM   14  C   UNK N   1       3.029   6.484  -0.057  0.00  0.00     0.071 C 
HETATM   15  C   UNK N   1       5.561   6.805   0.360  0.00  0.00    -0.033 C 
HETATM   16  C   UNK N   1       2.924   7.960   0.213  0.00  0.00     0.125 C 
HETATM   17  C   UNK N   1       4.039   8.651  -0.547  0.00  0.00     0.068 C 
HETATM   18  C   UNK N   1       5.429   8.269  -0.017  0.00  0.00     0.153 C 
HETATM   19  C   UNK N   1       6.757   6.351   0.767  0.00  0.00     0.022 C 
BRANCH  16  20
HETATM   20  O   UNK N   1       1.689   8.408  -0.255  0.00  0.00    -0.395 OA
HETATM   21  H   UNK N   1       1.529   9.307  -0.581  0.00  0.00     0.210 HD
ENDBRANCH  16  20
BRANCH  18  22
HETATM   22  O   UNK N   1       6.357   8.587  -1.010  0.00  0.00    -0.391 OA
HETATM   23  H   UNK N   1       6.871   8.139  -1.700  0.00  0.00     0.210 HD
ENDBRANCH  18  22
ENDBRANCH   4  12
BRANCH   9  24
HETATM   24  C   UNK N   1       0.709  -1.421   0.691  0.00  0.00     0.122 C 
HETATM   25  C   UNK N   1       1.409  -1.002   1.980  0.00  0.00     0.040 C 
BRANCH  24  26
HETATM   26  O   UNK N   1      -0.469  -2.146   1.034  0.00  0.00    -0.386 OA
BRANCH  26  27
HETATM   27  C   UNK N   1      -1.664  -1.440   0.806  0.00  0.00     0.168 C 
BRANCH  27  28
HETATM   28  C   UNK N   1      -2.232  -1.811  -0.557  0.00  0.00     0.029 C 
BRANCH  28  29
HETATM   29  C   UNK N   1      -2.539  -3.299  -0.627  0.00  0.00     0.040 C 
BRANCH  29  30
HETATM   30  C   UNK N   1      -3.986  -3.644  -0.250  0.00  0.00     0.057 C 
BRANCH  30  31
HETATM   31  C   UNK N   1      -4.993  -3.162  -1.306  0.00  0.00     0.033 C 
HETATM   32  C   UNK N   1      -5.096  -1.648  -1.414  0.00  0.00     0.008 C 
ENDBRANCH  30  31
BRANCH  30  33
HETATM   33  C   UNK N   1      -4.102  -5.162  -0.114  0.00  0.00     0.033 C 
HETATM   34  C   UNK N   1      -3.765  -5.912  -1.398  0.00  0.00     0.008 C 
ENDBRANCH  30  33
BRANCH  30  35
HETATM   35  O   UNK N   1      -4.301  -3.083   0.990  0.00  0.00    -0.390 OA
HETATM   36  H   UNK N   1      -4.073  -2.699   1.851  0.00  0.00     0.210 HD
ENDBRANCH  30  35
ENDBRANCH  29  30
ENDBRANCH  28  29
ENDBRANCH  27  28
ENDBRANCH  26  27
ENDBRANCH  24  26
ENDBRANCH   9  24
TORSDOF 12
