REMARK  6 active torsions:
REMARK  status: ('A' for Active; 'I' for Inactive)
REMARK    1  A    between atoms: C_21  and  C_12 
REMARK    2  A    between atoms: C_20  and  C_13 
REMARK    3  A    between atoms: C_17  and  O_30 
REMARK    4  A    between atoms: O_30  and  C_18 
REMARK    5  A    between atoms: O_29  and  C_19 
REMARK    6  A    between atoms: N_25  and  C_20 
ROOT
HETATM    1  C   UNK N   1       3.002  -0.072   0.061  0.00  0.00     0.050 A 
HETATM    2  C   UNK N   1       2.808   2.747  -0.196  0.00  0.00     0.075 A 
HETATM    3  C   UNK N   1       4.178   0.714   0.033  0.00  0.00     0.048 A 
HETATM    4  C   UNK N   1       4.070   2.134  -0.106  0.00  0.00     0.132 A 
HETATM    5  C   UNK N   1       1.782   0.579  -0.043  0.00  0.00     0.061 A 
HETATM    6  C   UNK N   1       1.690   1.927  -0.156  0.00  0.00     0.063 A 
HETATM    7  C   UNK N   1      -0.269   1.111  -0.207  0.00  0.00     0.119 A 
HETATM    8  F   UNK N   1       5.174   2.920  -0.159  0.00  0.00    -0.205 F 
HETATM    9  N   UNK N   1       0.553   0.038  -0.078  0.00  0.00    -0.340 N 
ATOM     10  HN  UNK N   1       0.298  -0.948  -0.022  1.00  0.00     0.167 HD
HETATM   11  N   UNK N   1       0.409   2.289  -0.253  0.00  0.00    -0.340 N 
HETATM   12  H   UNK N   1       0.040   3.198  -0.337  0.00  0.00     0.167 HD
ENDROOT
BRANCH   7  13
HETATM   13  C   UNK N   1      -1.731   1.010  -0.375  0.00  0.00     0.044 A 
HETATM   14  C   UNK N   1      -2.318  -0.253  -0.541  0.00  0.00     0.018 A 
HETATM   15  C   UNK N   1      -3.692  -0.371  -0.766  0.00  0.00     0.004 A 
HETATM   16  C   UNK N   1      -4.493   0.771  -0.816  0.00  0.00     0.040 A 
HETATM   17  C   UNK N   1      -3.924   2.034  -0.628  0.00  0.00     0.103 A 
HETATM   18  C   UNK N   1      -2.546   2.160  -0.414  0.00  0.00     0.113 A 
BRANCH  17  19
HETATM   19  O   UNK N   1      -4.704   3.136  -0.648  0.00  0.00    -0.343 OA
BRANCH  19  20
HETATM   20  C   UNK N   1      -5.138   3.736   0.522  0.00  0.00     0.132 C 
HETATM   21  C   UNK N   1      -6.130   2.804   1.237  0.00  0.00     0.033 C 
HETATM   22  C   UNK N   1      -7.425   2.677   0.430  0.00  0.00     0.002 C 
HETATM   23  C   UNK N   1      -8.045   4.040   0.087  0.00  0.00     0.001 C 
HETATM   24  C   UNK N   1      -7.236   5.217   0.636  0.00  0.00     0.007 C 
HETATM   25  C   UNK N   1      -5.775   5.118   0.190  0.00  0.00     0.011 C 
HETATM   26  C   UNK N   1      -4.993   6.249   0.838  0.00  0.00     0.012 C 
ENDBRANCH  19  20
ENDBRANCH  17  19
BRANCH  18  27
HETATM   27  O   UNK N   1      -2.017   3.387  -0.247  0.00  0.00    -0.357 OA
HETATM   28  H   UNK N   1      -1.093   3.494  -0.131  0.00  0.00     0.217 HD
ENDBRANCH  18  27
ENDBRANCH   7  13
BRANCH   3  29
HETATM   29  C   UNK N   1       5.493   0.034   0.146  0.00  0.00     0.105 C 
HETATM   30  N   UNK N   1       6.585   0.705   0.125  0.00  0.00    -0.385 N 
HETATM   31  H   UNK N   1       7.451   0.236   0.110  0.00  0.00     0.157 HD
ATOM     32  HN  UNK N   1       6.557   1.724   0.125  1.00  0.00     0.157 HD
BRANCH  29  33
HETATM   33  N   UNK N   1       5.550  -1.371   0.296  0.00  0.00    -0.385 N 
HETATM   34  H   UNK N   1       4.723  -1.895   0.401  0.00  0.00     0.157 HD
HETATM   35  H   UNK N   1       6.422  -1.828   0.296  0.00  0.00     0.157 HD
ENDBRANCH  29  33
ENDBRANCH   3  29
TORSDOF 6
