REMARK  30 active torsions:
REMARK  status: ('A' for Active; 'I' for Inactive)
REMARK    1  A    between atoms: C_1  and  N_38 
REMARK    2  A    between atoms: C_3  and  O_6 
REMARK    3  A    between atoms: C_4  and  C_32 
REMARK    4  A    between atoms: C_5  and  O_33 
REMARK    5  A    between atoms: N_9  and  C_7 
REMARK    6  A    between atoms: C_7  and  C_8 
REMARK    7  A    between atoms: C_8  and  S_51 
REMARK       I    between atoms: C_10  and  N_9 
REMARK    8  A    between atoms: C_13  and  C_10 
REMARK    9  A    between atoms: C_12  and  N_14 
REMARK   10  A    between atoms: C_13  and  C_12 
REMARK       I    between atoms: C_16  and  N_14 
REMARK   11  A    between atoms: C_16  and  C_21 
REMARK   12  A    between atoms: C_19  and  C_17 
REMARK   13  A    between atoms: C_17  and  O_23 
REMARK   14  A    between atoms: C_21  and  C_19 
REMARK   15  A    between atoms: C_21  and  O_22 
REMARK   16  A    between atoms: O_23  and  P_30 
REMARK   17  A    between atoms: P_30  and  O_24 
REMARK   18  A    between atoms: O_24  and  P_31 
REMARK   19  A    between atoms: P_31  and  O_25 
REMARK   20  A    between atoms: C_32  and  O_25 
REMARK   21  A    between atoms: P_30  and  O_27 
REMARK   22  A    between atoms: O_33  and  P_36 
REMARK   23  A    between atoms: P_36  and  O_34 
REMARK   24  A    between atoms: P_36  and  O_35 
REMARK   25  A    between atoms: N_50  and  C_46 
REMARK   26  A    between atoms: S_51  and  C_53 
REMARK   27  A    between atoms: C_53  and  C_54 
REMARK   28  A    between atoms: C_54  and  C_55 
REMARK   29  A    between atoms: C_55  and  C_57 
REMARK   30  A    between atoms: C_57  and  O_58 
ROOT
HETATM    1  O   UNK N   1      19.613   0.692  -0.451  0.00  0.00    -0.631 OA
HETATM    2  O   UNK N   1      20.710   0.096   1.902  0.00  0.00    -0.307 OA
HETATM    3  P   UNK N   1      20.817  -0.062   0.177  0.00  0.00     0.401 P 
HETATM    4  H   UNK N   1      20.756   0.192   2.866  0.00  0.00     0.222 HD
ENDROOT
BRANCH   3   5
HETATM    5  O   UNK N   1      20.810  -1.750  -0.293  0.00  0.00    -0.195 OA
BRANCH   5   6
HETATM    6  P   UNK N   1      19.182  -2.286  -0.609  0.00  0.00     0.401 P 
HETATM    7  O   UNK N   1      18.583  -1.461  -1.777  0.00  0.00    -0.631 OA
BRANCH   6   8
HETATM    8  O   UNK N   1      18.107  -2.337   0.773  0.00  0.00    -0.296 OA
BRANCH   8   9
HETATM    9  C   UNK N   1      17.808  -1.036   1.189  0.00  0.00     0.192 C 
BRANCH   9  10
HETATM   10  C   UNK N   1      16.432  -0.495   0.741  0.00  0.00     0.009 C 
HETATM   11  C   UNK N   1      16.315   0.851   1.433  0.00  0.00     0.020 C 
HETATM   12  C   UNK N   1      16.399  -0.224  -0.748  0.00  0.00     0.020 C 
BRANCH  10  13
HETATM   13  C   UNK N   1      15.188  -1.319   1.166  0.00  0.00     0.219 C 
BRANCH  13  14
HETATM   14  C   UNK N   1      15.059  -2.795   0.864  0.00  0.00     0.247 C 
HETATM   15  N   UNK N   1      15.957  -3.463   0.103  0.00  0.00    -0.358 N 
HETATM   16  H   UNK N   1      16.592  -2.971  -0.466  0.00  0.00     0.162 HD
HETATM   17  O   UNK N   1      14.148  -3.410   1.400  0.00  0.00    -0.271 OA
BRANCH  15  18
HETATM   18  C   UNK N   1      15.975  -4.903   0.136  0.00  0.00     0.132 C 
BRANCH  18  19
HETATM   19  C   UNK N   1      15.910  -5.553  -1.224  0.00  0.00     0.122 C 
BRANCH  19  20
HETATM   20  C   UNK N   1      15.489  -6.988  -1.031  0.00  0.00     0.219 C 
HETATM   21  N   UNK N   1      16.180  -7.851  -0.235  0.00  0.00    -0.360 N 
HETATM   22  H   UNK N   1      15.856  -8.778  -0.171  0.00  0.00     0.162 HD
HETATM   23  O   UNK N   1      14.483  -7.382  -1.594  0.00  0.00    -0.274 OA
BRANCH  21  24
HETATM   24  C   UNK N   1      17.359  -7.495   0.524  0.00  0.00     0.133 C 
BRANCH  24  25
HETATM   25  C   UNK N   1      18.511  -7.147  -0.397  0.00  0.00     0.102 C 
BRANCH  25  26
HETATM   26  S   UNK N   1      19.969  -6.767   0.605  0.00  0.00    -0.091 SA
BRANCH  26  27
HETATM   27  C   UNK N   1      20.660  -8.400   0.338  0.00  0.00     0.186 C 
HETATM   28  O   UNK N   1      20.417  -9.298   1.126  0.00  0.00    -0.286 OA
BRANCH  27  29
HETATM   29  C   UNK N   1      21.546  -8.666  -0.839  0.00  0.00     0.101 C 
BRANCH  29  30
HETATM   30  C   UNK N   1      22.718  -7.694  -0.915  0.00  0.00     0.118 C 
BRANCH  30  31
HETATM   31  C   UNK N   1      23.653  -7.797   0.249  0.00  0.00     0.139 C 
HETATM   32  O   UNK N   1      24.815  -8.117   0.066  0.00  0.00    -0.650 OA
BRANCH  31  33
HETATM   33  O   UNK N   1      23.230  -7.493   1.492  0.00  0.00    -0.776 OA
HETATM   34  H   UNK N   1      23.267  -7.133   2.356  0.00  0.00     0.167 HD
ENDBRANCH  31  33
ENDBRANCH  30  31
ENDBRANCH  29  30
ENDBRANCH  27  29
ENDBRANCH  26  27
ENDBRANCH  25  26
ENDBRANCH  24  25
ENDBRANCH  21  24
ENDBRANCH  19  20
ENDBRANCH  18  19
ENDBRANCH  15  18
ENDBRANCH  13  14
BRANCH  13  35
HETATM   35  O   UNK N   1      14.014  -0.672   0.762  0.00  0.00    -0.385 OA
HETATM   36  H   UNK N   1      13.996   0.256   0.482  0.00  0.00     0.210 HD
ENDBRANCH  13  35
ENDBRANCH  10  13
ENDBRANCH   9  10
ENDBRANCH   8   9
ENDBRANCH   6   8
BRANCH   6  37
HETATM   37  O   UNK N   1      19.280  -3.894  -1.253  0.00  0.00    -0.307 OA
HETATM   38  H   UNK N   1      18.528  -4.390  -1.614  0.00  0.00     0.222 HD
ENDBRANCH   6  37
ENDBRANCH   5   6
ENDBRANCH   3   5
BRANCH   3  39
HETATM   39  O   UNK N   1      22.259   0.735  -0.407  0.00  0.00    -0.294 OA
BRANCH  39  40
HETATM   40  C   UNK N   1      23.155  -0.282  -0.764  0.00  0.00     0.215 C 
BRANCH  40  41
HETATM   41  C   UNK N   1      23.845  -0.818   0.481  0.00  0.00     0.180 C 
HETATM   42  O   UNK N   1      24.789   0.100   0.997  0.00  0.00    -0.353 OA
HETATM   43  C   UNK N   1      25.777  -0.703   1.617  0.00  0.00     0.262 C 
HETATM   44  C   UNK N   1      25.202  -2.107   1.631  0.00  0.00     0.199 C 
HETATM   45  C   UNK N   1      24.553  -2.143   0.300  0.00  0.00     0.197 C 
BRANCH  43  46
HETATM   46  N   UNK N   1      27.070  -0.523   0.924  0.00  0.00    -0.297 N 
HETATM   47  C   UNK N   1      27.863  -1.370   0.231  0.00  0.00     0.142 A 
HETATM   48  C   UNK N   1      28.984  -0.722  -0.146  0.00  0.00     0.122 A 
HETATM   49  N   UNK N   1      27.656  -2.675  -0.069  0.00  0.00    -0.336 N 
HETATM   50  C   UNK N   1      29.979  -1.392  -0.844  0.00  0.00     0.131 A 
HETATM   51  N   UNK N   1      28.939   0.554   0.269  0.00  0.00    -0.346 N 
HETATM   52  N   UNK N   1      29.780  -2.709  -1.139  0.00  0.00    -0.337 N 
HETATM   53  C   UNK N   1      28.625  -3.348  -0.762  0.00  0.00     0.183 A 
ATOM     54  HN  UNK N   1      30.498  -3.226  -1.647  1.00  0.00     0.168 HD
HETATM   55  C   UNK N   1      27.749   0.654   0.926  0.00  0.00     0.188 A 
ATOM     56  HN  UNK N   1      29.637   1.283   0.126  1.00  0.00     0.167 HD
ATOM     57  HN  UNK N   1      26.796  -3.145   0.215  1.00  0.00     0.168 HD
BRANCH  50  58
HETATM   58  N   UNK N   1      31.170  -0.742  -1.226  0.00  0.00    -0.383 N 
HETATM   59  H   UNK N   1      31.979  -1.236  -1.492  0.00  0.00     0.157 HD
HETATM   60  H   UNK N   1      31.194   0.242  -1.226  0.00  0.00     0.157 HD
ENDBRANCH  50  58
ENDBRANCH  43  46
BRANCH  44  61
HETATM   61  O   UNK N   1      26.101  -3.136   1.905  0.00  0.00    -0.388 OA
HETATM   62  H   UNK N   1      25.794  -4.036   2.095  0.00  0.00     0.210 HD
ENDBRANCH  44  61
BRANCH  45  63
HETATM   63  O   UNK N   1      23.703  -3.261   0.199  0.00  0.00    -0.286 OA
BRANCH  63  64
HETATM   64  P   UNK N   1      23.347  -3.507  -1.499  0.00  0.00     0.391 P 
HETATM   65  O   UNK N   1      23.196  -4.990  -1.921  0.00  0.00    -0.632 OA
BRANCH  64  66
HETATM   66  O   UNK N   1      22.095  -4.192  -0.510  0.00  0.00    -0.307 OA
HETATM   67  H   UNK N   1      21.414  -3.778   0.043  0.00  0.00     0.222 HD
ENDBRANCH  64  66
BRANCH  64  68
HETATM   68  O   UNK N   1      24.930  -4.206  -1.314  0.00  0.00    -0.307 OA
HETATM   69  H   UNK N   1      25.033  -5.165  -1.211  0.00  0.00     0.222 HD
ENDBRANCH  64  68
ENDBRANCH  63  64
ENDBRANCH  45  63
ENDBRANCH  40  41
ENDBRANCH  39  40
ENDBRANCH   3  39
TORSDOF 30
