REMARK  8 active torsions:
REMARK  status: ('A' for Active; 'I' for Inactive)
REMARK    1  A    between atoms: C_1  and  C_2 
REMARK    2  A    between atoms: C_4  and  O_9 
REMARK    3  A    between atoms: C_7  and  C_13 
REMARK    4  A    between atoms: C_8  and  O_14 
REMARK    5  A    between atoms: C_13  and  O_16 
REMARK    6  A    between atoms: O_16  and  P_18 
REMARK    7  A    between atoms: P_18  and  O_19 
REMARK    8  A    between atoms: P_18  and  O_20 
ROOT
HETATM    1  C   UNK N   1       1.042  -0.864   0.803  0.00  0.00     0.193 C 
HETATM    2  O   UNK N   1      -0.331  -0.875   1.135  0.00  0.00    -0.368 OA
HETATM    3  C   UNK N   1       1.261  -1.903  -0.298  0.00  0.00     0.183 C 
HETATM    4  C   UNK N   1      -0.941  -1.524   0.056  0.00  0.00     0.178 C 
HETATM    5  C   UNK N   1      -0.027  -2.665  -0.271  0.00  0.00     0.180 C 
ENDROOT
BRANCH   1   6
HETATM    6  C   UNK N   1       1.465   0.520   0.356  0.00  0.00     0.057 A 
HETATM    7  C   UNK N   1       2.804   0.839   0.080  0.00  0.00     0.259 A 
HETATM    8  N   UNK N   1       3.134   2.114  -0.302  0.00  0.00    -0.275 N 
HETATM    9  O   UNK N   1       3.678  -0.003   0.187  0.00  0.00    -0.267 OA
HETATM   10  C   UNK N   1       2.173   3.082  -0.418  0.00  0.00     0.326 A 
HETATM   11  H   UNK N   1       4.074   2.335  -0.495  0.00  0.00     0.173 HD
HETATM   12  O   UNK N   1       2.482   4.211  -0.754  0.00  0.00    -0.247 OA
HETATM   13  N   UNK N   1       0.865   2.783  -0.153  0.00  0.00    -0.318 N 
HETATM   14  C   UNK N   1       0.505   1.533   0.230  0.00  0.00     0.108 A 
HETATM   15  H   UNK N   1       0.178   3.483  -0.242  0.00  0.00     0.170 HD
ENDBRANCH   1   6
BRANCH   3  16
HETATM   16  O   UNK N   1       2.336  -2.741  -0.000  0.00  0.00    -0.390 OA
HETATM   17  H   UNK N   1       2.206  -3.680   0.207  0.00  0.00     0.210 HD
ENDBRANCH   3  16
BRANCH   4  18
HETATM   18  C   UNK N   1      -2.356  -1.952   0.403  0.00  0.00     0.215 C 
BRANCH  18  19
HETATM   19  O   UNK N   1      -3.090  -0.841   0.848  0.00  0.00    -0.294 OA
BRANCH  19  20
HETATM   20  P   UNK N   1      -3.857  -0.167  -0.563  0.00  0.00     0.390 P 
HETATM   21  O   UNK N   1      -3.160   1.083   0.041  0.00  0.00    -0.632 OA
BRANCH  20  22
HETATM   22  O   UNK N   1      -5.176   0.952  -0.410  0.00  0.00    -0.307 OA
HETATM   23  H   UNK N   1      -5.003   1.902  -0.325  0.00  0.00     0.222 HD
ENDBRANCH  20  22
BRANCH  20  24
HETATM   24  O   UNK N   1      -5.055  -0.748   0.551  0.00  0.00    -0.307 OA
HETATM   25  H   UNK N   1      -5.671  -0.331   1.174  0.00  0.00     0.222 HD
ENDBRANCH  20  24
ENDBRANCH  19  20
ENDBRANCH  18  19
ENDBRANCH   4  18
BRANCH   5  26
HETATM   26  O   UNK N   1      -0.312  -3.217  -1.520  0.00  0.00    -0.390 OA
HETATM   27  H   UNK N   1      -0.743  -3.237  -2.389  0.00  0.00     0.210 HD
ENDBRANCH   5  26
TORSDOF 8
