REMARK  8 active torsions:
REMARK  status: ('A' for Active; 'I' for Inactive)
REMARK    1  A    between atoms: C_4  and  C_1 
REMARK    2  A    between atoms: O_23  and  C_1 
REMARK    3  A    between atoms: C_6  and  O_18 
REMARK    4  A    between atoms: C_7  and  O_19 
REMARK    5  A    between atoms: C_10  and  N_17 
REMARK    6  A    between atoms: P_25  and  O_20 
REMARK    7  A    between atoms: P_25  and  O_21 
REMARK    8  A    between atoms: P_25  and  O_23 
ROOT
HETATM    1  C   UNK N   1      -0.109  -1.872   0.948  0.00  0.00     0.180 C 
HETATM    2  C   UNK N   1       0.997  -2.482   0.088  0.00  0.00     0.182 C 
HETATM    3  C   UNK N   1       1.902  -1.289   0.003  0.00  0.00     0.198 C 
HETATM    4  C   UNK N   1       0.829  -0.251  -0.322  0.00  0.00     0.262 C 
HETATM    5  O   UNK N   1      -0.242  -0.511   0.569  0.00  0.00    -0.353 OA
ENDROOT
BRANCH   4   6
HETATM    6  N   UNK N   1       1.249   1.155  -0.247  0.00  0.00    -0.297 N 
HETATM    7  C   UNK N   1       0.392   2.202  -0.378  0.00  0.00     0.188 A 
HETATM    8  N   UNK N   1       1.043   3.395  -0.327  0.00  0.00    -0.346 N 
HETATM    9  C   UNK N   1       2.336   3.063  -0.175  0.00  0.00     0.117 A 
ATOM     10  HN  UNK N   1       0.640   4.330  -0.390  1.00  0.00     0.167 HD
HETATM   11  C   UNK N   1       3.452   3.879  -0.108  0.00  0.00     0.135 A 
HETATM   12  C   UNK N   1       2.462   1.721  -0.117  0.00  0.00     0.142 A 
HETATM   13 Cl   UNK N   1       3.320   5.624  -0.209  0.00  0.00    -0.062 Cl
HETATM   14  N   UNK N   1       4.673   3.277   0.015  0.00  0.00    -0.341 N 
HETATM   15  C   UNK N   1       4.785   1.909   0.074  0.00  0.00     0.183 A 
HETATM   16  H   UNK N   1       5.484   3.833   0.063  0.00  0.00     0.167 HD
HETATM   17  N   UNK N   1       3.670   1.116   0.004  0.00  0.00    -0.336 N 
ATOM     18  HN  UNK N   1       3.746   0.100   0.042  1.00  0.00     0.168 HD
ENDBRANCH   4   6
BRANCH   3  19
HETATM   19  O   UNK N   1       2.869  -1.422  -0.996  0.00  0.00    -0.388 OA
HETATM   20  H   UNK N   1       3.125  -2.050  -1.689  0.00  0.00     0.210 HD
ENDBRANCH   3  19
BRANCH   2  21
HETATM   21  O   UNK N   1       1.601  -3.593   0.680  0.00  0.00    -0.390 OA
HETATM   22  H   UNK N   1       1.143  -4.342   1.091  0.00  0.00     0.210 HD
ENDBRANCH   2  21
BRANCH   1  23
HETATM   23  C   UNK N   1      -1.437  -2.620   0.839  0.00  0.00     0.215 C 
BRANCH  23  24
HETATM   24  O   UNK N   1      -2.093  -2.345  -0.368  0.00  0.00    -0.294 OA
BRANCH  24  25
HETATM   25  P   UNK N   1      -3.805  -2.290   0.001  0.00  0.00     0.390 P 
HETATM   26  O   UNK N   1      -4.076  -3.054   1.329  0.00  0.00    -0.632 OA
BRANCH  25  27
HETATM   27  O   UNK N   1      -4.728  -3.113  -1.217  0.00  0.00    -0.307 OA
HETATM   28  H   UNK N   1      -5.384  -2.896  -1.898  0.00  0.00     0.222 HD
ENDBRANCH  25  27
BRANCH  25  29
HETATM   29  O   UNK N   1      -4.392  -0.670   0.217  0.00  0.00    -0.307 OA
HETATM   30  H   UNK N   1      -3.773   0.066   0.338  0.00  0.00     0.222 HD
ENDBRANCH  25  29
ENDBRANCH  24  25
ENDBRANCH  23  24
ENDBRANCH   1  23
TORSDOF 8
