REMARK  12 active torsions:
REMARK  status: ('A' for Active; 'I' for Inactive)
REMARK    1  A    between atoms: N_2  and  C_3 
REMARK    2  A    between atoms: N_2  and  C_10 
REMARK    3  A    between atoms: C_3  and  C_4 
REMARK    4  A    between atoms: C_4  and  C_5 
REMARK    5  A    between atoms: C_5  and  N_6 
REMARK    6  A    between atoms: C_5  and  C_7 
REMARK    7  A    between atoms: C_7  and  O_8 
REMARK    8  A    between atoms: C_11  and  C_10 
REMARK    9  A    between atoms: C_13  and  N_18 
REMARK   10  A    between atoms: C_14  and  O_15 
REMARK   11  A    between atoms: C_16  and  O_17 
REMARK   12  A    between atoms: C_23  and  N_24 
ROOT
HETATM    1  C   UNK N   1      11.046  -1.081   0.314  0.00  0.00     0.183 C 
HETATM    2  O   UNK N   1      12.246  -0.487  -0.138  0.00  0.00    -0.354 OA
HETATM    3  C   UNK N   1      13.108  -1.549  -0.492  0.00  0.00     0.262 C 
HETATM    4  C   UNK N   1      12.624  -2.779   0.234  0.00  0.00     0.198 C 
HETATM    5  C   UNK N   1      11.164  -2.574   0.091  0.00  0.00     0.182 C 
ENDROOT
BRANCH   3   6
HETATM    6  N   UNK N   1      14.506  -1.201  -0.204  0.00  0.00    -0.297 N 
HETATM    7  C   UNK N   1      14.991   0.054  -0.002  0.00  0.00     0.188 A 
HETATM    8  N   UNK N   1      16.342   0.046   0.173  0.00  0.00    -0.346 N 
HETATM    9  C   UNK N   1      16.682  -1.252   0.078  0.00  0.00     0.122 A 
ATOM     10  HN  UNK N   1      16.956   0.843   0.340  1.00  0.00     0.167 HD
HETATM   11  C   UNK N   1      17.927  -1.854   0.172  0.00  0.00     0.131 A 
HETATM   12  C   UNK N   1      15.583  -1.997  -0.149  0.00  0.00     0.142 A 
HETATM   13  N   UNK N   1      17.992  -3.213   0.044  0.00  0.00    -0.337 N 
HETATM   14  C   UNK N   1      16.858  -3.956  -0.178  0.00  0.00     0.183 A 
ATOM     15  HN  UNK N   1      18.895  -3.682   0.115  1.00  0.00     0.168 HD
HETATM   16  N   UNK N   1      15.638  -3.345  -0.284  0.00  0.00    -0.336 N 
ATOM     17  HN  UNK N   1      14.793  -3.888  -0.460  1.00  0.00     0.168 HD
BRANCH  11  18
HETATM   18  N   UNK N   1      19.095  -1.096   0.387  0.00  0.00    -0.383 N 
HETATM   19  H   UNK N   1      19.961  -1.538   0.537  0.00  0.00     0.157 HD
HETATM   20  H   UNK N   1      19.044  -0.113   0.387  0.00  0.00     0.157 HD
ENDBRANCH  11  18
ENDBRANCH   3   6
BRANCH   4  21
HETATM   21  O   UNK N   1      12.993  -3.938  -0.450  0.00  0.00    -0.388 OA
HETATM   22  H   UNK N   1      12.424  -4.563  -0.927  0.00  0.00     0.210 HD
ENDBRANCH   4  21
BRANCH   1  23
HETATM   23  C   UNK N   1       9.884  -0.509  -0.497  0.00  0.00     0.306 C 
BRANCH  23  24
HETATM   24  N   UNK N   1       8.590  -0.720   0.138  0.00  0.00     0.086 N 
HETATM   25  C   UNK N   1       8.122  -2.047  -0.233  0.00  0.00     0.310 C 
BRANCH  24  26
HETATM   26  C   UNK N   1       7.686   0.219  -0.505  0.00  0.00     0.274 C 
BRANCH  26  27
HETATM   27  C   UNK N   1       6.598   0.679   0.452  0.00  0.00     0.065 C 
BRANCH  27  28
HETATM   28  C   UNK N   1       5.263   0.628  -0.272  0.00  0.00     0.174 C 
BRANCH  28  29
HETATM   29  N   UNK N   1       4.433   1.745   0.151  0.00  0.00    -0.418 N 
HETATM   30  H   UNK N   1       4.820   2.640   0.448  0.00  0.00     0.150 HD
HETATM   31  H   UNK N   1       3.420   1.627   0.151  0.00  0.00     0.150 HD
ENDBRANCH  28  29
BRANCH  28  32
HETATM   32  C   UNK N   1       4.556  -0.679  -0.030  0.00  0.00     0.163 C 
HETATM   33  O   UNK N   1       5.130  -1.734  -0.246  0.00  0.00    -0.648 OA
BRANCH  32  34
HETATM   34  O   UNK N   1       3.278  -0.697   0.399  0.00  0.00    -0.775 OA
HETATM   35  H   UNK N   1       2.823   0.067   0.697  0.00  0.00     0.167 HD
ENDBRANCH  32  34
ENDBRANCH  28  32
ENDBRANCH  27  28
ENDBRANCH  26  27
ENDBRANCH  24  26
ENDBRANCH  23  24
ENDBRANCH   1  23
BRANCH   5  36
HETATM   36  O   UNK N   1      10.463  -3.309   1.047  0.00  0.00    -0.390 OA
HETATM   37  H   UNK N   1       9.776  -3.141   1.712  0.00  0.00     0.210 HD
ENDBRANCH   5  36
TORSDOF 12
