REMARK  4 active torsions:
REMARK  status: ('A' for Active; 'I' for Inactive)
REMARK    1  A    between atoms: C_2  and  N_1 
REMARK    2  A    between atoms: C_4  and  C_10 
REMARK    3  A    between atoms: C_6  and  O_7 
REMARK    4  A    between atoms: C_8  and  O_9 
ROOT
HETATM    1  C   UNK N   1       1.860   0.891   0.003  0.00  0.00     0.129 A 
HETATM    2  C   UNK N   1       1.819  -0.604   0.000  0.00  0.00     0.014 A 
HETATM    3  C   UNK N   1       0.662  -1.301  -0.000  0.00  0.00     0.019 A 
HETATM    4  C   UNK N   1      -0.713  -0.633  -0.001  0.00  0.00     0.079 A 
HETATM    5  C   UNK N   1      -0.712   0.897   0.005  0.00  0.00     0.153 A 
HETATM    6  C   UNK N   1       0.578   1.676  -0.007  0.00  0.00     0.173 A 
ENDROOT
BRANCH   1   7
HETATM    7  N   UNK N   1       3.140   1.574  -0.001  0.00  0.00    -0.421 N 
HETATM    8  H   UNK N   1       4.006   1.035  -0.004  0.00  0.00     0.150 HD
HETATM    9  H   UNK N   1       3.174   2.594  -0.001  0.00  0.00     0.150 HD
ENDBRANCH   1   7
BRANCH   6  10
HETATM   10  O   UNK N   1       0.582   3.071   0.002  0.00  0.00    -0.391 OA
HETATM   11  H   UNK N   1       1.424   3.554   0.008  0.00  0.00     0.210 HD
ENDBRANCH   6  10
BRANCH   3  12
HETATM   12  C   UNK N   1       0.726  -2.780  -0.000  0.00  0.00     0.205 C 
HETATM   13  O   UNK N   1       1.919  -3.410  -0.000  0.00  0.00    -0.644 OA
HETATM   14  O   UNK N   1      -0.300  -3.441  -0.000  0.00  0.00    -0.644 OA
ENDBRANCH   3  12
BRANCH   5  15
HETATM   15  O   UNK N   1      -1.927   1.580  -0.001  0.00  0.00    -0.393 OA
HETATM   16  H   UNK N   1      -1.938   2.550  -0.006  0.00  0.00     0.210 HD
ENDBRANCH   5  15
TORSDOF 4
