REMARK  6 active torsions:
REMARK  status: ('A' for Active; 'I' for Inactive)
REMARK    1  A    between atoms: C_5  and  C_6 
REMARK    2  A    between atoms: C_10  and  C_9 
REMARK    3  A    between atoms: C_19  and  N_14 
REMARK    4  A    between atoms: C_16  and  C_17 
REMARK    5  A    between atoms: C_20  and  C_21 
REMARK    6  A    between atoms: C_29  and  N_28 
ROOT
HETATM    1 Ru   UNK N   1      -0.000  -0.204   0.000  0.00  0.00     0.000 Ru
HETATM    2  N   UNK N   1       0.785  -0.459   0.000  0.00  0.00    -0.259 N 
HETATM    3  C   UNK N   1       1.120  -1.213   0.000  0.00  0.00     0.117 A 
HETATM    4  C   UNK N   1       1.941  -1.299   0.000  0.00  0.00     0.019 A 
HETATM    5  C   UNK N   1       2.426  -0.631   0.000  0.00  0.00     0.004 A 
HETATM    6  C   UNK N   1       2.090   0.122   0.000  0.00  0.00     0.034 A 
HETATM    7  C   UNK N   1       1.270   0.208   0.000  0.00  0.00     0.085 A 
HETATM    8  C   UNK N   1       0.785   0.876   0.000  0.00  0.00     0.085 A 
HETATM    9  C   UNK N   1       0.956   1.683   0.000  0.00  0.00     0.034 A 
HETATM   10  C   UNK N   1       0.245   2.299   0.000  0.00  0.00     0.004 A 
HETATM   11  C   UNK N   1      -0.505   1.882   0.000  0.00  0.00     0.019 A 
HETATM   12  C   UNK N   1      -0.613   1.173   0.000  0.00  0.00     0.117 A 
HETATM   13  N   UNK N   1      -0.191   0.328   0.000  0.00  0.00    -0.259 N 
HETATM   14  N   UNK N   1      -0.000   0.621   0.000  0.00  0.00    -0.259 N 
HETATM   15  C   UNK N   1       0.613   1.173   0.000  0.00  0.00     0.117 A 
HETATM   16  C   UNK N   1       0.442   1.980   0.000  0.00  0.00     0.019 A 
HETATM   17  C   UNK N   1      -0.343   2.235   0.000  0.00  0.00     0.004 A 
HETATM   18  C   UNK N   1      -0.956   1.683   0.000  0.00  0.00     0.034 A 
HETATM   19  C   UNK N   1      -0.785   0.876   0.000  0.00  0.00     0.085 A 
HETATM   20  C   UNK N   1      -1.270   0.208   0.000  0.00  0.00     0.085 A 
HETATM   21  C   UNK N   1      -2.090   0.122   0.000  0.00  0.00     0.034 A 
HETATM   22  C   UNK N   1      -2.426  -0.631   0.000  0.00  0.00     0.004 A 
HETATM   23  C   UNK N   1      -1.941  -1.299   0.000  0.00  0.00     0.019 A 
HETATM   24  C   UNK N   1      -1.120  -1.213   0.000  0.00  0.00     0.117 A 
HETATM   25  N   UNK N   1      -0.785  -0.459   0.000  0.00  0.00    -0.259 N 
HETATM   26  C   UNK N   1       0.667  -1.514   0.000  0.00  0.00     0.135 A 
HETATM   27  C   UNK N   1       0.412  -2.299   0.000  0.00  0.00     0.108 A 
HETATM   28  N   UNK N   1      -0.000  -1.029   0.000  0.00  0.00    -0.255 N 
HETATM   29  C   UNK N   1      -0.667  -1.514   0.000  0.00  0.00     0.206 A 
HETATM   30  N   UNK N   1      -0.412  -2.299   0.000  0.00  0.00    -0.359 N 
ATOM     31  HN  UNK N   1      -1.012  -3.124   0.000  1.00  0.00     0.166 HD
ENDROOT
TORSDOF 6
