REMARK  13 active torsions:
REMARK  status: ('A' for Active; 'I' for Inactive)
REMARK    1  A    between atoms: C_2  and  O_1 
REMARK    2  A    between atoms: C_2  and  C_3 
REMARK    3  A    between atoms: C_2  and  C_9 
REMARK    4  A    between atoms: C_3  and  O_4 
REMARK    5  A    between atoms: O_4  and  P_5 
REMARK    6  A    between atoms: P_5  and  O_6 
REMARK    7  A    between atoms: P_5  and  O_7 
REMARK    8  A    between atoms: C_9  and  O_10 
REMARK    9  A    between atoms: C_9  and  C_11 
REMARK   10  A    between atoms: C_11  and  O_12 
REMARK   11  A    between atoms: C_11  and  C_13 
REMARK   12  A    between atoms: C_13  and  O_14 
REMARK   13  A    between atoms: C_13  and  C_15 
ROOT
HETATM    1  C   UNK N   1       4.827   1.326   0.239  0.00  0.00     0.173 C 
ENDROOT
BRANCH   1   2
HETATM    2  O   UNK N   1       5.142   0.013  -0.109  0.00  0.00    -0.391 OA
HETATM    3  H   UNK N   1       4.460  -0.633  -0.352  0.00  0.00     0.210 HD
ENDBRANCH   1   2
BRANCH   1   4
HETATM    4  C   UNK N   1       3.462   1.642  -0.348  0.00  0.00     0.214 C 
BRANCH   4   5
HETATM    5  O   UNK N   1       2.814   2.615   0.419  0.00  0.00    -0.294 OA
BRANCH   5   6
HETATM    6  P   UNK N   1       1.642   3.332  -0.647  0.00  0.00     0.390 P 
HETATM    7  O   UNK N   1       2.202   4.560   0.119  0.00  0.00    -0.632 OA
BRANCH   6   8
HETATM    8  O   UNK N   1       0.218   4.069   0.018  0.00  0.00    -0.307 OA
HETATM    9  H   UNK N   1       0.178   4.964   0.389  0.00  0.00     0.222 HD
ENDBRANCH   6   8
BRANCH   6  10
HETATM   10  O   UNK N   1       0.819   2.255   0.443  0.00  0.00    -0.307 OA
HETATM   11  H   UNK N   1       0.069   2.352   1.051  0.00  0.00     0.222 HD
ENDBRANCH   6  10
ENDBRANCH   5   6
ENDBRANCH   4   5
ENDBRANCH   1   4
BRANCH   1  12
HETATM   12  C   UNK N   1       5.900   2.299  -0.283  0.00  0.00     0.180 C 
BRANCH  12  13
HETATM   13  O   UNK N   1       5.535   3.606   0.053  0.00  0.00    -0.390 OA
HETATM   14  H   UNK N   1       6.193   4.279   0.286  0.00  0.00     0.210 HD
ENDBRANCH  12  13
BRANCH  12  15
HETATM   15  C   UNK N   1       7.307   1.989   0.272  0.00  0.00     0.184 C 
BRANCH  15  16
HETATM   16  O   UNK N   1       7.649   0.668  -0.032  0.00  0.00    -0.390 OA
HETATM   17  H   UNK N   1       6.974   0.004  -0.243  0.00  0.00     0.210 HD
ENDBRANCH  15  16
BRANCH  15  18
HETATM   18  C   UNK N   1       8.385   2.924  -0.305  0.00  0.00     0.210 C 
BRANCH  18  19
HETATM   19  O   UNK N   1       8.127   4.248   0.050  0.00  0.00    -0.386 OA
HETATM   20  H   UNK N   1       8.835   4.864   0.297  0.00  0.00     0.210 HD
ENDBRANCH  18  19
BRANCH  18  21
HETATM   21  C   UNK N   1       9.755   2.567   0.189  0.00  0.00     0.265 C 
HETATM   22  O   UNK N   1      10.254   1.483  -0.077  0.00  0.00    -0.304 OA
ENDBRANCH  18  21
ENDBRANCH  15  18
ENDBRANCH  12  15
ENDBRANCH   1  12
TORSDOF 13
