REMARK  18 active torsions:
REMARK  status: ('A' for Active; 'I' for Inactive)
REMARK    1  A    between atoms: C_2  and  C_3 
REMARK    2  A    between atoms: C_3  and  C_4 
REMARK       I    between atoms: C_4  and  N_5 
REMARK    3  A    between atoms: C_23  and  O_24 
REMARK    4  A    between atoms: C_27  and  C_28 
REMARK    5  A    between atoms: C_28  and  O_29 
REMARK    6  A    between atoms: C_60  and  C_62 
REMARK    7  A    between atoms: C_62  and  C_63 
REMARK       I    between atoms: C_63  and  N_64 
REMARK    8  A    between atoms: C_66  and  C_67 
REMARK    9  A    between atoms: C_67  and  C_68 
REMARK   10  A    between atoms: C_68  and  C_69 
REMARK       I    between atoms: C_69  and  N_70 
REMARK   11  A    between atoms: C_72  and  C_74 
REMARK   12  A    between atoms: C_74  and  C_75 
REMARK       I    between atoms: C_75  and  N_76 
REMARK   13  A    between atoms: C_78  and  C_79 
REMARK   14  A    between atoms: C_79  and  C_80 
REMARK   15  A    between atoms: C_80  and  C_81 
REMARK       I    between atoms: C_81  and  N_82 
REMARK   16  A    between atoms: C_87  and  C_88 
REMARK   17  A    between atoms: C_88  and  C_89 
REMARK   18  A    between atoms: C_89  and  C_90 
REMARK       I    between atoms: C_90  and  N_91 
ROOT
HETATM    1  C   UNK N   1       0.081   0.109  -0.651  0.00  0.00     0.111 A 
HETATM    2  C   UNK N   1       0.573  -0.766  -1.839  0.00  0.00     0.026 C 
HETATM    3  C   UNK N   1      -0.251  -2.195  -1.676  0.00  0.00    -0.020 C 
HETATM    4  C   UNK N   1      -1.685  -2.003  -2.166  0.00  0.00     0.017 C 
HETATM    5  C   UNK N   1       0.079  -3.578  -2.293  0.00  0.00     0.020 C 
HETATM    6  C   UNK N   1       0.996  -4.459  -1.445  0.00  0.00     0.103 C 
HETATM    7  C   UNK N   1       2.172  -3.652  -1.380  0.00  0.00     0.217 C 
HETATM    8  O   UNK N   1       2.646  -3.311  -2.453  0.00  0.00    -0.274 OA
HETATM    9  N   UNK N   1       2.620  -3.102  -0.227  0.00  0.00    -0.359 N 
HETATM   10  C   UNK N   1       2.052  -3.036   1.097  0.00  0.00     0.154 C 
HETATM   11  C   UNK N   1       2.951  -3.058   2.229  0.00  0.00     0.148 C 
HETATM   12  C   UNK N   1       2.162  -2.636   3.470  0.00  0.00     0.042 C 
HETATM   13  O   UNK N   1       3.151  -4.399   2.283  0.00  0.00    -0.283 OA
HETATM   14  P   UNK N   1       4.596  -4.675   1.384  0.00  0.00     0.409 P 
HETATM   15  O   UNK N   1       5.972  -4.704   2.426  0.00  0.00    -0.624 OA
HETATM   16  O   UNK N   1       4.332  -6.172   1.582  0.00  0.00    -0.624 OA
HETATM   17  O   UNK N   1       4.694  -4.942  -0.399  0.00  0.00    -0.279 OA
HETATM   18  C   UNK N   1       5.531  -4.087  -1.222  0.00  0.00     0.198 C 
HETATM   19  C   UNK N   1       4.843  -2.804  -1.590  0.00  0.00     0.199 C 
HETATM   20  C   UNK N   1       4.916  -2.116  -0.283  0.00  0.00     0.261 C 
HETATM   21  O   UNK N   1       6.210  -2.473   0.313  0.00  0.00    -0.353 OA
HETATM   22  C   UNK N   1       6.731  -3.534  -0.528  0.00  0.00     0.180 C 
HETATM   23  N   UNK N   1       3.990  -0.886   0.129  0.00  0.00    -0.309 N 
HETATM   24  C   UNK N   1       2.572  -0.624   0.286  0.00  0.00     0.213 A 
HETATM   25  N   UNK N   1       1.970   0.624   0.715  0.00  0.00    -0.242 N 
HETATM   26  C   UNK N   1       3.599   1.196   0.802  0.00  0.00     0.085 A 
HETATM   27  C   UNK N   1       4.716   2.343   1.084  0.00  0.00     0.041 A 
HETATM   28  C   UNK N   1       6.349   2.214   0.990  0.00  0.00    -0.054 A 
HETATM   29  C   UNK N   1       7.445   3.268   1.245  0.00  0.00     0.049 C 
HETATM   30  C   UNK N   1       6.948   1.008   0.627  0.00  0.00    -0.054 A 
HETATM   31  C   UNK N   1       8.467   0.645   0.489  0.00  0.00     0.049 C 
HETATM   32  C   UNK N   1       6.047   0.090   0.365  0.00  0.00     0.039 A 
HETATM   33  C   UNK N   1       4.581   0.166   0.437  0.00  0.00     0.067 A 
HETATM   34 Co   UNK N   1      -1.202  -0.110   0.661  0.00  0.00     0.000 Co
HETATM   35  C   UNK N   1      -1.115  -0.068   2.653  0.00  0.00     0.000 C 
HETATM   36  N   UNK N   1      -0.054  -1.038   0.336  0.00  0.00    -0.235 NA
HETATM   37  C   UNK N   1      -0.061  -2.309  -0.165  0.00  0.00     0.093 C 
HETATM   38  C   UNK N   1      -0.526  -3.325   0.650  0.00  0.00     0.050 C 
HETATM   39  C   UNK N   1      -0.350  -3.426   2.150  0.00  0.00     0.018 C 
HETATM   40  C   UNK N   1      -1.801  -3.297   0.522  0.00  0.00     0.023 C 
HETATM   41  N   UNK N   1      -2.309  -2.142   0.536  0.00  0.00    -0.261 N 
HETATM   42  C   UNK N   1      -3.636  -2.486   0.211  0.00  0.00     0.045 C 
HETATM   43  C   UNK N   1      -4.516  -1.766   0.034  0.00  0.00     0.055 C 
HETATM   44  C   UNK N   1      -4.488  -0.707   0.681  0.00  0.00     0.042 C 
HETATM   45  N   UNK N   1      -3.525   0.148   0.836  0.00  0.00    -0.256 N 
HETATM   46  C   UNK N   1      -4.416   1.255   0.897  0.00  0.00     0.052 C 
HETATM   47  C   UNK N   1      -3.951   2.304   0.418  0.00  0.00    -0.012 C 
HETATM   48  C   UNK N   1      -4.824   2.844  -0.684  0.00  0.00     0.052 C 
HETATM   49  C   UNK N   1      -2.497   2.525   0.403  0.00  0.00     0.043 C 
HETATM   50  N   UNK N   1      -1.503   1.619   0.475  0.00  0.00    -0.280 N 
HETATM   51  C   UNK N   1      -0.350   1.910  -0.164  0.00  0.00     0.076 C 
HETATM   52  C   UNK N   1      -0.758   2.319  -1.615  0.00  0.00     0.043 C 
HETATM   53  C   UNK N   1      -0.477   3.461   0.417  0.00  0.00     0.002 C 
HETATM   54  C   UNK N   1      -0.297   3.480   1.962  0.00  0.00     0.019 C 
HETATM   55  C   UNK N   1      -2.035   3.900   0.278  0.00  0.00     0.049 C 
HETATM   56  C   UNK N   1      -6.019   0.885   0.642  0.00  0.00     0.018 C 
HETATM   57  C   UNK N   1      -6.477   0.653  -0.835  0.00  0.00     0.023 C 
HETATM   58  C   UNK N   1      -5.882  -0.424   1.161  0.00  0.00     0.053 C 
HETATM   59  C   UNK N   1      -4.086  -3.870   0.321  0.00  0.00     0.006 C 
HETATM   60  C   UNK N   1      -5.103  -4.325  -0.770  0.00  0.00     0.022 C 
HETATM   61  C   UNK N   1      -4.805  -3.959   1.673  0.00  0.00     0.022 C 
HETATM   62  C   UNK N   1      -2.735  -4.507   0.366  0.00  0.00     0.048 C 
HETATM   63  H   UNK N   1       3.498  -2.665  -0.308  0.00  0.00     0.162 HD
ENDROOT
BRANCH  53  64
HETATM   64  C   UNK N   1       0.525   4.416  -0.200  0.00  0.00     0.115 C 
BRANCH  64  65
HETATM   65  C   UNK N   1       0.304   5.900  -0.101  0.00  0.00     0.216 C 
HETATM   66  N   UNK N   1      -0.896   6.464  -0.300  0.00  0.00    -0.370 N 
HETATM   67  H   UNK N   1      -0.978   7.434  -0.446  0.00  0.00     0.159 HD
HETATM   68  H   UNK N   1      -1.704   5.902  -0.300  0.00  0.00     0.159 HD
HETATM   69  O   UNK N   1       1.279   6.619  -0.075  0.00  0.00    -0.274 OA
ENDBRANCH  64  65
ENDBRANCH  53  64
BRANCH  55  70
HETATM   70  C   UNK N   1      -2.843   4.853  -0.747  0.00  0.00     0.021 C 
BRANCH  70  71
HETATM   71  C   UNK N   1      -4.359   5.311  -0.520  0.00  0.00     0.103 C 
BRANCH  71  72
HETATM   72  C   UNK N   1      -5.005   6.407   0.282  0.00  0.00     0.215 C 
HETATM   73  N   UNK N   1      -4.580   6.692   1.523  0.00  0.00    -0.370 N 
HETATM   74  H   UNK N   1      -4.243   6.527   2.433  0.00  0.00     0.159 HD
HETATM   75  H   UNK N   1      -4.648   7.675   1.523  0.00  0.00     0.159 HD
HETATM   76  O   UNK N   1      -6.031   6.929  -0.140  0.00  0.00    -0.274 OA
ENDBRANCH  71  72
ENDBRANCH  70  71
ENDBRANCH  55  70
BRANCH   2  77
HETATM   77  C   UNK N   1       0.702   0.083  -3.103  0.00  0.00     0.109 C 
BRANCH  77  78
HETATM   78  C   UNK N   1       1.569   1.305  -2.787  0.00  0.00     0.215 C 
HETATM   79  N   UNK N   1       1.294   2.501  -3.344  0.00  0.00    -0.370 N 
HETATM   80  H   UNK N   1       1.950   3.112  -3.751  0.00  0.00     0.159 HD
HETATM   81  H   UNK N   1       0.353   2.790  -3.344  0.00  0.00     0.159 HD
HETATM   82  O   UNK N   1       2.428   1.244  -1.924  0.00  0.00    -0.274 OA
ENDBRANCH  77  78
ENDBRANCH   2  77
BRANCH  56  83
HETATM   83  C   UNK N   1      -7.159   1.535   1.491  0.00  0.00     0.118 C 
BRANCH  83  84
HETATM   84  C   UNK N   1      -8.412   2.020   0.759  0.00  0.00     0.216 C 
HETATM   85  N   UNK N   1      -9.553   1.296   0.760  0.00  0.00    -0.370 N 
HETATM   86  H   UNK N   1     -10.425   1.752   0.760  0.00  0.00     0.159 HD
HETATM   87  H   UNK N   1      -9.511   0.312   0.760  0.00  0.00     0.159 HD
HETATM   88  O   UNK N   1      -8.412   3.124   0.245  0.00  0.00    -0.274 OA
ENDBRANCH  83  84
ENDBRANCH  56  83
BRANCH  62  89
HETATM   89  C   UNK N   1      -2.515  -5.218  -0.953  0.00  0.00     0.021 C 
BRANCH  89  90
HETATM   90  C   UNK N   1      -2.872  -6.668  -0.718  0.00  0.00     0.103 C 
BRANCH  90  91
HETATM   91  C   UNK N   1      -1.652  -7.383  -0.235  0.00  0.00     0.215 C 
HETATM   92  N   UNK N   1      -0.442  -6.786  -0.275  0.00  0.00    -0.370 N 
HETATM   93  H   UNK N   1       0.376  -7.332  -0.305  0.00  0.00     0.159 HD
HETATM   94  H   UNK N   1      -0.378  -5.804  -0.275  0.00  0.00     0.159 HD
HETATM   95  O   UNK N   1      -1.746  -8.520   0.187  0.00  0.00    -0.274 OA
ENDBRANCH  90  91
ENDBRANCH  89  90
ENDBRANCH  62  89
BRANCH  58  96
HETATM   96  C   UNK N   1      -7.109  -1.470   1.223  0.00  0.00     0.021 C 
BRANCH  96  97
HETATM   97  C   UNK N   1      -7.561  -2.347   0.013  0.00  0.00     0.103 C 
BRANCH  97  98
HETATM   98  C   UNK N   1      -9.039  -2.252  -0.353  0.00  0.00     0.215 C 
HETATM   99  N   UNK N   1      -9.676  -3.296  -0.929  0.00  0.00    -0.370 N 
HETATM  100  H   UNK N   1     -10.567  -3.275  -1.348  0.00  0.00     0.159 HD
HETATM  101  H   UNK N   1      -9.205  -4.161  -0.929  0.00  0.00     0.159 HD
HETATM  102  O   UNK N   1      -9.626  -1.192  -0.245  0.00  0.00    -0.274 OA
ENDBRANCH  97  98
ENDBRANCH  96  97
ENDBRANCH  58  96
BRANCH  19 103
HETATM  103  O   UNK N   1       5.399  -2.120  -2.672  0.00  0.00    -0.388 OA
HETATM  104  H   UNK N   1       6.005  -2.217  -3.423  0.00  0.00     0.210 HD
ENDBRANCH  19 103
BRANCH  22 105
HETATM  105  C   UNK N   1       7.449  -4.743   0.125  0.00  0.00     0.198 C 
BRANCH 105 106
HETATM  106  O   UNK N   1       8.836  -4.623   0.158  0.00  0.00    -0.398 OA
HETATM  107  H   UNK N   1       9.391  -5.418   0.181  0.00  0.00     0.209 HD
ENDBRANCH 105 106
ENDBRANCH  22 105
TORSDOF 18
