REMARK  16 active torsions:
REMARK  status: ('A' for Active; 'I' for Inactive)
REMARK    1  A    between atoms: C_10  and  C_7 
REMARK    2  A    between atoms: C_11  and  C_7 
REMARK    3  A    between atoms: C_17  and  C_10 
REMARK    4  A    between atoms: N_33  and  C_11 
REMARK    5  A    between atoms: C_16  and  C_12 
REMARK    6  A    between atoms: C_20  and  C_12 
REMARK    7  A    between atoms: C_18  and  C_26 
REMARK    8  A    between atoms: C_19  and  C_27 
REMARK    9  A    between atoms: C_21  and  O_44 
REMARK   10  A    between atoms: C_22  and  O_45 
REMARK   11  A    between atoms: C_23  and  O_46 
REMARK   12  A    between atoms: C_24  and  O_47 
REMARK   13  A    between atoms: O_50  and  C_26 
REMARK   14  A    between atoms: O_52  and  C_27 
REMARK       I    between atoms: N_30  and  C_28 
REMARK       I    between atoms: N_33  and  C_28 
REMARK       I    between atoms: N_42  and  C_28 
REMARK   15  A    between atoms: N_42  and  C_29 
REMARK   16  A    between atoms: O_53  and  C_29 
ROOT
HETATM    1  C   UNK N   1       5.420   5.963   0.439  0.00  0.00     0.041 C 
HETATM    2  C   UNK N   1       3.975  -0.832  -1.244  0.00  0.00     0.153 C 
HETATM    3  C   UNK N   1       1.141   6.291  -0.902  0.00  0.00     0.119 C 
HETATM    4  C   UNK N   1      -1.021   2.648  -0.599  0.00  0.00     0.119 C 
HETATM    5  C   UNK N   1       3.952   5.735   0.129  0.00  0.00     0.153 C 
HETATM    6  C   UNK N   1       4.334   2.019  -0.706  0.00  0.00     0.175 C 
HETATM    7  C   UNK N   1       0.476   5.968   0.440  0.00  0.00     0.189 C 
HETATM    8  C   UNK N   1      -0.954   1.818   0.689  0.00  0.00     0.189 C 
HETATM    9  C   UNK N   1       1.617  -0.784  -0.476  0.00  0.00     0.165 C 
HETATM   10  C   UNK N   1       2.278   7.263  -0.904  0.00  0.00     0.114 C 
HETATM   11  C   UNK N   1      -0.760   4.108  -0.490  0.00  0.00     0.114 C 
HETATM   12  C   UNK N   1       3.846   4.442  -0.666  0.00  0.00     0.135 C 
HETATM   13  C   UNK N   1       0.408   0.138  -0.445  0.00  0.00     0.136 C 
HETATM   14  C   UNK N   1       3.166   1.203  -0.168  0.00  0.00     0.243 C 
HETATM   15  N   UNK N   1       3.471   6.961  -0.501  0.00  0.00    -0.363 N 
ATOM     16  HN  UNK N   1       4.177   7.684  -0.644  1.00  0.00     0.162 HD
HETATM   17  N   UNK N   1       0.083   4.571   0.377  0.00  0.00    -0.360 N 
ATOM     18  HN  UNK N   1       0.491   3.922   1.050  1.00  0.00     0.162 HD
HETATM   19  N   UNK N   1       4.315   3.358  -0.124  0.00  0.00    -0.359 N 
ATOM     20  HN  UNK N   1       4.713   3.453   0.811  1.00  0.00     0.162 HD
HETATM   21  N   UNK N   1       0.112   0.828   0.611  0.00  0.00    -0.358 N 
ATOM     22  HN  UNK N   1       0.667   0.666   1.451  1.00  0.00     0.162 HD
HETATM   23  N   UNK N   1       2.932  -0.110  -0.541  0.00  0.00    -0.342 N 
HETATM   24  O   UNK N   1       2.376   1.787   0.560  0.00  0.00    -0.271 OA
ENDROOT
BRANCH   6  25
HETATM   25  C   UNK N   1       5.711   1.370  -0.500  0.00  0.00     0.036 C 
BRANCH  25  26
HETATM   26  C   UNK N   1       6.344   1.574   0.877  0.00  0.00     0.022 C 
BRANCH  26  27
HETATM   27  C   UNK N   1       7.189   2.859   0.985  0.00  0.00     0.123 C 
BRANCH  27  28
HETATM   28  N   UNK N   1       7.422   3.501  -0.296  0.00  0.00    -0.351 N 
HETATM   29  C   UNK N   1       8.363   3.039  -1.260  0.00  0.00     0.250 C 
HETATM   30  N   UNK N   1       8.170   3.321  -2.494  0.00  0.00    -0.425 NA
HETATM   31  N   UNK N   1       9.347   2.074  -0.922  0.00  0.00    -0.283 N 
HETATM   32  H   UNK N   1       8.284   3.558  -3.443  0.00  0.00     0.270 HD
HETATM   33  H   UNK N   1       9.632   1.432  -1.612  0.00  0.00     0.173 HD
HETATM   34  H   UNK N   1       6.897   4.306  -0.511  0.00  0.00     0.163 HD
BRANCH  31  35
HETATM   35  C   UNK N   1       9.939   1.992   0.367  0.00  0.00     0.220 C 
HETATM   36  N   UNK N   1      10.091   0.852   0.941  0.00  0.00    -0.361 N 
HETATM   37  C   UNK N   1       9.637  -0.369   0.324  0.00  0.00     0.150 C 
ATOM     38  HN  UNK N   1      10.543   0.810   1.855  1.00  0.00     0.162 HD
BRANCH  35  39
HETATM   39  O   UNK N   1      10.330   3.115   1.004  0.00  0.00    -0.332 OA
HETATM   40  H   UNK N   1      11.141   3.270   1.447  0.00  0.00     0.220 HD
ENDBRANCH  35  39
ENDBRANCH  31  35
ENDBRANCH  27  28
ENDBRANCH  26  27
ENDBRANCH  25  26
ENDBRANCH   6  25
BRANCH  12  41
HETATM   41  O   UNK N   1       3.270   4.414  -1.886  0.00  0.00    -0.348 OA
HETATM   42  H   UNK N   1       3.053   4.751  -2.733  0.00  0.00     0.219 HD
ENDBRANCH  12  41
BRANCH   9  43
HETATM   43  C   UNK N   1       1.534  -1.954   0.525  0.00  0.00     0.072 C 
BRANCH  43  44
HETATM   44  C   UNK N   1       0.353  -2.889   0.280  0.00  0.00    -0.056 A 
HETATM   45  C   UNK N   1       0.271  -4.097   0.983  0.00  0.00     0.007 A 
HETATM   46  C   UNK N   1      -0.795  -4.979   0.752  0.00  0.00     0.001 A 
HETATM   47  C   UNK N   1      -1.788  -4.658  -0.178  0.00  0.00     0.000 A 
HETATM   48  C   UNK N   1      -1.718  -3.457  -0.883  0.00  0.00     0.001 A 
HETATM   49  C   UNK N   1      -0.653  -2.585  -0.658  0.00  0.00     0.007 A 
ENDBRANCH  43  44
ENDBRANCH   9  43
BRANCH  13  50
HETATM   50  O   UNK N   1      -0.337   0.241  -1.568  0.00  0.00    -0.348 OA
HETATM   51  H   UNK N   1      -0.533   0.724  -2.346  0.00  0.00     0.219 HD
ENDBRANCH  13  50
BRANCH  10  52
HETATM   52  O   UNK N   1       2.061   8.486  -1.422  0.00  0.00    -0.349 OA
HETATM   53  H   UNK N   1       2.723   9.043  -1.782  0.00  0.00     0.219 HD
ENDBRANCH  10  52
BRANCH   8  54
HETATM   54  C   UNK N   1      -2.291   1.187   0.927  0.00  0.00     0.163 C 
HETATM   55  O   UNK N   1      -2.762   0.404   0.118  0.00  0.00    -0.648 OA
BRANCH  54  56
HETATM   56  O   UNK N   1      -2.998   1.518   2.025  0.00  0.00    -0.775 OA
HETATM   57  H   UNK N   1      -3.045   2.059   2.788  0.00  0.00     0.167 HD
ENDBRANCH  54  56
ENDBRANCH   8  54
BRANCH   7  58
HETATM   58  C   UNK N   1      -0.698   6.884   0.744  0.00  0.00     0.163 C 
HETATM   59  O   UNK N   1      -1.814   6.426   0.943  0.00  0.00    -0.648 OA
BRANCH  58  60
HETATM   60  O   UNK N   1      -0.511   8.215   0.826  0.00  0.00    -0.775 OA
HETATM   61  H   UNK N   1       0.357   8.565   0.882  0.00  0.00     0.167 HD
ENDBRANCH  58  60
ENDBRANCH   7  58
BRANCH  11  62
HETATM   62  O   UNK N   1      -1.365   4.926  -1.377  0.00  0.00    -0.349 OA
HETATM   63  H   UNK N   1      -1.083   5.574  -1.992  0.00  0.00     0.219 HD
ENDBRANCH  11  62
TORSDOF 16
