REMARK  12 active torsions:
REMARK  status: ('A' for Active; 'I' for Inactive)
REMARK    1  A    between atoms: C_2  and  C_1 
REMARK    2  A    between atoms: C_4  and  C_1 
REMARK    3  A    between atoms: C_6  and  C_2 
REMARK    4  A    between atoms: C_5  and  C_3 
REMARK    5  A    between atoms: O_13  and  C_3 
REMARK    6  A    between atoms: C_8  and  C_4 
REMARK    7  A    between atoms: C_4  and  N_12 
REMARK    8  A    between atoms: O_20  and  C_6 
REMARK    9  A    between atoms: C_7  and  O_15 
REMARK   10  A    between atoms: O_17  and  C_8 
REMARK   11  A    between atoms: C_9  and  O_20 
REMARK   12  A    between atoms: C_10  and  O_18 
ROOT
HETATM    1  C   UNK N   1      -2.043   1.744  -0.345  0.00  0.00     0.183 C 
HETATM    2  C   UNK N   1      -1.385   0.492   0.201  0.00  0.00     0.221 C 
HETATM    3  C   UNK N   1       0.171   2.199  -0.178  0.00  0.00     0.340 C 
HETATM    4  C   UNK N   1      -0.009   0.679  -0.373  0.00  0.00     0.282 C 
HETATM    5  F   UNK N   1       0.940  -0.106   0.260  0.00  0.00    -0.203 F 
HETATM    6  O   UNK N   1      -1.124   2.782  -0.088  0.00  0.00    -0.345 OA
ENDROOT
BRANCH   3   7
HETATM    7  O   UNK N   1       0.886   2.485   0.973  0.00  0.00    -0.284 OA
BRANCH   7   8
HETATM    8  C   UNK N   1       2.244   2.374   1.056  0.00  0.00     0.261 C 
HETATM    9  O   UNK N   1       2.797   2.576   2.124  0.00  0.00    -0.265 OA
BRANCH   8  10
HETATM   10  C   UNK N   1       3.075   2.007  -0.149  0.00  0.00     0.114 C 
BRANCH  10  11
HETATM   11  C   UNK N   1       4.030   3.127  -0.557  0.00  0.00     0.045 C 
BRANCH  11  12
HETATM   12  C   UNK N   1       5.386   3.051   0.147  0.00  0.00     0.173 C 
BRANCH  12  13
HETATM   13  C   UNK N   1       6.137   1.795  -0.232  0.00  0.00     0.163 C 
HETATM   14  O   UNK N   1       7.225   1.861  -0.779  0.00  0.00    -0.648 OA
BRANCH  13  15
HETATM   15  O   UNK N   1       5.613   0.587   0.054  0.00  0.00    -0.775 OA
HETATM   16  H   UNK N   1       4.703   0.482   0.253  0.00  0.00     0.167 HD
ENDBRANCH  13  15
ENDBRANCH  12  13
BRANCH  12  17
HETATM   17  N   UNK N   1       6.158   4.230  -0.216  0.00  0.00    -0.418 N 
HETATM   18  H   UNK N   1       7.144   4.174  -0.471  0.00  0.00     0.150 HD
HETATM   19  H   UNK N   1       5.699   5.141  -0.216  0.00  0.00     0.150 HD
ENDBRANCH  12  17
ENDBRANCH  11  12
ENDBRANCH  10  11
ENDBRANCH   8  10
ENDBRANCH   7   8
ENDBRANCH   3   7
BRANCH   4  20
HETATM   20  O   UNK N   1      -0.016   0.382  -1.741  0.00  0.00    -0.356 OA
HETATM   21  H   UNK N   1      -0.197   0.283  -2.689  0.00  0.00     0.213 HD
ENDBRANCH   4  20
BRANCH   2  22
HETATM   22  O   UNK N   1      -1.999  -0.689  -0.228  0.00  0.00    -0.387 OA
HETATM   23  H   UNK N   1      -2.921  -0.730  -0.526  0.00  0.00     0.210 HD
ENDBRANCH   2  22
BRANCH   1  24
HETATM   24  C   UNK N   1      -3.390   2.031   0.307  0.00  0.00     0.199 C 
BRANCH  24  25
HETATM   25  O   UNK N   1      -4.334   1.085  -0.099  0.00  0.00    -0.398 OA
HETATM   26  H   UNK N   1      -5.231   1.325  -0.381  0.00  0.00     0.209 HD
ENDBRANCH  24  25
ENDBRANCH   1  24
TORSDOF 12
