REMARK  2 active torsions:
REMARK  status: ('A' for Active; 'I' for Inactive)
REMARK    1  A    between atoms: N_1  and  C_2 
REMARK    2  A    between atoms: C_2  and  C_3 
REMARK       I    between atoms: C_3  and  N_4 
ROOT
HETATM    1  C   UNK N   1       0.840  -0.038   0.000  0.00  0.00     0.232 C 
HETATM    2  N   UNK N   1       1.227  -1.327  -0.000  0.00  0.00    -0.369 N 
HETATM    3  O   UNK N   1      -0.352   0.236   0.000  0.00  0.00    -0.272 OA
HETATM    4  H   UNK N   1       0.552  -2.043  -0.000  0.00  0.00     0.159 HD
HETATM    5  H   UNK N   1       2.185  -1.553  -0.000  0.00  0.00     0.159 HD
ENDROOT
BRANCH   1   6
HETATM    6  C   UNK N   1       1.882   1.044   0.000  0.00  0.00     0.214 C 
BRANCH   6   7
HETATM    7  N   UNK N   1       1.287   2.371  -0.000  0.00  0.00    -0.422 N 
HETATM    8  H   UNK N   1       1.885   3.198  -0.000  0.00  0.00     0.150 HD
HETATM    9  H   UNK N   1       0.273   2.476  -0.000  0.00  0.00     0.150 HD
ENDBRANCH   6   7
ENDBRANCH   1   6
TORSDOF 2
