REMARK WARNING: 32 MAX_TORS EXCEEDED!!!
REMARK  36 active torsions:
REMARK  status: ('A' for Active; 'I' for Inactive)
REMARK    1  A    between atoms: C_7  and  C_5 
REMARK    2  A    between atoms: C_18  and  C_5 
REMARK    3  A    between atoms: C_8  and  C_6 
REMARK    4  A    between atoms: C_23  and  C_6 
REMARK    5  A    between atoms: N_36  and  C_7 
REMARK    6  A    between atoms: N_40  and  C_8 
REMARK    7  A    between atoms: C_10  and  C_9 
REMARK    8  A    between atoms: N_38  and  C_9 
REMARK    9  A    between atoms: S_70  and  C_10 
REMARK   10  A    between atoms: C_22  and  C_13 
REMARK   11  A    between atoms: O_62  and  C_13 
REMARK   12  A    between atoms: C_24  and  C_14 
REMARK   13  A    between atoms: S_70  and  C_14 
REMARK   14  A    between atoms: C_33  and  C_15 
REMARK   15  A    between atoms: O_63  and  C_15 
REMARK   16  A    between atoms: N_38  and  C_23 
REMARK   17  A    between atoms: O_50  and  C_23 
REMARK   18  A    between atoms: N_36  and  C_24 
REMARK   19  A    between atoms: O_51  and  C_24 
REMARK   20  A    between atoms: C_26  and  O_52 
REMARK   21  A    between atoms: C_27  and  O_65 
REMARK   22  A    between atoms: C_31  and  C_28 
REMARK   23  A    between atoms: C_33  and  C_28 
REMARK   24  A    between atoms: C_28  and  O_53 
REMARK   25  A    between atoms: N_35  and  C_29 
REMARK   26  A    between atoms: N_40  and  C_31 
REMARK   27  A    between atoms: O_54  and  C_31 
REMARK   28  A    between atoms: C_32  and  N_49 
REMARK   29  A    between atoms: P_67  and  O_55 
REMARK   30  A    between atoms: P_67  and  O_56 
REMARK   31  A    between atoms: P_68  and  O_58 
REMARK   32  A    between atoms: P_68  and  O_62 
REMARK   33  A    between atoms: P_69  and  O_63 
REMARK   34  A    between atoms: P_67  and  O_65 
REMARK   35  A    between atoms: P_68  and  O_66 
REMARK   36  A    between atoms: P_69  and  O_66 
ROOT
HETATM    1  O   UNK N   1      -3.446  -4.726   1.102  0.00  0.00    -0.307 OA
HETATM    2  O   UNK N   1      -4.440  -5.592  -0.816  0.00  0.00    -0.631 OA
HETATM    3  P   UNK N   1      -3.368  -4.492  -0.595  0.00  0.00     0.401 P 
HETATM    4  H   UNK N   1      -3.583  -4.755   2.062  0.00  0.00     0.222 HD
ENDROOT
BRANCH   3   5
HETATM    5  O   UNK N   1      -1.725  -5.070  -0.528  0.00  0.00    -0.296 OA
BRANCH   5   6
HETATM    6  C   UNK N   1      -1.759  -6.477  -0.696  0.00  0.00     0.192 C 
BRANCH   6   7
HETATM    7  C   UNK N   1      -1.414  -7.250   0.603  0.00  0.00     0.008 C 
HETATM    8  C   UNK N   1      -0.276  -6.541   1.314  0.00  0.00     0.020 C 
HETATM    9  C   UNK N   1      -2.597  -7.269   1.560  0.00  0.00     0.020 C 
BRANCH   7  10
HETATM   10  C   UNK N   1      -0.951  -8.710   0.346  0.00  0.00     0.202 C 
BRANCH  10  11
HETATM   11  C   UNK N   1      -1.970  -9.688  -0.188  0.00  0.00     0.141 C 
BRANCH  11  12
HETATM   12  N   UNK N   1      -3.160  -9.314  -0.506  0.00  0.00    -0.372 N 
ATOM     13  HN  UNK N   1      -3.418  -8.331  -0.417  1.00  0.00     0.161 HD
BRANCH  12  14
HETATM   14  C   UNK N   1      -4.135 -10.263  -0.986  0.00  0.00     0.129 C 
BRANCH  14  15
HETATM   15  C   UNK N   1      -5.435  -9.566  -1.327  0.00  0.00     0.103 C 
BRANCH  15  16
HETATM   16  C   UNK N   1      -6.096  -9.031  -0.104  0.00  0.00     0.112 C 
BRANCH  16  17
HETATM   17  N   UNK N   1      -5.783  -7.858   0.325  0.00  0.00    -0.374 N 
ATOM     18  HN  UNK N   1      -5.044  -7.338  -0.147  1.00  0.00     0.161 HD
BRANCH  17  19
HETATM   19  C   UNK N   1      -6.449  -7.260   1.455  0.00  0.00     0.131 C 
BRANCH  19  20
HETATM   20  C   UNK N   1      -7.188  -5.991   1.030  0.00  0.00     0.094 C 
BRANCH  20  21
HETATM   21  S   UNK N   1      -8.037  -6.167  -0.581  0.00  0.00    -0.159 SA
BRANCH  21  22
HETATM   22  C   UNK N   1      -9.080  -7.527   0.010  0.00  0.00     0.157 C 
BRANCH  22  23
HETATM   23  C   UNK N   1      -9.875  -8.110  -1.117  0.00  0.00     0.120 C 
BRANCH  23  24
HETATM   24  N   UNK N   1     -11.154  -7.970  -1.156  0.00  0.00    -0.374 N 
ATOM     25  HN  UNK N   1     -11.676  -8.381  -1.930  1.00  0.00     0.161 HD
BRANCH  24  26
HETATM   26  C   UNK N   1     -11.866  -7.244  -0.130  0.00  0.00     0.126 C 
BRANCH  26  27
HETATM   27  C   UNK N   1     -12.158  -8.157   1.051  0.00  0.00     0.060 C 
BRANCH  27  28
HETATM   28  C   UNK N   1     -13.334  -9.007   0.723  0.00  0.00    -0.029 A 
HETATM   29  C   UNK N   1     -13.374 -10.394   0.658  0.00  0.00     0.096 A 
HETATM   30  N   UNK N   1     -14.623 -10.791   0.298  0.00  0.00    -0.365 N 
HETATM   31  C   UNK N   1     -15.342  -9.663   0.142  0.00  0.00     0.043 A 
HETATM   32  H   UNK N   1     -14.938 -11.716   0.176  0.00  0.00     0.165 HD
HETATM   33  C   UNK N   1     -16.678  -9.558  -0.237  0.00  0.00     0.031 A 
HETATM   34  C   UNK N   1     -14.584  -8.561   0.397  0.00  0.00    -0.001 A 
HETATM   35  C   UNK N   1     -17.227  -8.265  -0.350  0.00  0.00     0.021 A 
HETATM   36  C   UNK N   1     -16.435  -7.124  -0.083  0.00  0.00     0.011 A 
HETATM   37  C   UNK N   1     -15.091  -7.269   0.297  0.00  0.00     0.033 A 
HETATM   38 Br   UNK N   1     -17.181  -5.379  -0.240  0.00  0.00    -0.051 Br
ENDBRANCH  27  28
ENDBRANCH  26  27
ENDBRANCH  24  26
ENDBRANCH  23  24
BRANCH  23  39
HETATM   39  O   UNK N   1      -9.249  -8.792  -2.095  0.00  0.00    -0.349 OA
HETATM   40  H   UNK N   1      -9.442  -9.406  -2.776  0.00  0.00     0.219 HD
ENDBRANCH  23  39
ENDBRANCH  22  23
ENDBRANCH  21  22
ENDBRANCH  20  21
ENDBRANCH  19  20
ENDBRANCH  17  19
ENDBRANCH  16  17
BRANCH  16  41
HETATM   41  O   UNK N   1      -7.050  -9.762   0.510  0.00  0.00    -0.350 OA
HETATM   42  H   UNK N   1      -7.821  -9.443   0.936  0.00  0.00     0.219 HD
ENDBRANCH  16  41
ENDBRANCH  15  16
ENDBRANCH  14  15
ENDBRANCH  12  14
ENDBRANCH  11  12
BRANCH  11  43
HETATM   43  O   UNK N   1      -1.614 -10.987  -0.306  0.00  0.00    -0.348 OA
HETATM   44  H   UNK N   1      -2.270 -11.651  -0.387  0.00  0.00     0.219 HD
ENDBRANCH  11  43
ENDBRANCH  10  11
BRANCH  10  45
HETATM   45  O   UNK N   1       0.158  -8.714  -0.505  0.00  0.00    -0.387 OA
HETATM   46  H   UNK N   1       0.540  -9.382  -1.096  0.00  0.00     0.210 HD
ENDBRANCH  10  45
ENDBRANCH   7  10
ENDBRANCH   6   7
ENDBRANCH   5   6
ENDBRANCH   3   5
BRANCH   3  47
HETATM   47  O   UNK N   1      -4.048  -2.900  -0.325  0.00  0.00    -0.195 OA
BRANCH  47  48
HETATM   48  P   UNK N   1      -2.898  -1.814   0.443  0.00  0.00     0.401 P 
HETATM   49  O   UNK N   1      -3.255  -0.395  -0.081  0.00  0.00    -0.631 OA
BRANCH  48  50
HETATM   50  O   UNK N   1      -3.224  -1.714   2.144  0.00  0.00    -0.307 OA
HETATM   51  H   UNK N   1      -3.266  -1.528   3.095  0.00  0.00     0.222 HD
ENDBRANCH  48  50
BRANCH  48  52
HETATM   52  O   UNK N   1      -1.176  -2.084   0.237  0.00  0.00    -0.294 OA
BRANCH  52  53
HETATM   53  C   UNK N   1      -0.780  -1.625  -1.026  0.00  0.00     0.215 C 
BRANCH  53  54
HETATM   54  C   UNK N   1       0.521  -0.789  -0.968  0.00  0.00     0.180 C 
HETATM   55  C   UNK N   1       1.694  -1.423  -0.198  0.00  0.00     0.197 C 
HETATM   56  C   UNK N   1       2.532  -0.190  -0.034  0.00  0.00     0.199 C 
HETATM   57  C   UNK N   1       1.430   0.760   0.429  0.00  0.00     0.262 C 
HETATM   58  O   UNK N   1       0.297   0.486  -0.385  0.00  0.00    -0.353 OA
BRANCH  55  59
HETATM   59  O   UNK N   1       2.390  -2.423  -0.910  0.00  0.00    -0.286 OA
BRANCH  59  60
HETATM   60  P   UNK N   1       1.732  -3.993  -0.501  0.00  0.00     0.391 P 
HETATM   61  O   UNK N   1       0.725  -4.373  -1.618  0.00  0.00    -0.632 OA
BRANCH  60  62
HETATM   62  O   UNK N   1       0.875  -4.004   1.010  0.00  0.00    -0.307 OA
HETATM   63  H   UNK N   1       0.631  -3.593   1.854  0.00  0.00     0.222 HD
ENDBRANCH  60  62
BRANCH  60  64
HETATM   64  O   UNK N   1       2.963  -5.216  -0.502  0.00  0.00    -0.307 OA
HETATM   65  H   UNK N   1       2.715  -6.153  -0.503  0.00  0.00     0.222 HD
ENDBRANCH  60  64
ENDBRANCH  59  60
ENDBRANCH  55  59
BRANCH  56  66
HETATM   66  O   UNK N   1       3.554  -0.349   0.907  0.00  0.00    -0.388 OA
HETATM   67  H   UNK N   1       3.813  -1.018   1.559  0.00  0.00     0.210 HD
ENDBRANCH  56  66
BRANCH  57  68
HETATM   68  N   UNK N   1       1.776   2.189   0.385  0.00  0.00    -0.297 N 
HETATM   69  C   UNK N   1       0.898   3.184   0.673  0.00  0.00     0.188 A 
HETATM   70  N   UNK N   1       1.479   4.412   0.572  0.00  0.00    -0.346 N 
HETATM   71  C   UNK N   1       2.748   4.153   0.223  0.00  0.00     0.122 A 
ATOM     72  HN  UNK N   1       1.047   5.323   0.727  1.00  0.00     0.167 HD
HETATM   73  C   UNK N   1       3.800   5.027  -0.002  0.00  0.00     0.131 A 
HETATM   74  C   UNK N   1       2.935   2.821   0.107  0.00  0.00     0.142 A 
HETATM   75  N   UNK N   1       5.014   4.497  -0.332  0.00  0.00    -0.337 N 
HETATM   76  C   UNK N   1       5.185   3.137  -0.440  0.00  0.00     0.183 A 
ATOM     77  HN  UNK N   1       5.805   5.118  -0.502  1.00  0.00     0.168 HD
HETATM   78  N   UNK N   1       4.134   2.285  -0.218  0.00  0.00    -0.336 N 
ATOM     79  HN  UNK N   1       4.253   1.275  -0.296  1.00  0.00     0.168 HD
BRANCH  73  80
HETATM   80  N   UNK N   1       3.630   6.422   0.113  0.00  0.00    -0.383 N 
HETATM   81  H   UNK N   1       4.413   7.012   0.194  0.00  0.00     0.157 HD
HETATM   82  H   UNK N   1       2.723   6.806   0.113  0.00  0.00     0.157 HD
ENDBRANCH  73  80
ENDBRANCH  57  68
ENDBRANCH  53  54
ENDBRANCH  52  53
ENDBRANCH  48  52
ENDBRANCH  47  48
ENDBRANCH   3  47
TORSDOF 36
