REMARK  27 active torsions:
REMARK  status: ('A' for Active; 'I' for Inactive)
REMARK    1  A    between atoms: C_3  and  C_2 
REMARK    2  A    between atoms: C_4  and  C_3 
REMARK    3  A    between atoms: C_5  and  C_4 
REMARK    4  A    between atoms: C_6  and  C_5 
REMARK    5  A    between atoms: C_7  and  C_6 
REMARK    6  A    between atoms: C_8  and  C_7 
REMARK    7  A    between atoms: C_9  and  C_8 
REMARK    8  A    between atoms: C_10  and  C_9 
REMARK    9  A    between atoms: C_11  and  C_10 
REMARK   10  A    between atoms: C_12  and  C_11 
REMARK   11  A    between atoms: C_13  and  C_12 
REMARK   12  A    between atoms: C_14  and  C_13 
REMARK   13  A    between atoms: C_15  and  C_14 
REMARK   14  A    between atoms: C_22  and  C_15 
REMARK   15  A    between atoms: C_20  and  C_16 
REMARK   16  A    between atoms: O_23  and  C_16 
REMARK   17  A    between atoms: C_21  and  C_17 
REMARK   18  A    between atoms: O_29  and  C_17 
REMARK   19  A    between atoms: C_20  and  C_18 
REMARK   20  A    between atoms: O_30  and  C_18 
REMARK   21  A    between atoms: C_21  and  C_19 
REMARK   22  A    between atoms: O_31  and  C_19 
REMARK   23  A    between atoms: C_20  and  O_24 
REMARK   24  A    between atoms: C_21  and  O_25 
REMARK   25  A    between atoms: O_29  and  C_22 
REMARK   26  A    between atoms: P_32  and  O_30 
REMARK   27  A    between atoms: P_32  and  O_31 
ROOT
HETATM    1  O   UNK N   1      18.501   6.353   0.590  0.00  0.00    -0.319 OA
ENDROOT
BRANCH   1   2
HETATM    2  C   UNK N   1      19.271   5.313   1.086  0.00  0.00     0.212 C 
BRANCH   2   3
HETATM    3  C   UNK N   1      20.063   4.590  -0.003  0.00  0.00     0.166 C 
BRANCH   3   4
HETATM    4  C   UNK N   1      21.371   4.071   0.580  0.00  0.00     0.215 C 
BRANCH   4   5
HETATM    5  O   UNK N   1      22.132   5.120   1.110  0.00  0.00    -0.287 OA
BRANCH   5   6
HETATM    6  P   UNK N   1      23.317   5.519  -0.103  0.00  0.00     0.408 P 
HETATM    7  O   UNK N   1      24.067   4.114  -0.800  0.00  0.00    -0.624 OA
HETATM    8  O   UNK N   1      22.579   6.251  -1.255  0.00  0.00    -0.624 OA
BRANCH   6   9
HETATM    9  O   UNK N   1      24.477   6.663   0.507  0.00  0.00    -0.287 OA
BRANCH   9  10
HETATM   10  C   UNK N   1      25.558   5.918   0.987  0.00  0.00     0.215 C 
BRANCH  10  11
HETATM   11  C   UNK N   1      26.712   5.969  -0.004  0.00  0.00     0.166 C 
BRANCH  11  12
HETATM   12  C   UNK N   1      27.926   5.296   0.611  0.00  0.00     0.198 C 
BRANCH  12  13
HETATM   13  O   UNK N   1      28.999   5.331  -0.280  0.00  0.00    -0.398 OA
HETATM   14  H   UNK N   1      29.394   4.697  -0.899  0.00  0.00     0.209 HD
ENDBRANCH  12  13
ENDBRANCH  11  12
BRANCH  11  15
HETATM   15  O   UNK N   1      27.016   7.298  -0.305  0.00  0.00    -0.391 OA
HETATM   16  H   UNK N   1      27.921   7.577  -0.514  0.00  0.00     0.210 HD
ENDBRANCH  11  15
ENDBRANCH  10  11
ENDBRANCH   9  10
ENDBRANCH   6   9
ENDBRANCH   5   6
ENDBRANCH   4   5
ENDBRANCH   3   4
BRANCH   3  17
HETATM   17  O   UNK N   1      19.334   3.505  -0.486  0.00  0.00    -0.391 OA
HETATM   18  H   UNK N   1      18.426   3.567  -0.822  0.00  0.00     0.210 HD
ENDBRANCH   3  17
ENDBRANCH   2   3
ENDBRANCH   1   2
BRANCH   1  19
HETATM   19  C   UNK N   1      17.366   6.216  -0.137  0.00  0.00     0.258 C 
HETATM   20  O   UNK N   1      16.751   7.224  -0.468  0.00  0.00    -0.265 OA
BRANCH  19  21
HETATM   21  C   UNK N   1      16.832   4.886  -0.563  0.00  0.00     0.111 C 
BRANCH  21  22
HETATM   22  C   UNK N   1      16.448   4.047   0.642  0.00  0.00     0.010 C 
BRANCH  22  23
HETATM   23  C   UNK N   1      15.526   2.924   0.210  0.00  0.00     0.000 C 
BRANCH  23  24
HETATM   24  C   UNK N   1      14.076   3.286   0.502  0.00  0.00     0.000 C 
BRANCH  24  25
HETATM   25  C   UNK N   1      13.452   4.098  -0.628  0.00  0.00     0.000 C 
BRANCH  25  26
HETATM   26  C   UNK N   1      13.809   5.577  -0.538  0.00  0.00     0.000 C 
BRANCH  26  27
HETATM   27  C   UNK N   1      13.083   6.266   0.608  0.00  0.00     0.000 C 
BRANCH  27  28
HETATM   28  C   UNK N   1      11.756   6.852   0.149  0.00  0.00     0.000 C 
BRANCH  28  29
HETATM   29  C   UNK N   1      10.741   5.749  -0.075  0.00  0.00     0.000 C 
BRANCH  29  30
HETATM   30  C   UNK N   1       9.345   6.328  -0.077  0.00  0.00     0.000 C 
BRANCH  30  31
HETATM   31  C   UNK N   1       8.351   5.189  -0.117  0.00  0.00     0.000 C 
BRANCH  31  32
HETATM   32  C   UNK N   1       6.947   5.733   0.021  0.00  0.00     0.000 C 
BRANCH  32  33
HETATM   33  C   UNK N   1       5.965   4.583  -0.024  0.00  0.00    -0.000 C 
BRANCH  33  34
HETATM   34  C   UNK N   1       4.553   5.123   0.054  0.00  0.00    -0.005 C 
HETATM   35  C   UNK N   1       3.571   3.973  -0.014  0.00  0.00     0.005 C 
ENDBRANCH  33  34
ENDBRANCH  32  33
ENDBRANCH  31  32
ENDBRANCH  30  31
ENDBRANCH  29  30
ENDBRANCH  28  29
ENDBRANCH  27  28
ENDBRANCH  26  27
ENDBRANCH  25  26
ENDBRANCH  24  25
ENDBRANCH  23  24
ENDBRANCH  22  23
ENDBRANCH  21  22
ENDBRANCH  19  21
ENDBRANCH   1  19
TORSDOF 27
