REMARK  7 active torsions:
REMARK  status: ('A' for Active; 'I' for Inactive)
REMARK    1  A    between atoms: C_4  and  O_13 
REMARK    2  A    between atoms: C_5  and  O_19 
REMARK    3  A    between atoms: C_6  and  O_14 
REMARK    4  A    between atoms: C_7  and  O_15 
REMARK    5  A    between atoms: C_8  and  O_16 
REMARK    6  A    between atoms: O_17  and  C_9 
REMARK    7  A    between atoms: C_10  and  O_19 
ROOT
HETATM    1  C   UNK N   1      -1.146   6.252   0.469  0.00  0.00     0.205 C 
HETATM    2  C   UNK N   1      -2.275   7.176  -0.015  0.00  0.00     0.173 C 
HETATM    3  C   UNK N   1      -3.646   6.486   0.070  0.00  0.00     0.182 C 
HETATM    4  C   UNK N   1      -3.463   4.987  -0.209  0.00  0.00     0.204 C 
HETATM    5  C   UNK N   1      -2.618   4.459   0.986  0.00  0.00     0.291 C 
HETATM    6  O   UNK N   1      -1.520   5.266   1.412  0.00  0.00    -0.356 OA
ENDROOT
BRANCH   5   7
HETATM    7  O   UNK N   1      -2.332   3.068   0.999  0.00  0.00    -0.350 OA
BRANCH   7   8
HETATM    8  C   UNK N   1      -1.487   2.519  -0.002  0.00  0.00     0.163 C 
HETATM    9  C   UNK N   1      -1.385   1.040   0.353  0.00  0.00     0.055 C 
HETATM   10  C   UNK N   1      -0.525   0.320  -0.677  0.00  0.00     0.124 C 
HETATM   11  N   UNK N   1       0.785   0.916  -0.778  0.00  0.00    -0.372 N 
HETATM   12  C   UNK N   1       1.032   2.160  -0.500  0.00  0.00     0.143 C 
ATOM     13  HN  UNK N   1       1.560   0.328  -1.084  1.00  0.00     0.161 HD
HETATM   14  C   UNK N   1      -0.053   3.110  -0.031  0.00  0.00     0.221 C 
BRANCH  12  15
HETATM   15  O   UNK N   1       2.294   2.609  -0.592  0.00  0.00    -0.348 OA
HETATM   16  H   UNK N   1       3.006   2.003  -0.656  0.00  0.00     0.219 HD
ENDBRANCH  12  15
BRANCH  14  17
HETATM   17  O   UNK N   1      -0.033   4.215  -0.883  0.00  0.00    -0.385 OA
HETATM   18  H   UNK N   1       0.639   4.587  -1.475  0.00  0.00     0.210 HD
ENDBRANCH  14  17
ENDBRANCH   7   8
ENDBRANCH   5   7
BRANCH   4  19
HETATM   19  O   UNK N   1      -4.702   4.341  -0.234  0.00  0.00    -0.388 OA
HETATM   20  H   UNK N   1      -5.521   4.862  -0.251  0.00  0.00     0.210 HD
ENDBRANCH   4  19
BRANCH   3  21
HETATM   21  O   UNK N   1      -4.554   7.080  -0.812  0.00  0.00    -0.390 OA
HETATM   22  H   UNK N   1      -4.512   7.831  -1.425  0.00  0.00     0.210 HD
ENDBRANCH   3  21
BRANCH   2  23
HETATM   23  O   UNK N   1      -1.988   7.497  -1.344  0.00  0.00    -0.391 OA
HETATM   24  H   UNK N   1      -1.696   7.435  -2.267  0.00  0.00     0.210 HD
ENDBRANCH   2  23
TORSDOF 7
