REMARK  21 active torsions:
REMARK  status: ('A' for Active; 'I' for Inactive)
REMARK    1  A    between atoms: C_6  and  C_2 
REMARK    2  A    between atoms: O_49  and  C_2 
REMARK    3  A    between atoms: C_7  and  C_3 
REMARK    4  A    between atoms: O_50  and  C_3 
REMARK    5  A    between atoms: C_10  and  O_37 
REMARK    6  A    between atoms: C_11  and  O_38 
REMARK    7  A    between atoms: C_12  and  O_39 
REMARK    8  A    between atoms: C_13  and  O_40 
REMARK    9  A    between atoms: O_41  and  C_16 
REMARK   10  A    between atoms: O_42  and  C_17 
REMARK   11  A    between atoms: C_18  and  N_35 
REMARK   12  A    between atoms: C_19  and  N_36 
REMARK       I    between atoms: N_22  and  C_20 
REMARK       I    between atoms: N_24  and  C_21 
REMARK   13  A    between atoms: P_55  and  O_44 
REMARK   14  A    between atoms: P_56  and  O_45 
REMARK   15  A    between atoms: P_57  and  O_48 
REMARK   16  A    between atoms: P_55  and  O_49 
REMARK   17  A    between atoms: P_56  and  O_50 
REMARK   18  A    between atoms: P_55  and  O_53 
REMARK   19  A    between atoms: P_57  and  O_53 
REMARK   20  A    between atoms: P_56  and  O_54 
REMARK   21  A    between atoms: P_57  and  O_54 
ROOT
HETATM    1  O   UNK N   1      -2.904  -5.059   1.883  0.00  0.00    -0.631 OA
HETATM    2  P   UNK N   1      -3.001  -6.140   0.775  0.00  0.00     0.410 P 
ENDROOT
BRANCH   2   3
HETATM    3  O   UNK N   1      -4.322  -7.103   1.305  0.00  0.00    -0.307 OA
HETATM    4  H   UNK N   1      -5.166  -6.729   1.604  0.00  0.00     0.222 HD
ENDBRANCH   2   3
BRANCH   2   5
HETATM    5  O   UNK N   1      -1.489  -7.010   0.818  0.00  0.00    -0.195 OA
BRANCH   5   6
HETATM    6  P   UNK N   1      -1.815  -8.720   0.676  0.00  0.00     0.401 P 
HETATM    7  O   UNK N   1      -0.393  -9.340   0.675  0.00  0.00    -0.631 OA
BRANCH   6   8
HETATM    8  O   UNK N   1      -2.511  -9.357   2.132  0.00  0.00    -0.307 OA
HETATM    9  H   UNK N   1      -3.014  -9.198   2.946  0.00  0.00     0.222 HD
ENDBRANCH   6   8
BRANCH   6  10
HETATM   10  O   UNK N   1      -2.525  -9.355  -0.804  0.00  0.00    -0.294 OA
BRANCH  10  11
HETATM   11  C   UNK N   1      -3.768  -8.744  -1.033  0.00  0.00     0.215 C 
BRANCH  11  12
HETATM   12  C   UNK N   1      -4.898  -9.431  -0.259  0.00  0.00     0.180 C 
HETATM   13  C   UNK N   1      -6.285  -8.838  -0.537  0.00  0.00     0.182 C 
HETATM   14  C   UNK N   1      -7.207 -10.025  -0.280  0.00  0.00     0.198 C 
HETATM   15  C   UNK N   1      -6.213 -11.096   0.184  0.00  0.00     0.262 C 
HETATM   16  O   UNK N   1      -5.023 -10.808  -0.524  0.00  0.00    -0.353 OA
BRANCH  13  17
HETATM   17  O   UNK N   1      -6.584  -7.759   0.295  0.00  0.00    -0.390 OA
HETATM   18  H   UNK N   1      -6.039  -7.204   0.874  0.00  0.00     0.210 HD
ENDBRANCH  13  17
BRANCH  14  19
HETATM   19  O   UNK N   1      -7.774 -10.402  -1.503  0.00  0.00    -0.388 OA
HETATM   20  H   UNK N   1      -8.197 -10.192  -2.351  0.00  0.00     0.210 HD
ENDBRANCH  14  19
BRANCH  15  21
HETATM   21  N   UNK N   1      -6.641 -12.483  -0.005  0.00  0.00    -0.297 N 
HETATM   22  C   UNK N   1      -5.813 -13.559  -0.061  0.00  0.00     0.188 A 
HETATM   23  N   UNK N   1      -6.513 -14.724  -0.144  0.00  0.00    -0.346 N 
HETATM   24  C   UNK N   1      -7.802 -14.339  -0.109  0.00  0.00     0.130 A 
ATOM     25  HN  UNK N   1      -6.145 -15.672  -0.217  1.00  0.00     0.167 HD
HETATM   26  C   UNK N   1      -7.879 -12.999  -0.020  0.00  0.00     0.157 A 
HETATM   27  C   UNK N   1      -8.955 -15.103  -0.128  0.00  0.00     0.186 A 
HETATM   28  N   UNK N   1      -9.062 -12.344   0.070  0.00  0.00    -0.174 N 
HETATM   29  C   UNK N   1     -10.213 -13.084   0.048  0.00  0.00     0.679 A 
HETATM   30  H   UNK N   1      -9.093 -11.363   0.148  0.00  0.00     0.186 HD
HETATM   31  N   UNK N   1     -11.346 -12.498   0.124  0.00  0.00    -0.234 N 
HETATM   32  N   UNK N   1     -10.155 -14.453  -0.051  0.00  0.00    -0.168 N 
HETATM   33  H   UNK N   1     -11.392 -11.516   0.182  0.00  0.00     0.174 HD
ATOM     34  HN  UNK N   1     -12.205 -13.049   0.124  1.00  0.00     0.174 HD
ATOM     35  HN  UNK N   1     -11.020 -14.993  -0.068  1.00  0.00     0.186 HD
BRANCH  27  36
HETATM   36  O   UNK N   1      -8.903 -16.443  -0.208  0.00  0.00    -0.344 OA
HETATM   37  H   UNK N   1      -9.694 -16.941  -0.264  0.00  0.00     0.219 HD
ENDBRANCH  27  36
ENDBRANCH  15  21
ENDBRANCH  11  12
ENDBRANCH  10  11
ENDBRANCH   6  10
ENDBRANCH   5   6
ENDBRANCH   2   5
BRANCH   2  38
HETATM   38  O   UNK N   1      -3.116  -5.516  -0.873  0.00  0.00    -0.195 OA
BRANCH  38  39
HETATM   39  P   UNK N   1      -4.028  -4.030  -1.053  0.00  0.00     0.401 P 
HETATM   40  O   UNK N   1      -5.267  -4.040  -0.120  0.00  0.00    -0.631 OA
BRANCH  39  41
HETATM   41  O   UNK N   1      -4.658  -4.006  -2.672  0.00  0.00    -0.307 OA
HETATM   42  H   UNK N   1      -4.822  -3.695  -3.575  0.00  0.00     0.222 HD
ENDBRANCH  39  41
BRANCH  39  43
HETATM   43  O   UNK N   1      -3.124  -2.550  -0.819  0.00  0.00    -0.294 OA
BRANCH  43  44
HETATM   44  C   UNK N   1      -1.795  -2.856  -1.138  0.00  0.00     0.215 C 
BRANCH  44  45
HETATM   45  C   UNK N   1      -1.052  -3.159   0.158  0.00  0.00     0.180 C 
HETATM   46  C   UNK N   1       0.279  -3.867   0.034  0.00  0.00     0.182 C 
HETATM   47  C   UNK N   1       1.166  -2.696  -0.206  0.00  0.00     0.198 C 
HETATM   48  C   UNK N   1       0.548  -1.731   0.822  0.00  0.00     0.262 C 
HETATM   49  O   UNK N   1      -0.840  -1.985   0.892  0.00  0.00    -0.353 OA
BRANCH  46  50
HETATM   50  O   UNK N   1       0.312  -4.839  -0.969  0.00  0.00    -0.390 OA
HETATM   51  H   UNK N   1      -0.261  -5.196  -1.666  0.00  0.00     0.210 HD
ENDBRANCH  46  50
BRANCH  47  52
HETATM   52  O   UNK N   1       0.987  -2.220  -1.511  0.00  0.00    -0.388 OA
HETATM   53  H   UNK N   1       1.210  -1.947  -2.414  0.00  0.00     0.210 HD
ENDBRANCH  47  52
BRANCH  48  54
HETATM   54  N   UNK N   1       0.762  -0.338   0.463  0.00  0.00    -0.296 N 
HETATM   55  C   UNK N   1      -0.207   0.600   0.270  0.00  0.00     0.190 A 
HETATM   56  N   UNK N   1       0.343   1.788  -0.067  0.00  0.00    -0.341 N 
HETATM   57  C   UNK N   1      -0.383   3.013  -0.350  0.00  0.00     0.157 C 
HETATM   58  C   UNK N   1       1.675   1.580  -0.090  0.00  0.00     0.132 A 
HETATM   59  C   UNK N   1       1.916   0.294   0.235  0.00  0.00     0.158 A 
HETATM   60  C   UNK N   1       2.723   2.430  -0.384  0.00  0.00     0.186 A 
HETATM   61  N   UNK N   1       3.168  -0.227   0.283  0.00  0.00    -0.174 N 
HETATM   62  C   UNK N   1       4.212   0.600  -0.012  0.00  0.00     0.679 A 
HETATM   63  H   UNK N   1       3.317  -1.171   0.522  0.00  0.00     0.186 HD
HETATM   64  N   UNK N   1       5.408   0.143   0.012  0.00  0.00    -0.234 N 
HETATM   65  N   UNK N   1       3.993   1.916  -0.340  0.00  0.00    -0.168 N 
HETATM   66  H   UNK N   1       5.563  -0.829   0.031  0.00  0.00     0.174 HD
ATOM     67  HN  UNK N   1       6.200   0.785   0.012  1.00  0.00     0.174 HD
ATOM     68  HN  UNK N   1       4.786   2.520  -0.554  1.00  0.00     0.186 HD
BRANCH  60  69
HETATM   69  O   UNK N   1       2.517   3.716  -0.709  0.00  0.00    -0.344 OA
HETATM   70  H   UNK N   1       3.223   4.289  -0.936  0.00  0.00     0.219 HD
ENDBRANCH  60  69
ENDBRANCH  48  54
ENDBRANCH  44  45
ENDBRANCH  43  44
ENDBRANCH  39  43
ENDBRANCH  38  39
ENDBRANCH   2  38
TORSDOF 21
