REMARK  4 active torsions:
REMARK  status: ('A' for Active; 'I' for Inactive)
REMARK    1  A    between atoms: C_3  and  C_17 
REMARK    2  A    between atoms: C_13  and  C_14 
REMARK    3  A    between atoms: C_14  and  O_15 
REMARK    4  A    between atoms: C_20  and  C_23 
ROOT
HETATM    1  C   UNK N   1      -0.101  -2.756  -0.000  0.00  0.00     0.052 C 
HETATM    2  C   UNK N   1       1.167  -1.959   0.000  0.00  0.00    -0.017 A 
HETATM    3  C   UNK N   1       1.129  -0.526   0.000  0.00  0.00     0.050 A 
HETATM    4  N   UNK N   1       2.301   0.163   0.000  0.00  0.00    -0.354 N 
ATOM      5  HN  UNK N   1       2.268   1.182   0.000  1.00  0.00     0.166 HD
HETATM    6  C   UNK N   1       3.513  -0.446   0.000  0.00  0.00     0.044 A 
HETATM    7  C   UNK N   1       4.674   0.336   0.000  0.00  0.00     0.033 A 
HETATM    8  C   UNK N   1       5.934  -0.270   0.000  0.00  0.00     0.044 A 
HETATM    9  C   UNK N   1       6.037  -1.661  -0.000  0.00  0.00     0.117 A 
HETATM   10  F   UNK N   1       7.255  -2.255  -0.000  0.00  0.00    -0.206 F 
HETATM   11  C   UNK N   1       4.884  -2.443  -0.000  0.00  0.00     0.057 A 
HETATM   12  C   UNK N   1       3.606  -1.855  -0.000  0.00  0.00     0.011 A 
HETATM   13  C   UNK N   1       2.421  -2.639  -0.000  0.00  0.00     0.058 A 
ENDROOT
BRANCH   3  14
HETATM   14  C   UNK N   1      -0.151   0.267   0.000  0.00  0.00    -0.009 A 
HETATM   15  C   UNK N   1      -1.397  -0.368   0.000  0.00  0.00     0.014 A 
HETATM   16  C   UNK N   1      -2.581   0.350   0.000  0.00  0.00     0.013 A 
HETATM   17  C   UNK N   1      -2.568   1.744   0.000  0.00  0.00    -0.026 A 
HETATM   18  C   UNK N   1      -1.329   2.412  -0.000  0.00  0.00     0.013 A 
HETATM   19  C   UNK N   1      -0.128   1.676  -0.000  0.00  0.00     0.014 A 
BRANCH  17  20
HETATM   20  C   UNK N   1      -3.862   2.469   0.000  0.00  0.00    -0.026 A 
HETATM   21  C   UNK N   1      -5.067   1.742   0.000  0.00  0.00     0.012 A 
HETATM   22  C   UNK N   1      -6.298   2.399   0.000  0.00  0.00     0.001 A 
HETATM   23  C   UNK N   1      -6.340   3.793  -0.000  0.00  0.00     0.000 A 
HETATM   24  C   UNK N   1      -5.151   4.529  -0.000  0.00  0.00     0.001 A 
HETATM   25  C   UNK N   1      -3.915   3.871  -0.000  0.00  0.00     0.012 A 
ENDBRANCH  17  20
ENDBRANCH   3  14
BRANCH  13  26
HETATM   26  C   UNK N   1       2.489  -4.156  -0.000  0.00  0.00     0.177 C 
HETATM   27  O   UNK N   1       3.565  -4.732  -0.000  0.00  0.00    -0.646 OA
BRANCH  26  28
HETATM   28  O   UNK N   1       1.372  -4.909  -0.000  0.00  0.00    -0.773 OA
HETATM   29  H   UNK N   1       0.530  -4.498  -0.000  0.00  0.00     0.167 HD
ENDBRANCH  26  28
ENDBRANCH  13  26
TORSDOF 4
