REMARK  6 active torsions:
REMARK  status: ('A' for Active; 'I' for Inactive)
REMARK    1  A    between atoms: C_14  and  C_7 
REMARK    2  A    between atoms: C_15  and  C_8 
REMARK    3  A    between atoms: N_18  and  C_14 
REMARK    4  A    between atoms: N_19  and  C_14 
REMARK    5  A    between atoms: N_20  and  C_15 
REMARK    6  A    between atoms: N_21  and  C_15 
ROOT
HETATM    1  C   UNK N   1       7.224   4.449   0.324  0.00  0.00     0.013 A 
HETATM    2  C   UNK N   1      -2.098   4.455   0.295  0.00  0.00     0.013 A 
HETATM    3  C   UNK N   1       5.827   4.396   0.306  0.00  0.00     0.034 A 
HETATM    4  C   UNK N   1      -0.700   4.401   0.286  0.00  0.00     0.034 A 
HETATM    5  C   UNK N   1       7.351   2.018  -0.023  0.00  0.00     0.043 A 
HETATM    6  C   UNK N   1      -2.221   2.016   0.004  0.00  0.00     0.043 A 
HETATM    7  C   UNK N   1       7.998   3.276   0.152  0.00  0.00    -0.015 A 
HETATM    8  C   UNK N   1      -2.869   3.276   0.152  0.00  0.00    -0.015 A 
HETATM    9  C   UNK N   1       5.954   2.007  -0.019  0.00  0.00     0.063 A 
HETATM   10  C   UNK N   1      -0.824   2.007   0.004  0.00  0.00     0.063 A 
HETATM   11  C   UNK N   1       5.244   3.153   0.134  0.00  0.00     0.086 A 
HETATM   12  C   UNK N   1      -0.115   3.156   0.138  0.00  0.00     0.086 A 
HETATM   13  C   UNK N   1       2.564   0.805  -0.143  0.00  0.00     0.263 A 
HETATM   14  C   UNK N   1       3.868   1.537  -0.068  0.00  0.00     0.183 A 
HETATM   15  C   UNK N   1       1.261   1.538  -0.053  0.00  0.00     0.183 A 
HETATM   16  N   UNK N   1       5.103   0.960  -0.147  0.00  0.00    -0.336 N 
HETATM   17  N   UNK N   1       0.026   0.959  -0.119  0.00  0.00    -0.336 N 
HETATM   18  N   UNK N   1       3.950   2.878   0.097  0.00  0.00    -0.225 N 
HETATM   19  N   UNK N   1       1.180   2.879   0.105  0.00  0.00    -0.225 N 
HETATM   20  O   UNK N   1       2.563  -0.410  -0.276  0.00  0.00    -0.280 OA
HETATM   21 Zn   UNK N   1       2.566   4.038   0.243  0.00  0.00     0.000 Zn
HETATM   22  H   UNK N   1       5.323   0.008  -0.269  0.00  0.00     0.168 HD
HETATM   23  H   UNK N   1      -0.194   0.006  -0.229  0.00  0.00     0.168 HD
ENDROOT
BRANCH   7  24
HETATM   24  C   UNK N   1       9.495   3.412   0.180  0.00  0.00     0.202 C 
BRANCH  24  25
HETATM   25  N   UNK N   1       9.929   4.406  -0.789  0.00  0.00    -0.407 N 
HETATM   26  H   UNK N   1      10.685   4.490  -1.469  0.00  0.00     0.152 HD
HETATM   27  H   UNK N   1       9.324   5.227  -0.789  0.00  0.00     0.152 HD
ENDBRANCH  24  25
BRANCH  24  28
HETATM   28  N   UNK N   1      10.162   2.150  -0.092  0.00  0.00    -0.407 N 
HETATM   29  H   UNK N   1       9.628   1.302  -0.284  0.00  0.00     0.152 HD
HETATM   30  H   UNK N   1      11.181   2.111  -0.092  0.00  0.00     0.152 HD
ENDBRANCH  24  28
ENDBRANCH   7  24
BRANCH   8  31
HETATM   31  C   UNK N   1      -4.365   3.409   0.171  0.00  0.00     0.202 C 
BRANCH  31  32
HETATM   32  N   UNK N   1      -5.031   2.125   0.035  0.00  0.00    -0.407 N 
HETATM   33  H   UNK N   1      -6.045   2.079  -0.061  0.00  0.00     0.152 HD
HETATM   34  H   UNK N   1      -4.481   1.266   0.035  0.00  0.00     0.152 HD
ENDBRANCH  31  32
BRANCH  31  35
HETATM   35  N   UNK N   1      -4.800   4.295  -0.897  0.00  0.00    -0.407 N 
HETATM   36  H   UNK N   1      -4.415   4.869  -1.647  0.00  0.00     0.152 HD
HETATM   37  H   UNK N   1      -5.818   4.363  -0.897  0.00  0.00     0.152 HD
ENDBRANCH  31  35
ENDBRANCH   8  31
TORSDOF 6
