REMARK  1 active torsions:
REMARK  status: ('A' for Active; 'I' for Inactive)
REMARK    1  A    between atoms: O_12  and  C_4 
REMARK       I    between atoms: N_8  and  C_7 
ROOT
HETATM    1  C   UNK N   1       4.813   1.120  -0.000  0.00  0.00     0.039 A 
HETATM    2  C   UNK N   1       3.608   1.851   0.000  0.00  0.00     0.035 A 
HETATM    3  C   UNK N   1       3.571  -0.992  -0.000  0.00  0.00     0.069 A 
HETATM    4  C   UNK N   1       4.794  -0.298  -0.000  0.00  0.00     0.068 A 
HETATM    5  C   UNK N   1       2.421   1.125   0.000  0.00  0.00     0.076 A 
HETATM    6  C   UNK N   1       2.406  -0.237   0.000  0.00  0.00     0.079 A 
HETATM    7  C   UNK N   1       0.411   0.461   0.000  0.00  0.00     0.676 A 
HETATM    8  N   UNK N   1      -0.867   0.470   0.000  0.00  0.00    -0.234 N 
ATOM      9  HN  UNK N   1      -1.383  -0.410   0.000  1.00  0.00     0.174 HD
HETATM   10  N   UNK N   1       1.162   1.591   0.000  0.00  0.00    -0.190 N 
HETATM   11  N   UNK N   1       1.141  -0.679   0.000  0.00  0.00    -0.190 N 
HETATM   12  H   UNK N   1      -1.354   1.326   0.000  0.00  0.00     0.174 HD
HETATM   13  H   UNK N   1       0.857   2.527   0.000  0.00  0.00     0.184 HD
HETATM   14  H   UNK N   1       0.820  -1.610   0.000  0.00  0.00     0.184 HD
ENDROOT
BRANCH   4  15
HETATM   15  O   UNK N   1       5.946  -0.985  -0.000  0.00  0.00    -0.361 OA
HETATM   16  H   UNK N   1       5.933  -1.922  -0.000  0.00  0.00     0.217 HD
ENDBRANCH   4  15
TORSDOF 1
