REMARK  15 active torsions:
REMARK  status: ('A' for Active; 'I' for Inactive)
REMARK    1  A    between atoms: C_31  and  C_22 
REMARK    2  A    between atoms: C_33  and  C_22 
REMARK    3  A    between atoms: C_34  and  C_24 
REMARK    4  A    between atoms: O_65  and  C_24 
REMARK    5  A    between atoms: C_32  and  O_63 
REMARK    6  A    between atoms: O_65  and  C_33 
REMARK    7  A    between atoms: O_67  and  C_34 
REMARK    8  A    between atoms: N_53  and  C_39 
REMARK    9  A    between atoms: C_40  and  O_56 
REMARK   10  A    between atoms: C_41  and  O_57 
REMARK   11  A    between atoms: O_58  and  C_42 
REMARK   12  A    between atoms: O_59  and  C_43 
REMARK   13  A    between atoms: O_60  and  C_44 
REMARK   14  A    between atoms: C_45  and  O_67 
REMARK   15  A    between atoms: O_62  and  C_48 
ROOT
HETATM    1  C   UNK N   1      12.367  -0.886   0.214  0.00  0.00     0.017 C 
HETATM    2  C   UNK N   1       6.994  -3.555   1.275  0.00  0.00     0.052 C 
HETATM    3  C   UNK N   1       9.699   8.631   1.100  0.00  0.00     0.015 C 
HETATM    4  C   UNK N   1      12.581   2.733   0.771  0.00  0.00     0.015 C 
HETATM    5  C   UNK N   1       9.894   4.742   1.587  0.00  0.00     0.015 C 
HETATM    6  C   UNK N   1      -0.197   4.727  -0.207  0.00  0.00     0.054 C 
HETATM    7  C   UNK N   1       3.336   7.486   2.276  0.00  0.00     0.089 C 
HETATM    8  C   UNK N   1       9.232  -2.017  -0.113  0.00  0.00    -0.003 C 
HETATM    9  C   UNK N   1       9.976  -1.035  -0.723  0.00  0.00    -0.020 C 
HETATM   10  C   UNK N   1       7.812  -2.186  -0.638  0.00  0.00     0.011 C 
HETATM   11  C   UNK N   1       6.654   7.416  -1.080  0.00  0.00     0.029 C 
HETATM   12  C   UNK N   1       5.310   7.166  -0.866  0.00  0.00     0.137 C 
HETATM   13  C   UNK N   1      11.053  -0.160  -0.035  0.00  0.00     0.033 C 
HETATM   14  C   UNK N   1       6.764  -2.679   0.088  0.00  0.00    -0.011 C 
HETATM   15  C   UNK N   1       8.938   7.454   0.481  0.00  0.00     0.044 C 
HETATM   16  C   UNK N   1      11.252   2.577   0.044  0.00  0.00     0.040 C 
HETATM   17  C   UNK N   1       9.883   4.973   0.075  0.00  0.00     0.041 C 
HETATM   18  C   UNK N   1       1.152   4.101  -0.077  0.00  0.00     0.002 C 
HETATM   19  C   UNK N   1       7.645   8.161  -0.160  0.00  0.00     0.151 C 
HETATM   20  C   UNK N   1       3.691   2.971   0.597  0.00  0.00     0.101 C 
HETATM   21  C   UNK N   1       2.707   2.121  -0.192  0.00  0.00     0.117 C 
HETATM   22  C   UNK N   1       3.397   4.413   0.738  0.00  0.00     0.039 C 
HETATM   23  C   UNK N   1       4.636   0.495  -0.358  0.00  0.00     0.088 C 
HETATM   24  C   UNK N   1       5.441   1.768  -0.627  0.00  0.00     0.070 C 
HETATM   25  C   UNK N   1      11.200   1.241  -0.804  0.00  0.00     0.131 C 
HETATM   26  C   UNK N   1      10.844   3.948  -0.707  0.00  0.00     0.130 C 
HETATM   27  C   UNK N   1       1.298   2.717  -0.141  0.00  0.00     0.063 C 
HETATM   28  C   UNK N   1       3.274   0.648  -0.107  0.00  0.00     0.083 C 
HETATM   29  C   UNK N   1       4.907   2.949  -0.267  0.00  0.00     0.076 C 
HETATM   30  C   UNK N   1       9.998   6.490  -0.284  0.00  0.00     0.144 C 
HETATM   31  C   UNK N   1       2.335   4.980   0.292  0.00  0.00     0.092 C 
HETATM   32  C   UNK N   1       4.257   5.425   1.301  0.00  0.00     0.221 C 
HETATM   33  C   UNK N   1       5.391  -2.004  -0.061  0.00  0.00     0.146 C 
HETATM   34  C   UNK N   1       3.679   6.749   0.996  0.00  0.00     0.236 C 
HETATM   35  N   UNK N   1       5.412  -0.741  -0.335  0.00  0.00    -0.333 N 
ATOM     36  HN  UNK N   1       6.349  -0.518  -0.669  1.00  0.00     0.168 HD
HETATM   37  O   UNK N   1       5.299   5.220   1.906  0.00  0.00    -0.286 OA
HETATM   38  O   UNK N   1       4.638   7.511   0.282  0.00  0.00    -0.319 OA
HETATM   39  O   UNK N   1       2.470   6.357   0.345  0.00  0.00    -0.305 OA
ENDROOT
BRANCH  30  40
HETATM   40  O   UNK N   1      11.311   6.893  -0.072  0.00  0.00    -0.313 OA
BRANCH  40  41
HETATM   41  C   UNK N   1      12.029   6.918   1.094  0.00  0.00     0.283 C 
HETATM   42  O   UNK N   1      12.175   5.931   1.793  0.00  0.00    -0.263 OA
BRANCH  41  43
HETATM   43  C   UNK N   1      12.783   8.159   1.416  0.00  0.00     0.289 C 
BRANCH  43  44
HETATM   44  O   UNK N   1      12.836   8.928   0.271  0.00  0.00    -0.311 OA
BRANCH  44  45
HETATM   45  C   UNK N   1      13.528   8.504  -0.821  0.00  0.00     0.263 C 
HETATM   46  O   UNK N   1      13.328   9.027  -1.904  0.00  0.00    -0.265 OA
BRANCH  45  47
HETATM   47  C   UNK N   1      14.535   7.392  -0.699  0.00  0.00     0.146 C 
BRANCH  47  48
HETATM   48  C   UNK N   1      15.759   7.913  -0.015  0.00  0.00    -0.052 C 
HETATM   49  C   UNK N   1      15.640   8.976   1.063  0.00  0.00     0.064 C 
HETATM   50  C   UNK N   1      16.920   9.689   1.376  0.00  0.00    -0.005 C 
HETATM   51  C   UNK N   1      18.087   9.253   0.896  0.00  0.00     0.086 C 
HETATM   52  N   UNK N   1      18.142   8.109   0.056  0.00  0.00    -0.371 N 
HETATM   53  C   UNK N   1      19.417   7.613  -0.374  0.00  0.00     0.154 C 
HETATM   54  C   UNK N   1      16.956   7.525  -0.460  0.00  0.00     0.093 C 
ENDBRANCH  47  48
ENDBRANCH  45  47
ENDBRANCH  44  45
ENDBRANCH  43  44
ENDBRANCH  41  43
ENDBRANCH  40  41
ENDBRANCH  30  40
BRANCH  19  55
HETATM   55  O   UNK N   1       6.905   8.719   0.919  0.00  0.00    -0.386 OA
HETATM   56  C   UNK N   1       7.042  10.118   0.940  0.00  0.00     0.202 C 
ENDBRANCH  19  55
BRANCH  26  57
HETATM   57  O   UNK N   1      10.235   3.673  -1.936  0.00  0.00    -0.395 OA
HETATM   58  H   UNK N   1       9.859   3.944  -2.789  0.00  0.00     0.210 HD
ENDBRANCH  26  57
BRANCH  25  59
HETATM   59  O   UNK N   1      12.220   1.193  -1.759  0.00  0.00    -0.394 OA
HETATM   60  H   UNK N   1      12.545   0.564  -2.422  0.00  0.00     0.210 HD
ENDBRANCH  25  59
BRANCH  29  61
HETATM   61  O   UNK N   1       5.460   4.113  -0.690  0.00  0.00    -0.362 OA
HETATM   62  H   UNK N   1       6.347   4.184  -0.981  0.00  0.00     0.217 HD
ENDBRANCH  29  61
BRANCH  27  63
HETATM   63  O   UNK N   1       0.225   1.917  -0.312  0.00  0.00    -0.363 OA
HETATM   64  H   UNK N   1      -0.628   2.285  -0.431  0.00  0.00     0.217 HD
ENDBRANCH  27  63
BRANCH  33  65
HETATM   65  O   UNK N   1       4.273  -2.592   0.413  0.00  0.00    -0.346 OA
HETATM   66  H   UNK N   1       3.532  -2.123   0.742  0.00  0.00     0.219 HD
ENDBRANCH  33  65
BRANCH  28  67
HETATM   67  O   UNK N   1       2.485  -0.395   0.205  0.00  0.00    -0.362 OA
HETATM   68  H   UNK N   1       1.580  -0.282   0.423  0.00  0.00     0.217 HD
ENDBRANCH  28  67
BRANCH  24  69
HETATM   69  N   UNK N   1       6.806   1.773  -1.102  0.00  0.00    -0.275 NA
HETATM   70  C   UNK N   1       7.572   0.630  -0.843  0.00  0.00     0.122 C 
HETATM   71  C   UNK N   1       7.784   0.602   0.689  0.00  0.00     0.182 C 
HETATM   72  O   UNK N   1       8.441   1.760   1.137  0.00  0.00    -0.389 OA
HETATM   73  C   UNK N   1       7.737   2.903   0.715  0.00  0.00     0.182 C 
HETATM   74  C   UNK N   1       7.606   2.915  -0.828  0.00  0.00     0.122 C 
ENDBRANCH  24  69
TORSDOF 15
