REMARK  2 active torsions:
REMARK  status: ('A' for Active; 'I' for Inactive)
REMARK    1  A    between atoms: O_1  and  C_2 
REMARK    2  A    between atoms: C_2  and  C_3 
ROOT
HETATM    1  C   UNK N   1       0.777   1.631  -0.000  0.00  0.00    -0.019 A 
HETATM    2  C   UNK N   1       1.982   0.928  -0.000  0.00  0.00     0.012 A 
HETATM    3  C   UNK N   1       1.976  -0.467   0.000  0.00  0.00     0.018 A 
HETATM    4  C   UNK N   1       0.756  -1.145   0.000  0.00  0.00     0.087 A 
HETATM    5  N   UNK N   1      -0.413  -0.448   0.000  0.00  0.00    -0.375 N 
ATOM      6  HN  UNK N   1      -1.297  -0.957   0.000  1.00  0.00     0.164 HD
HETATM    7  C   UNK N   1      -0.428   0.913   0.000  0.00  0.00     0.096 A 
ENDROOT
BRANCH   1   8
HETATM    8  C   UNK N   1       0.814   3.129  -0.000  0.00  0.00     0.204 C 
BRANCH   8   9
HETATM    9  O   UNK N   1      -0.467   3.684   0.000  0.00  0.00    -0.396 OA
HETATM   10  H   UNK N   1      -0.578   4.648   0.000  0.00  0.00     0.209 HD
ENDBRANCH   8   9
ENDBRANCH   1   8
TORSDOF 2
