REMARK  4 active torsions:
REMARK  status: ('A' for Active; 'I' for Inactive)
REMARK    1  A    between atoms: C_26  and  C_18 
REMARK    2  A    between atoms: C_27  and  C_19 
REMARK    3  A    between atoms: N_34  and  C_20 
REMARK    4  A    between atoms: N_36  and  C_21 
ROOT
HETATM    1  C   UNK N   1      -0.292   2.991  -0.817  0.00  0.00     0.017 A 
HETATM    2  C   UNK N   1      -1.641   2.883  -0.383  0.00  0.00     0.033 A 
HETATM    3  C   UNK N   1      -0.136   0.558  -0.913  0.00  0.00     0.047 A 
HETATM    4  C   UNK N   1       0.451   1.813  -1.094  0.00  0.00     0.010 A 
HETATM    5  C   UNK N   1      -2.145   1.593  -0.171  0.00  0.00     0.060 A 
HETATM    6  C   UNK N   1      -1.400   0.497  -0.436  0.00  0.00     0.061 A 
HETATM    7  C   UNK N   1      -3.242  -0.154   0.336  0.00  0.00     0.116 A 
HETATM    8  N   UNK N   1      -3.341   1.207   0.308  0.00  0.00    -0.340 N 
HETATM    9  N   UNK N   1      -2.058  -0.606  -0.119  0.00  0.00    -0.340 N 
ATOM     10  HN  UNK N   1      -1.743  -1.573  -0.201  1.00  0.00     0.167 HD
HETATM   11  H   UNK N   1      -4.104   1.770   0.573  0.00  0.00     0.167 HD
ENDROOT
BRANCH   4  12
HETATM   12  C   UNK N   1       1.902   1.760  -1.137  0.00  0.00     0.116 A 
HETATM   13  N   UNK N   1       2.695   2.725  -0.595  0.00  0.00    -0.340 N 
HETATM   14  C   UNK N   1       3.799   2.045  -0.237  0.00  0.00     0.060 A 
ATOM     15  HN  UNK N   1       2.500   3.720  -0.487  1.00  0.00     0.167 HD
HETATM   16  C   UNK N   1       4.899   2.486   0.495  0.00  0.00     0.034 A 
HETATM   17  C   UNK N   1       3.652   0.738  -0.562  0.00  0.00     0.062 A 
HETATM   18  C   UNK N   1       5.840   1.507   0.900  0.00  0.00     0.031 A 
HETATM   19  C   UNK N   1       5.628   0.130   0.591  0.00  0.00     0.032 A 
HETATM   20  C   UNK N   1       4.514  -0.242  -0.166  0.00  0.00     0.061 A 
HETATM   21  N   UNK N   1       2.489   0.543  -1.148  0.00  0.00    -0.340 N 
HETATM   22  H   UNK N   1       2.129  -0.298  -1.512  0.00  0.00     0.167 HD
BRANCH  19  23
HETATM   23  N   UNK N   1       6.535  -0.881   1.003  0.00  0.00    -0.377 N 
HETATM   24  C   UNK N   1       7.916  -0.558   1.203  0.00  0.00     0.153 C 
HETATM   25  C   UNK N   1       8.644  -0.955  -0.087  0.00  0.00     0.291 C 
HETATM   26  N   UNK N   1       8.352  -2.339  -0.512  0.00  0.00     0.087 N 
HETATM   27  C   UNK N   1       9.049  -3.280   0.350  0.00  0.00     0.310 C 
HETATM   28  C   UNK N   1       6.918  -2.665  -0.539  0.00  0.00     0.291 C 
HETATM   29  C   UNK N   1       6.222  -2.267   0.758  0.00  0.00     0.153 C 
ENDBRANCH  19  23
ENDBRANCH   4  12
BRANCH   7  30
HETATM   30  C   UNK N   1      -4.319  -1.082   0.635  0.00  0.00     0.008 A 
HETATM   31  C   UNK N   1      -5.632  -0.637   0.768  0.00  0.00     0.017 A 
HETATM   32  C   UNK N   1      -6.674  -1.566   0.777  0.00  0.00     0.030 A 
HETATM   33  C   UNK N   1      -6.406  -2.943   0.659  0.00  0.00     0.029 A 
HETATM   34  C   UNK N   1      -5.076  -3.379   0.606  0.00  0.00     0.030 A 
HETATM   35  C   UNK N   1      -4.043  -2.454   0.584  0.00  0.00     0.017 A 
BRANCH  33  36
HETATM   36  N   UNK N   1      -7.469  -3.880   0.512  0.00  0.00    -0.390 N 
HETATM   37  C   UNK N   1      -7.191  -5.280   0.306  0.00  0.00     0.149 C 
HETATM   38  C   UNK N   1      -8.829  -3.426   0.377  0.00  0.00     0.149 C 
ENDBRANCH  33  36
ENDBRANCH   7  30
TORSDOF 4
