REMARK  11 active torsions:
REMARK  status: ('A' for Active; 'I' for Inactive)
REMARK    1  A    between atoms: O_1  and  C_2 
REMARK    2  A    between atoms: C_2  and  C_3 
REMARK    3  A    between atoms: C_3  and  O_4 
REMARK    4  A    between atoms: C_3  and  C_5 
REMARK    5  A    between atoms: C_5  and  O_6 
REMARK    6  A    between atoms: C_5  and  C_7 
REMARK    7  A    between atoms: C_7  and  O_8 
REMARK    8  A    between atoms: C_7  and  C_9 
REMARK    9  A    between atoms: C_9  and  O_10 
REMARK   10  A    between atoms: C_9  and  C_11 
REMARK   11  A    between atoms: C_11  and  O_12 
ROOT
HETATM    1  C   UNK N   1       3.987   1.210  -0.279  0.00  0.00     0.188 C 
ENDROOT
BRANCH   1   2
HETATM    2  C   UNK N   1       2.632   1.732   0.250  0.00  0.00     0.180 C 
BRANCH   2   3
HETATM    3  C   UNK N   1       1.409   0.982  -0.318  0.00  0.00     0.173 C 
BRANCH   3   4
HETATM    4  C   UNK N   1       0.110   1.499   0.290  0.00  0.00     0.198 C 
BRANCH   4   5
HETATM    5  O   UNK N   1      -0.199   2.769  -0.196  0.00  0.00    -0.398 OA
HETATM    6  H   UNK N   1       0.459   3.397  -0.534  0.00  0.00     0.209 HD
ENDBRANCH   4   5
ENDBRANCH   3   4
BRANCH   3   7
HETATM    7  O   UNK N   1       1.492  -0.381  -0.032  0.00  0.00    -0.391 OA
HETATM    8  H   UNK N   1       0.700  -0.904   0.167  0.00  0.00     0.210 HD
ENDBRANCH   3   7
ENDBRANCH   2   3
BRANCH   2   9
HETATM    9  O   UNK N   1       2.510   3.093  -0.043  0.00  0.00    -0.390 OA
HETATM   10  H   UNK N   1       3.286   3.639  -0.246  0.00  0.00     0.210 HD
ENDBRANCH   2   9
ENDBRANCH   1   2
BRANCH   1  11
HETATM   11  O   UNK N   1       4.082  -0.164  -0.042  0.00  0.00    -0.390 OA
HETATM   12  H   UNK N   1       3.289  -0.698   0.122  0.00  0.00     0.210 HD
ENDBRANCH   1  11
BRANCH   1  13
HETATM   13  C   UNK N   1       5.166   1.917   0.420  0.00  0.00     0.246 C 
BRANCH  13  14
HETATM   14  O   UNK N   1       5.146   3.288   0.148  0.00  0.00    -0.382 OA
HETATM   15  H   UNK N   1       5.962   3.776  -0.041  0.00  0.00     0.210 HD
ENDBRANCH  13  14
BRANCH  13  16
HETATM   16  C   UNK N   1       6.513   1.352   0.038  0.00  0.00     0.172 C 
HETATM   17  O   UNK N   1       6.755   0.170   0.216  0.00  0.00    -0.648 OA
BRANCH  16  18
HETATM   18  O   UNK N   1       7.475   2.158  -0.453  0.00  0.00    -0.774 OA
HETATM   19  H   UNK N   1       8.295   1.859  -0.794  0.00  0.00     0.167 HD
ENDBRANCH  16  18
ENDBRANCH  13  16
ENDBRANCH   1  13
TORSDOF 11
