REMARK  3 active torsions:
REMARK  status: ('A' for Active; 'I' for Inactive)
REMARK    1  A    between atoms: C_4  and  O_7 
REMARK    2  A    between atoms: C_5  and  O_8 
REMARK    3  A    between atoms: C_6  and  O_9 
ROOT
HETATM    1  C   UNK N   1      -1.503   1.669  -0.879  0.00  0.00     0.042 C 
HETATM    2  C   UNK N   1       1.824   1.048   0.925  0.00  0.00     0.071 C 
HETATM    3  C   UNK N   1      -0.439   0.904  -0.109  0.00  0.00     0.149 C 
HETATM    4  C   UNK N   1       0.748   1.838   0.192  0.00  0.00     0.149 C 
HETATM    5  C   UNK N   1       2.211  -0.154   0.075  0.00  0.00     0.175 C 
HETATM    6  C   UNK N   1       0.956  -0.985  -0.238  0.00  0.00     0.285 C 
HETATM    7  O   UNK N   1      -0.032  -0.204  -0.899  0.00  0.00    -0.351 OA
ENDROOT
BRANCH   4   8
HETATM    8  O   UNK N   1       0.342   2.912   0.985  0.00  0.00    -0.393 OA
HETATM    9  H   UNK N   1       0.848   3.530   1.536  0.00  0.00     0.210 HD
ENDBRANCH   4   8
BRANCH   5  10
HETATM   10  O   UNK N   1       3.155  -0.929   0.751  0.00  0.00    -0.391 OA
HETATM   11  H   UNK N   1       3.016  -1.767   1.221  0.00  0.00     0.210 HD
ENDBRANCH   5  10
BRANCH   6  12
HETATM   12  O   UNK N   1       0.430  -1.571   0.920  0.00  0.00    -0.369 OA
HETATM   13  H   UNK N   1      -0.103  -1.458   1.722  0.00  0.00     0.212 HD
ENDBRANCH   6  12
TORSDOF 3
