REMARK  9 active torsions:
REMARK  status: ('A' for Active; 'I' for Inactive)
REMARK    1  A    between atoms: C_6  and  C_4 
REMARK    2  A    between atoms: O_19  and  C_4 
REMARK    3  A    between atoms: C_5  and  O_13 
REMARK    4  A    between atoms: C_7  and  O_14 
REMARK    5  A    between atoms: C_8  and  N_12 
REMARK    6  A    between atoms: O_15  and  C_9 
REMARK    7  A    between atoms: P_21  and  O_16 
REMARK    8  A    between atoms: P_21  and  O_17 
REMARK    9  A    between atoms: P_21  and  O_19 
ROOT
HETATM    1  C   UNK N   1       3.892  -0.174   0.866  0.00  0.00     0.088 C 
HETATM    2  C   UNK N   1       3.091   0.948   0.294  0.00  0.00     0.153 C 
HETATM    3  C   UNK N   1       1.992   0.176  -0.435  0.00  0.00     0.177 C 
HETATM    4  C   UNK N   1       3.878  -1.083  -0.351  0.00  0.00     0.233 C 
HETATM    5  O   UNK N   1       2.571  -1.034  -0.893  0.00  0.00    -0.356 OA
ENDROOT
BRANCH   4   6
HETATM    6  N   UNK N   1       4.350  -2.430  -0.039  0.00  0.00    -0.296 N 
HETATM    7  C   UNK N   1       5.716  -2.574   0.327  0.00  0.00     0.097 A 
HETATM    8  C   UNK N   1       6.277  -3.779   0.419  0.00  0.00     0.043 A 
HETATM    9  C   UNK N   1       5.490  -5.031   0.152  0.00  0.00     0.246 A 
HETATM   10  N   UNK N   1       4.081  -4.784  -0.116  0.00  0.00    -0.326 N 
HETATM   11  C   UNK N   1       3.546  -3.610  -0.203  0.00  0.00     0.223 A 
ATOM     12  HN  UNK N   1       3.473  -5.593  -0.244  1.00  0.00     0.166 HD
BRANCH   9  13
HETATM   13  O   UNK N   1       5.604  -5.876   1.254  0.00  0.00    -0.373 OA
HETATM   14  H   UNK N   1       5.134  -6.239   2.021  0.00  0.00     0.212 HD
ENDBRANCH   9  13
BRANCH  11  15
HETATM   15  O   UNK N   1       2.227  -3.517  -0.458  0.00  0.00    -0.332 OA
HETATM   16  H   UNK N   1       1.825  -2.690  -0.635  0.00  0.00     0.220 HD
ENDBRANCH  11  15
ENDBRANCH   4   6
BRANCH   2  17
HETATM   17  O   UNK N   1       2.625   1.839   1.263  0.00  0.00    -0.393 OA
HETATM   18  H   UNK N   1       2.999   2.429   1.935  0.00  0.00     0.210 HD
ENDBRANCH   2  17
BRANCH   3  19
HETATM   19  C   UNK N   1       0.790  -0.173   0.454  0.00  0.00     0.215 C 
BRANCH  19  20
HETATM   20  O   UNK N   1       0.076   0.979   0.825  0.00  0.00    -0.294 OA
BRANCH  20  21
HETATM   21  P   UNK N   1      -1.186   1.167  -0.364  0.00  0.00     0.390 P 
HETATM   22  O   UNK N   1      -2.001   0.744   0.887  0.00  0.00    -0.632 OA
BRANCH  21  23
HETATM   23  O   UNK N   1      -2.360   2.439  -0.231  0.00  0.00    -0.307 OA
HETATM   24  H   UNK N   1      -2.072   3.363  -0.157  0.00  0.00     0.222 HD
ENDBRANCH  21  23
BRANCH  21  25
HETATM   25  O   UNK N   1      -0.420   2.697  -0.060  0.00  0.00    -0.307 OA
HETATM   26  H   UNK N   1       0.533   2.754   0.110  0.00  0.00     0.222 HD
ENDBRANCH  21  25
ENDBRANCH  20  21
ENDBRANCH  19  20
ENDBRANCH   3  19
TORSDOF 9
