REMARK  6 active torsions:
REMARK  status: ('A' for Active; 'I' for Inactive)
REMARK    1  A    between atoms: C_10  and  C_7 
REMARK    2  A    between atoms: C_10  and  C_9 
REMARK    3  A    between atoms: C_11  and  C_9 
REMARK    4  A    between atoms: C_9  and  N_12 
REMARK    5  A    between atoms: C_10  and  O_14 
REMARK    6  A    between atoms: O_16  and  C_11 
ROOT
HETATM    1  C   UNK N   1       0.337   0.238   0.163  0.00  0.00     0.186 C 
ENDROOT
BRANCH   1   2
HETATM    2  C   UNK N   1       0.815   1.671   0.025  0.00  0.00     0.001 A 
HETATM    3  C   UNK N   1      -0.049   2.762  -0.063  0.00  0.00     0.099 A 
HETATM    4  N   UNK N   1       0.663   3.908  -0.188  0.00  0.00    -0.365 N 
HETATM    5  C   UNK N   1       1.959   3.551  -0.165  0.00  0.00     0.043 A 
HETATM    6  H   UNK N   1       0.303   4.820  -0.276  0.00  0.00     0.165 HD
HETATM    7  C   UNK N   1       3.055   4.403  -0.252  0.00  0.00     0.030 A 
HETATM    8  C   UNK N   1       2.095   2.196  -0.033  0.00  0.00     0.001 A 
HETATM    9  C   UNK N   1       4.338   3.831  -0.190  0.00  0.00     0.002 A 
HETATM   10  C   UNK N   1       4.489   2.436  -0.044  0.00  0.00     0.001 A 
HETATM   11  C   UNK N   1       3.358   1.603   0.034  0.00  0.00     0.014 A 
ENDBRANCH   1   2
BRANCH   1  12
HETATM   12  C   UNK N   1       1.449  -0.833   0.093  0.00  0.00     0.207 C 
BRANCH  12  13
HETATM   13  C   UNK N   1       0.939  -2.228   0.362  0.00  0.00     0.165 C 
HETATM   14  O   UNK N   1       1.716  -3.170   0.336  0.00  0.00    -0.648 OA
BRANCH  13  15
HETATM   15  O   UNK N   1      -0.360  -2.451   0.647  0.00  0.00    -0.775 OA
HETATM   16  H   UNK N   1      -0.945  -1.747   0.845  0.00  0.00     0.167 HD
ENDBRANCH  13  15
ENDBRANCH  12  13
BRANCH  12  17
HETATM   17  N   UNK N   1       2.067  -0.810  -1.227  0.00  0.00    -0.415 N 
HETATM   18  H   UNK N   1       2.297  -1.176  -2.151  0.00  0.00     0.150 HD
HETATM   19  H   UNK N   1       2.543   0.092  -1.227  0.00  0.00     0.150 HD
ENDBRANCH  12  17
ENDBRANCH   1  12
BRANCH   1  20
HETATM   20  O   UNK N   1      -0.602  -0.016  -0.843  0.00  0.00    -0.388 OA
HETATM   21  H   UNK N   1      -1.080   0.459  -1.541  0.00  0.00     0.210 HD
ENDBRANCH   1  20
TORSDOF 6
