REMARK WARNING: 32 MAX_TORS EXCEEDED!!!
REMARK  45 active torsions:
REMARK  status: ('A' for Active; 'I' for Inactive)
REMARK    1  A    between atoms: C_8  and  C_6 
REMARK    2  A    between atoms: C_9  and  C_7 
REMARK    3  A    between atoms: C_10  and  C_8 
REMARK    4  A    between atoms: C_11  and  C_9 
REMARK    5  A    between atoms: C_12  and  C_10 
REMARK    6  A    between atoms: C_13  and  C_11 
REMARK    7  A    between atoms: C_14  and  C_12 
REMARK    8  A    between atoms: C_15  and  C_13 
REMARK    9  A    between atoms: C_16  and  C_14 
REMARK   10  A    between atoms: C_17  and  C_15 
REMARK   11  A    between atoms: C_18  and  C_16 
REMARK   12  A    between atoms: C_19  and  C_17 
REMARK   13  A    between atoms: C_20  and  C_18 
REMARK   14  A    between atoms: C_21  and  C_19 
REMARK   15  A    between atoms: C_22  and  C_20 
REMARK   16  A    between atoms: C_23  and  C_21 
REMARK   17  A    between atoms: C_24  and  C_22 
REMARK   18  A    between atoms: C_25  and  C_23 
REMARK   19  A    between atoms: C_26  and  C_24 
REMARK   20  A    between atoms: C_27  and  C_25 
REMARK   21  A    between atoms: C_28  and  C_26 
REMARK   22  A    between atoms: C_29  and  C_27 
REMARK   23  A    between atoms: C_30  and  C_28 
REMARK   24  A    between atoms: C_31  and  C_29 
REMARK   25  A    between atoms: C_32  and  C_30 
REMARK   26  A    between atoms: C_33  and  C_31 
REMARK   27  A    between atoms: C_34  and  C_32 
REMARK   28  A    between atoms: C_35  and  C_33 
REMARK   29  A    between atoms: C_36  and  C_34 
REMARK   30  A    between atoms: C_37  and  C_35 
REMARK   31  A    between atoms: C_43  and  C_36 
REMARK   32  A    between atoms: C_44  and  C_37 
REMARK   33  A    between atoms: C_39  and  C_38 
REMARK   34  A    between atoms: N_45  and  C_38 
REMARK   35  A    between atoms: O_51  and  C_39 
REMARK   36  A    between atoms: C_42  and  C_40 
REMARK   37  A    between atoms: O_50  and  C_40 
REMARK   38  A    between atoms: C_42  and  C_41 
REMARK   39  A    between atoms: O_52  and  C_41 
REMARK   40  A    between atoms: C_42  and  O_53 
REMARK   41  A    between atoms: O_50  and  C_43 
REMARK   42  A    between atoms: O_53  and  C_44 
REMARK   43  A    between atoms: P_54  and  O_49 
REMARK   44  A    between atoms: P_54  and  O_51 
REMARK   45  A    between atoms: P_54  and  O_52 
ROOT
HETATM    1  C   UNK N   1       1.253  -6.698   0.170  0.00  0.00     0.180 C 
ENDROOT
BRANCH   1   2
HETATM    2  C   UNK N   1       0.701  -6.755  -1.257  0.00  0.00     0.213 C 
BRANCH   2   3
HETATM    3  O   UNK N   1      -0.353  -5.884  -1.403  0.00  0.00    -0.319 OA
BRANCH   3   4
HETATM    4  C   UNK N   1      -1.638  -6.322  -1.443  0.00  0.00     0.258 C 
HETATM    5  O   UNK N   1      -2.533  -5.522  -1.657  0.00  0.00    -0.265 OA
BRANCH   4   6
HETATM    6  C   UNK N   1      -1.989  -7.772  -1.226  0.00  0.00     0.111 C 
BRANCH   6   7
HETATM    7  C   UNK N   1      -1.613  -8.208   0.187  0.00  0.00     0.010 C 
BRANCH   7   8
HETATM    8  C   UNK N   1      -2.813  -8.566   1.051  0.00  0.00     0.000 C 
BRANCH   8   9
HETATM    9  C   UNK N   1      -3.711  -7.366   1.284  0.00  0.00     0.000 C 
BRANCH   9  10
HETATM   10  C   UNK N   1      -4.683  -7.257   0.128  0.00  0.00     0.000 C 
BRANCH  10  11
HETATM   11  C   UNK N   1      -5.433  -5.949   0.191  0.00  0.00     0.000 C 
BRANCH  11  12
HETATM   12  C   UNK N   1      -6.779  -6.171   0.851  0.00  0.00     0.000 C 
BRANCH  12  13
HETATM   13  C   UNK N   1      -7.848  -5.403   0.094  0.00  0.00     0.000 C 
BRANCH  13  14
HETATM   14  C   UNK N   1      -8.112  -6.069  -1.250  0.00  0.00     0.000 C 
BRANCH  14  15
HETATM   15  C   UNK N   1      -9.470  -6.755  -1.287  0.00  0.00     0.000 C 
BRANCH  15  16
HETATM   16  C   UNK N   1      -9.557  -7.892  -0.278  0.00  0.00     0.000 C 
BRANCH  16  17
HETATM   17  C   UNK N   1     -10.318  -7.442   0.962  0.00  0.00     0.000 C 
BRANCH  17  18
HETATM   18  C   UNK N   1     -11.816  -7.646   0.787  0.00  0.00     0.000 C 
BRANCH  18  19
HETATM   19  C   UNK N   1     -12.397  -6.625  -0.179  0.00  0.00     0.000 C 
BRANCH  19  20
HETATM   20  C   UNK N   1     -13.785  -7.049  -0.620  0.00  0.00    -0.000 C 
BRANCH  20  21
HETATM   21  C   UNK N   1     -14.807  -6.706   0.445  0.00  0.00    -0.005 C 
HETATM   22  C   UNK N   1     -16.165  -7.221   0.018  0.00  0.00     0.005 C 
ENDBRANCH  20  21
ENDBRANCH  19  20
ENDBRANCH  18  19
ENDBRANCH  17  18
ENDBRANCH  16  17
ENDBRANCH  15  16
ENDBRANCH  14  15
ENDBRANCH  13  14
ENDBRANCH  12  13
ENDBRANCH  11  12
ENDBRANCH  10  11
ENDBRANCH   9  10
ENDBRANCH   8   9
ENDBRANCH   7   8
ENDBRANCH   6   7
ENDBRANCH   4   6
ENDBRANCH   3   4
ENDBRANCH   2   3
ENDBRANCH   1   2
BRANCH   1  23
HETATM   23  C   UNK N   1       1.948  -8.013   0.521  0.00  0.00     0.215 C 
BRANCH  23  24
HETATM   24  O   UNK N   1       1.239  -9.107  -0.003  0.00  0.00    -0.294 OA
BRANCH  24  25
HETATM   25  P   UNK N   1       1.655 -10.495   0.961  0.00  0.00     0.393 P 
HETATM   26  O   UNK N   1       0.173 -10.746   0.573  0.00  0.00    -0.631 OA
BRANCH  25  27
HETATM   27  O   UNK N   1       1.649 -12.078   0.244  0.00  0.00    -0.307 OA
HETATM   28  H   UNK N   1       0.882 -12.517  -0.156  0.00  0.00     0.222 HD
ENDBRANCH  25  27
BRANCH  25  29
HETATM   29  O   UNK N   1       2.683 -10.527  -0.448  0.00  0.00    -0.295 OA
BRANCH  29  30
HETATM   30  C   UNK N   1       3.953 -10.173   0.025  0.00  0.00     0.208 C 
BRANCH  30  31
HETATM   31  C   UNK N   1       5.034 -10.865  -0.796  0.00  0.00     0.262 C 
BRANCH  31  32
HETATM   32  N   UNK N   1       5.694 -11.954  -0.075  0.00  0.00    -0.077 N 
HETATM   33  C   UNK N   1       4.754 -13.013   0.258  0.00  0.00     0.271 C 
HETATM   34  C   UNK N   1       6.336 -11.472   1.139  0.00  0.00     0.271 C 
HETATM   35  C   UNK N   1       6.718 -12.508  -0.939  0.00  0.00     0.271 C 
ENDBRANCH  31  32
ENDBRANCH  30  31
ENDBRANCH  29  30
ENDBRANCH  25  29
ENDBRANCH  24  25
ENDBRANCH  23  24
ENDBRANCH   1  23
BRANCH   1  36
HETATM   36  O   UNK N   1       2.117  -5.625   0.311  0.00  0.00    -0.312 OA
BRANCH  36  37
HETATM   37  C   UNK N   1       3.275  -5.480  -0.393  0.00  0.00     0.259 C 
HETATM   38  O   UNK N   1       3.649  -6.353  -1.165  0.00  0.00    -0.265 OA
BRANCH  37  39
HETATM   39  C   UNK N   1       4.080  -4.225  -0.216  0.00  0.00     0.111 C 
BRANCH  39  40
HETATM   40  C   UNK N   1       5.416  -4.260  -0.952  0.00  0.00     0.010 C 
BRANCH  40  41
HETATM   41  C   UNK N   1       6.497  -4.821  -0.043  0.00  0.00     0.000 C 
BRANCH  41  42
HETATM   42  C   UNK N   1       6.370  -6.327   0.071  0.00  0.00     0.000 C 
BRANCH  42  43
HETATM   43  C   UNK N   1       7.234  -6.828   1.207  0.00  0.00     0.000 C 
BRANCH  43  44
HETATM   44  C   UNK N   1       7.478  -8.314   1.027  0.00  0.00     0.000 C 
BRANCH  44  45
HETATM   45  C   UNK N   1       8.856  -8.581   0.435  0.00  0.00     0.000 C 
BRANCH  45  46
HETATM   46  C   UNK N   1       8.940  -8.245  -1.052  0.00  0.00     0.000 C 
BRANCH  46  47
HETATM   47  C   UNK N   1       9.154  -6.756  -1.310  0.00  0.00     0.000 C 
BRANCH  47  48
HETATM   48  C   UNK N   1      10.564  -6.303  -0.966  0.00  0.00     0.000 C 
BRANCH  48  49
HETATM   49  C   UNK N   1      10.661  -5.882   0.493  0.00  0.00     0.000 C 
BRANCH  49  50
HETATM   50  C   UNK N   1      11.390  -6.931   1.323  0.00  0.00     0.000 C 
BRANCH  50  51
HETATM   51  C   UNK N   1      12.894  -6.807   1.153  0.00  0.00     0.000 C 
BRANCH  51  52
HETATM   52  C   UNK N   1      13.351  -7.501  -0.119  0.00  0.00     0.000 C 
BRANCH  52  53
HETATM   53  C   UNK N   1      14.615  -6.846  -0.644  0.00  0.00    -0.000 C 
BRANCH  53  54
HETATM   54  C   UNK N   1      15.801  -7.181   0.240  0.00  0.00    -0.005 C 
HETATM   55  C   UNK N   1      16.989  -6.343  -0.181  0.00  0.00     0.005 C 
ENDBRANCH  53  54
ENDBRANCH  52  53
ENDBRANCH  51  52
ENDBRANCH  50  51
ENDBRANCH  49  50
ENDBRANCH  48  49
ENDBRANCH  47  48
ENDBRANCH  46  47
ENDBRANCH  45  46
ENDBRANCH  44  45
ENDBRANCH  43  44
ENDBRANCH  42  43
ENDBRANCH  41  42
ENDBRANCH  40  41
ENDBRANCH  39  40
ENDBRANCH  37  39
ENDBRANCH  36  37
ENDBRANCH   1  36
TORSDOF 45
