REMARK  12 active torsions:
REMARK  status: ('A' for Active; 'I' for Inactive)
REMARK    1  A    between atoms: C_4  and  C_2 
REMARK    2  A    between atoms: O_15  and  C_2 
REMARK    3  A    between atoms: O_16  and  C_3 
REMARK    4  A    between atoms: C_6  and  C_4 
REMARK    5  A    between atoms: C_4  and  O_17 
REMARK    6  A    between atoms: C_5  and  N_13 
REMARK    7  A    between atoms: C_8  and  C_6 
REMARK    8  A    between atoms: C_6  and  O_18 
REMARK    9  A    between atoms: C_7  and  O_19 
REMARK   10  A    between atoms: C_11  and  C_10 
REMARK   11  A    between atoms: O_21  and  C_10 
REMARK   12  A    between atoms: C_11  and  O_22 
ROOT
HETATM    1  C   UNK N   1       1.647   1.329  -0.477  0.00  0.00     0.146 C 
HETATM    2  C   UNK N   1       0.599   1.716   0.598  0.00  0.00     0.183 C 
HETATM    3  C   UNK N   1       1.739  -0.203  -0.773  0.00  0.00     0.182 C 
HETATM    4  C   UNK N   1      -0.169   0.481   1.067  0.00  0.00     0.274 C 
HETATM    5  C   UNK N   1      -0.559  -0.501  -0.082  0.00  0.00     0.285 C 
HETATM    6  F   UNK N   1      -1.261   0.828   1.847  0.00  0.00    -0.240 F 
HETATM    7  O   UNK N   1       0.443  -0.694  -1.088  0.00  0.00    -0.334 OA
ENDROOT
BRANCH   3   8
HETATM    8  C   UNK N   1       2.476  -1.243   0.140  0.00  0.00     0.180 C 
BRANCH   8   9
HETATM    9  C   UNK N   1       3.941  -0.934   0.509  0.00  0.00     0.173 C 
BRANCH   9  10
HETATM   10  C   UNK N   1       4.782  -0.537  -0.701  0.00  0.00     0.198 C 
BRANCH  10  11
HETATM   11  O   UNK N   1       6.091  -0.252  -0.307  0.00  0.00    -0.398 OA
HETATM   12  H   UNK N   1       6.717  -0.941  -0.034  0.00  0.00     0.209 HD
ENDBRANCH  10  11
ENDBRANCH   9  10
BRANCH   9  13
HETATM   13  O   UNK N   1       3.994   0.065   1.482  0.00  0.00    -0.391 OA
HETATM   14  H   UNK N   1       4.614   0.380   2.158  0.00  0.00     0.210 HD
ENDBRANCH   9  13
ENDBRANCH   8   9
BRANCH   8  15
HETATM   15  O   UNK N   1       2.454  -2.467  -0.537  0.00  0.00    -0.390 OA
HETATM   16  H   UNK N   1       1.711  -2.879  -1.007  0.00  0.00     0.210 HD
ENDBRANCH   8  15
ENDBRANCH   3   8
BRANCH   1  17
HETATM   17  N   UNK N   1       2.950   1.926  -0.238  0.00  0.00    -0.365 N 
HETATM   18  C   UNK N   1       3.174   3.197  -0.253  0.00  0.00     0.107 C 
HETATM   19  C   UNK N   1       4.549   3.703   0.013  0.00  0.00     0.097 C 
ATOM     20  HN  UNK N   1       3.735   1.303  -0.048  1.00  0.00     0.161 HD
BRANCH  18  21
HETATM   21  O   UNK N   1       2.187   4.076  -0.523  0.00  0.00    -0.350 OA
HETATM   22  H   UNK N   1       2.373   4.975  -0.711  0.00  0.00     0.219 HD
ENDBRANCH  18  21
ENDBRANCH   1  17
BRANCH   2  23
HETATM   23  O   UNK N   1      -0.277   2.676   0.082  0.00  0.00    -0.390 OA
HETATM   24  H   UNK N   1      -0.005   3.535  -0.277  0.00  0.00     0.210 HD
ENDBRANCH   2  23
BRANCH   5  25
HETATM   25  C   UNK N   1      -1.815  -0.042  -0.791  0.00  0.00     0.208 C 
HETATM   26  O   UNK N   1      -2.825  -0.724  -0.758  0.00  0.00    -0.646 OA
BRANCH  25  27
HETATM   27  O   UNK N   1      -1.818   1.107  -1.495  0.00  0.00    -0.772 OA
HETATM   28  H   UNK N   1      -1.128   1.509  -1.985  0.00  0.00     0.167 HD
ENDBRANCH  25  27
ENDBRANCH   5  25
BRANCH   5  29
HETATM   29  O   UNK N   1      -0.823  -1.742   0.511  0.00  0.00    -0.355 OA
HETATM   30  H   UNK N   1      -1.659  -2.014   0.921  0.00  0.00     0.213 HD
ENDBRANCH   5  29
TORSDOF 12
