REMARK  22 active torsions:
REMARK  status: ('A' for Active; 'I' for Inactive)
REMARK    1  A    between atoms: C_19  and  C_9 
REMARK    2  A    between atoms: O_41  and  C_9 
REMARK    3  A    between atoms: C_20  and  C_10 
REMARK    4  A    between atoms: O_42  and  C_10 
REMARK    5  A    between atoms: C_21  and  C_11 
REMARK    6  A    between atoms: O_43  and  C_11 
REMARK    7  A    between atoms: O_44  and  C_13 
REMARK    8  A    between atoms: O_45  and  C_14 
REMARK    9  A    between atoms: O_46  and  C_15 
REMARK   10  A    between atoms: O_52  and  C_16 
REMARK   11  A    between atoms: C_23  and  N_35 
REMARK   12  A    between atoms: C_24  and  N_37 
REMARK   13  A    between atoms: C_25  and  N_39 
REMARK   14  A    between atoms: C_26  and  O_48 
REMARK   15  A    between atoms: C_27  and  O_49 
REMARK   16  A    between atoms: C_28  and  O_50 
REMARK   17  A    between atoms: C_29  and  O_51 
REMARK   18  A    between atoms: C_30  and  O_58 
REMARK   19  A    between atoms: C_31  and  O_57 
REMARK   20  A    between atoms: C_32  and  O_52 
REMARK   21  A    between atoms: C_33  and  O_57 
REMARK   22  A    between atoms: C_34  and  O_58 
ROOT
HETATM    1  C   UNK N   1      -2.028   3.820  -0.932  0.00  0.00     0.180 C 
HETATM    2  C   UNK N   1      -4.590   2.856   0.149  0.00  0.00     0.169 C 
HETATM    3  C   UNK N   1      -4.245   4.413   0.164  0.00  0.00     0.177 C 
HETATM    4  C   UNK N   1      -3.195   4.853  -0.900  0.00  0.00     0.186 C 
HETATM    5  C   UNK N   1      -3.453   2.034  -0.524  0.00  0.00     0.286 C 
HETATM    6  O   UNK N   1      -2.302   2.688  -0.173  0.00  0.00    -0.349 OA
ENDROOT
BRANCH   5   7
HETATM    7  O   UNK N   1      -3.365   0.696  -0.033  0.00  0.00    -0.348 OA
BRANCH   7   8
HETATM    8  C   UNK N   1      -2.088   0.061  -0.281  0.00  0.00     0.186 C 
HETATM    9  C   UNK N   1      -0.930   0.533   0.728  0.00  0.00     0.180 C 
HETATM   10  O   UNK N   1      -0.036  -0.503   1.101  0.00  0.00    -0.349 OA
HETATM   11  C   UNK N   1       0.286  -1.281  -0.024  0.00  0.00     0.292 C 
HETATM   12  C   UNK N   1      -0.889  -2.256  -0.277  0.00  0.00     0.170 C 
HETATM   13  C   UNK N   1      -2.232  -1.468  -0.035  0.00  0.00     0.177 C 
BRANCH   9  14
HETATM   14  C   UNK N   1      -0.067   1.745   0.319  0.00  0.00     0.198 C 
BRANCH  14  15
HETATM   15  O   UNK N   1       0.416   1.648  -0.991  0.00  0.00    -0.398 OA
HETATM   16  H   UNK N   1       0.525   1.325  -1.899  0.00  0.00     0.209 HD
ENDBRANCH  14  15
ENDBRANCH   9  14
BRANCH  11  17
HETATM   17  O   UNK N   1       1.569  -1.804   0.104  0.00  0.00    -0.318 OA
BRANCH  17  18
HETATM   18  C   UNK N   1       2.661  -0.979   0.211  0.00  0.00     0.074 A 
HETATM   19  C   UNK N   1       2.509   0.377   0.546  0.00  0.00     0.038 A 
HETATM   20  C   UNK N   1       3.579   1.260   0.545  0.00  0.00     0.017 A 
HETATM   21  C   UNK N   1       4.848   0.801   0.204  0.00  0.00     0.004 A 
HETATM   22  C   UNK N   1       5.941   1.673   0.139  0.00  0.00    -0.043 A 
HETATM   23  C   UNK N   1       5.038  -0.567  -0.096  0.00  0.00     0.092 A 
HETATM   24  C   UNK N   1       5.805   3.135   0.419  0.00  0.00     0.049 C 
HETATM   25  C   UNK N   1       7.186   1.161  -0.217  0.00  0.00     0.090 A 
HETATM   26  C   UNK N   1       7.306  -0.201  -0.492  0.00  0.00     0.288 A 
HETATM   27  O   UNK N   1       8.396  -0.656  -0.806  0.00  0.00    -0.260 OA
HETATM   28  O   UNK N   1       6.252  -1.011  -0.427  0.00  0.00    -0.275 OA
HETATM   29  C   UNK N   1       3.946  -1.455  -0.087  0.00  0.00     0.075 A 
ENDBRANCH  17  18
ENDBRANCH  11  17
BRANCH  12  30
HETATM   30  N   UNK N   1      -0.866  -3.405   0.611  0.00  0.00    -0.363 N 
HETATM   31  C   UNK N   1       0.004  -4.356   0.538  0.00  0.00     0.107 C 
HETATM   32  C   UNK N   1      -0.052  -5.475   1.518  0.00  0.00     0.097 C 
ATOM     33  HN  UNK N   1      -1.580  -3.464   1.337  1.00  0.00     0.162 HD
BRANCH  31  34
HETATM   34  O   UNK N   1       0.950  -4.365  -0.423  0.00  0.00    -0.350 OA
HETATM   35  H   UNK N   1       1.272  -4.938  -1.091  0.00  0.00     0.219 HD
ENDBRANCH  31  34
ENDBRANCH  12  30
BRANCH  13  36
HETATM   36  O   UNK N   1      -3.260  -2.021  -0.802  0.00  0.00    -0.391 OA
HETATM   37  H   UNK N   1      -3.950  -1.594  -1.335  0.00  0.00     0.210 HD
ENDBRANCH  13  36
ENDBRANCH   7   8
ENDBRANCH   5   7
BRANCH   2  38
HETATM   38  N   UNK N   1      -5.867   2.547  -0.477  0.00  0.00    -0.363 N 
HETATM   39  C   UNK N   1      -6.483   1.424  -0.287  0.00  0.00     0.107 C 
HETATM   40  C   UNK N   1      -7.778   1.163  -0.974  0.00  0.00     0.097 C 
ATOM     41  HN  UNK N   1      -6.293   3.242  -1.089  1.00  0.00     0.162 HD
BRANCH  39  42
HETATM   42  O   UNK N   1      -5.987   0.486   0.548  0.00  0.00    -0.350 OA
HETATM   43  H   UNK N   1      -6.378  -0.137   1.128  0.00  0.00     0.219 HD
ENDBRANCH  39  42
ENDBRANCH   2  38
BRANCH   3  44
HETATM   44  O   UNK N   1      -5.406   5.189   0.085  0.00  0.00    -0.391 OA
HETATM   45  H   UNK N   1      -5.342   6.155   0.029  0.00  0.00     0.210 HD
ENDBRANCH   3  44
BRANCH   1  46
HETATM   46  C   UNK N   1      -1.509   3.484  -2.335  0.00  0.00     0.198 C 
BRANCH  46  47
HETATM   47  O   UNK N   1      -1.001   4.616  -2.970  0.00  0.00    -0.398 OA
HETATM   48  H   UNK N   1      -0.142   4.704  -3.412  0.00  0.00     0.209 HD
ENDBRANCH  46  47
ENDBRANCH   1  46
BRANCH   4  49
HETATM   49  O   UNK N   1      -2.788   6.244  -0.780  0.00  0.00    -0.348 OA
BRANCH  49  50
HETATM   50  C   UNK N   1      -1.582   6.507  -0.028  0.00  0.00     0.286 C 
HETATM   51  C   UNK N   1      -1.392   8.022   0.355  0.00  0.00     0.169 C 
HETATM   52  C   UNK N   1       0.073   8.474   0.081  0.00  0.00     0.177 C 
HETATM   53  C   UNK N   1       1.028   7.436   0.675  0.00  0.00     0.180 C 
HETATM   54  C   UNK N   1       0.753   6.074  -0.005  0.00  0.00     0.179 C 
HETATM   55  O   UNK N   1      -0.446   6.104  -0.783  0.00  0.00    -0.349 OA
BRANCH  51  56
HETATM   56  N   UNK N   1      -2.294   8.912  -0.352  0.00  0.00    -0.363 N 
HETATM   57  C   UNK N   1      -3.552   9.029  -0.083  0.00  0.00     0.107 C 
HETATM   58  C   UNK N   1      -4.201   8.253   1.025  0.00  0.00     0.097 C 
ATOM     59  HN  UNK N   1      -1.911   9.480  -1.108  1.00  0.00     0.162 HD
BRANCH  57  60
HETATM   60  O   UNK N   1      -4.299   9.889  -0.796  0.00  0.00    -0.350 OA
HETATM   61  H   UNK N   1      -4.041  10.640  -1.293  0.00  0.00     0.219 HD
ENDBRANCH  57  60
ENDBRANCH  51  56
BRANCH  52  62
HETATM   62  O   UNK N   1       0.310   9.733   0.638  0.00  0.00    -0.391 OA
HETATM   63  H   UNK N   1       1.149  10.028   1.024  0.00  0.00     0.210 HD
ENDBRANCH  52  62
BRANCH  53  64
HETATM   64  O   UNK N   1       2.363   7.807   0.478  0.00  0.00    -0.390 OA
HETATM   65  H   UNK N   1       3.048   7.134   0.341  0.00  0.00     0.210 HD
ENDBRANCH  53  64
BRANCH  54  66
HETATM   66  C   UNK N   1       0.794   4.906   0.996  0.00  0.00     0.198 C 
BRANCH  66  67
HETATM   67  O   UNK N   1       2.043   4.805   1.610  0.00  0.00    -0.398 OA
HETATM   68  H   UNK N   1       2.416   4.017   2.036  0.00  0.00     0.209 HD
ENDBRANCH  66  67
ENDBRANCH  54  66
ENDBRANCH  49  50
ENDBRANCH   4  49
TORSDOF 22
