REMARK  8 active torsions:
REMARK  status: ('A' for Active; 'I' for Inactive)
REMARK    1  A    between atoms: C_2  and  N_4 
REMARK    2  A    between atoms: N_4  and  C_5 
REMARK    3  A    between atoms: C_5  and  C_6 
REMARK    4  A    between atoms: C_9  and  C_10 
REMARK    5  A    between atoms: C_10  and  C_11 
REMARK    6  A    between atoms: C_11  and  N_12 
REMARK    7  A    between atoms: C_11  and  C_13 
REMARK    8  A    between atoms: C_13  and  O_14 
ROOT
HETATM    1  C   UNK N   1       0.577  -1.159   0.146  0.00  0.00    -0.041 A 
HETATM    2  C   UNK N   1      -0.312  -0.366   0.872  0.00  0.00     0.009 A 
HETATM    3  C   UNK N   1      -0.161   1.020   0.885  0.00  0.00     0.008 A 
HETATM    4  C   UNK N   1       0.878   1.622   0.167  0.00  0.00    -0.056 A 
HETATM    5  C   UNK N   1       1.783   0.831  -0.550  0.00  0.00     0.008 A 
HETATM    6  C   UNK N   1       1.631  -0.562  -0.562  0.00  0.00     0.009 A 
ENDROOT
BRANCH   4   7
HETATM    7  C   UNK N   1       0.972   3.113   0.141  0.00  0.00     0.074 C 
BRANCH   7   8
HETATM    8  C   UNK N   1       0.033   3.757  -0.894  0.00  0.00     0.177 C 
BRANCH   8   9
HETATM    9  N   UNK N   1      -1.218   3.020  -1.028  0.00  0.00    -0.417 N 
HETATM   10  H   UNK N   1      -2.102   3.520  -1.122  0.00  0.00     0.150 HD
HETATM   11  H   UNK N   1      -1.209   2.000  -1.028  0.00  0.00     0.150 HD
ENDBRANCH   8   9
BRANCH   8  12
HETATM   12  C   UNK N   1      -0.256   5.177  -0.502  0.00  0.00     0.163 C 
HETATM   13  O   UNK N   1       0.656   5.983  -0.411  0.00  0.00    -0.648 OA
BRANCH  12  14
HETATM   14  O   UNK N   1      -1.520   5.572  -0.248  0.00  0.00    -0.775 OA
HETATM   15  H   UNK N   1      -1.721   6.470  -0.071  0.00  0.00     0.167 HD
ENDBRANCH  12  14
ENDBRANCH   8  12
ENDBRANCH   7   8
ENDBRANCH   4   7
BRANCH   1  16
HETATM   16  C   UNK N   1       0.358  -2.630   0.092  0.00  0.00     0.153 C 
BRANCH  16  17
HETATM   17  N   UNK N   1       1.485  -3.339   0.675  0.00  0.00    -0.414 N 
HETATM   18  H   UNK N   1       1.871  -3.195   1.608  0.00  0.00     0.153 HD
BRANCH  17  19
HETATM   19  C   UNK N   1       1.961  -4.292  -0.316  0.00  0.00     0.068 C 
HETATM   20  C   UNK N   1       3.381  -4.692   0.021  0.00  0.00     0.031 C 
HETATM   21  C   UNK N   1       1.084  -5.532  -0.323  0.00  0.00     0.031 C 
ENDBRANCH  17  19
ENDBRANCH  16  17
ENDBRANCH   1  16
TORSDOF 8
