REMARK  8 active torsions:
REMARK  status: ('A' for Active; 'I' for Inactive)
REMARK    1  A    between atoms: C_2  and  N_1 
REMARK    2  A    between atoms: C_2  and  C_3 
REMARK    3  A    between atoms: C_2  and  C_14 
REMARK    4  A    between atoms: C_3  and  C_4 
REMARK    5  A    between atoms: C_4  and  C_5 
REMARK    6  A    between atoms: C_5  and  N_6 
REMARK       I    between atoms: N_6  and  C_7 
REMARK       I    between atoms: C_7  and  N_10 
REMARK    7  A    between atoms: N_10  and  N_11 
REMARK    8  A    between atoms: C_14  and  O_15 
ROOT
HETATM    1  C   UNK N   1       7.909   4.297  -0.414  0.00  0.00     0.138 C 
ENDROOT
BRANCH   1   2
HETATM    2  C   UNK N   1       8.634   3.258   0.436  0.00  0.00     0.023 C 
BRANCH   2   3
HETATM    3  C   UNK N   1      10.002   3.766   0.859  0.00  0.00     0.037 C 
BRANCH   3   4
HETATM    4  C   UNK N   1      11.034   3.667  -0.257  0.00  0.00     0.173 C 
BRANCH   4   5
HETATM    5  N   UNK N   1      11.855   4.866  -0.234  0.00  0.00    -0.418 N 
HETATM    6  H   UNK N   1      12.872   4.788  -0.217  0.00  0.00     0.150 HD
HETATM    7  H   UNK N   1      11.414   5.786  -0.234  0.00  0.00     0.150 HD
ENDBRANCH   4   5
BRANCH   4   8
HETATM    8  C   UNK N   1      11.895   2.442  -0.087  0.00  0.00     0.163 C 
HETATM    9  O   UNK N   1      11.394   1.331  -0.147  0.00  0.00    -0.648 OA
BRANCH   8  10
HETATM   10  O   UNK N   1      13.223   2.562   0.118  0.00  0.00    -0.775 OA
HETATM   11  H   UNK N   1      13.756   1.804   0.261  0.00  0.00     0.167 HD
ENDBRANCH   8  10
ENDBRANCH   4   8
ENDBRANCH   3   4
ENDBRANCH   2   3
ENDBRANCH   1   2
BRANCH   1  12
HETATM   12  N   UNK N   1       6.508   4.407  -0.057  0.00  0.00    -0.225 N 
HETATM   13  C   UNK N   1       5.601   3.310  -0.084  0.00  0.00     0.691 C 
HETATM   14  N   UNK N   1       6.037   2.116  -0.267  0.00  0.00    -0.233 N 
HETATM   15  N   UNK N   1       4.202   3.563   0.046  0.00  0.00    -0.072 N 
HETATM   16  H   UNK N   1       5.411   1.369  -0.408  0.00  0.00     0.174 HD
ATOM     17  HN  UNK N   1       7.041   1.940  -0.267  1.00  0.00     0.174 HD
HETATM   18  H   UNK N   1       3.909   4.496   0.154  0.00  0.00     0.212 HD
HETATM   19  H   UNK N   1       6.166   5.287   0.220  0.00  0.00     0.177 HD
BRANCH  15  20
HETATM   20  N   UNK N   1       3.233   2.578   0.028  0.00  0.00    -0.024 N 
HETATM   21  O   UNK N   1       1.964   2.917   0.068  0.00  0.00    -0.516 OA
HETATM   22  O   UNK N   1       3.530   1.421  -0.009  0.00  0.00    -0.516 OA
ENDBRANCH  15  20
ENDBRANCH   1  12
TORSDOF 8
