REMARK  5 active torsions:
REMARK  status: ('A' for Active; 'I' for Inactive)
REMARK    1  A    between atoms: C_2  and  N_1 
REMARK    2  A    between atoms: C_2  and  C_3 
REMARK    3  A    between atoms: C_2  and  C_6 
REMARK    4  A    between atoms: C_3  and  O_4 
REMARK    5  A    between atoms: C_9  and  O_10 
ROOT
HETATM    1  C   UNK N   1       0.512  -0.422  -0.000  0.00  0.00    -0.026 A 
HETATM    2  C   UNK N   1      -0.744   0.204   0.000  0.00  0.00     0.012 A 
HETATM    3  C   UNK N   1      -0.833   1.602   0.000  0.00  0.00     0.037 A 
HETATM    4  C   UNK N   1       0.332   2.377   0.000  0.00  0.00     0.065 A 
HETATM    5  C   UNK N   1       1.582   1.759  -0.000  0.00  0.00     0.037 A 
HETATM    6  C   UNK N   1       1.670   0.367  -0.000  0.00  0.00     0.012 A 
ENDROOT
BRANCH   1   7
HETATM    7  C   UNK N   1       0.621  -1.926  -0.000  0.00  0.00     0.207 C 
BRANCH   7   8
HETATM    8  N   UNK N   1      -0.608  -2.706   0.000  0.00  0.00    -0.414 N 
HETATM    9  H   UNK N   1      -1.512  -2.234   0.000  0.00  0.00     0.151 HD
HETATM   10  H   UNK N   1      -0.566  -3.725   0.000  0.00  0.00     0.151 HD
ENDBRANCH   7   8
BRANCH   7  11
HETATM   11  C   UNK N   1       1.922  -2.686  -0.000  0.00  0.00     0.167 C 
HETATM   12  O   UNK N   1       2.988  -2.094  -0.000  0.00  0.00    -0.648 OA
BRANCH  11  13
HETATM   13  O   UNK N   1       1.915  -4.033  -0.000  0.00  0.00    -0.775 OA
HETATM   14  H   UNK N   1       1.101  -4.497  -0.000  0.00  0.00     0.167 HD
ENDBRANCH  11  13
ENDBRANCH   7  11
ENDBRANCH   1   7
BRANCH   4  15
HETATM   15  O   UNK N   1       0.250   3.717   0.000  0.00  0.00    -0.361 OA
HETATM   16  H   UNK N   1       1.031   4.234   0.000  0.00  0.00     0.217 HD
ENDBRANCH   4  15
TORSDOF 5
