REMARK  7 active torsions:
REMARK  status: ('A' for Active; 'I' for Inactive)
REMARK       I    between atoms: C_2  and  N_4 
REMARK    1  A    between atoms: C_5  and  N_4 
REMARK    2  A    between atoms: C_5  and  C_6 
REMARK    3  A    between atoms: C_5  and  C_11 
REMARK    4  A    between atoms: C_6  and  C_7 
REMARK    5  A    between atoms: C_7  and  C_8 
REMARK    6  A    between atoms: C_8  and  O_9 
REMARK    7  A    between atoms: C_11  and  O_12 
ROOT
HETATM    1  C   UNK N   1       2.999   1.759  -0.000  0.00  0.00     0.182 C 
ENDROOT
BRANCH   1   2
HETATM    2  N   UNK N   1       1.834   0.872  -0.000  0.00  0.00    -0.347 N 
HETATM    3  C   UNK N   1       0.500   1.138  -0.000  0.00  0.00     0.214 C 
HETATM    4  C   UNK N   1      -0.464   0.004   0.000  0.00  0.00     0.117 C 
HETATM    5  O   UNK N   1       0.064   2.275  -0.000  0.00  0.00    -0.274 OA
HETATM    6  H   UNK N   1       2.056  -0.087   0.000  0.00  0.00     0.163 HD
ENDBRANCH   1   2
BRANCH   1   7
HETATM    7  C   UNK N   1       4.328   0.978   0.000  0.00  0.00     0.046 C 
BRANCH   7   8
HETATM    8  C   UNK N   1       5.579   1.852  -0.000  0.00  0.00     0.112 C 
BRANCH   8   9
HETATM    9  C   UNK N   1       6.874   1.102  -0.000  0.00  0.00     0.139 C 
HETATM   10  O   UNK N   1       6.899  -0.119   0.000  0.00  0.00    -0.650 OA
BRANCH   9  11
HETATM   11  O   UNK N   1       8.028   1.794  -0.000  0.00  0.00    -0.776 OA
HETATM   12  H   UNK N   1       8.847   1.338  -0.000  0.00  0.00     0.167 HD
ENDBRANCH   9  11
ENDBRANCH   8   9
ENDBRANCH   7   8
ENDBRANCH   1   7
BRANCH   1  13
HETATM   13  C   UNK N   1       2.930   3.293   0.000  0.00  0.00     0.163 C 
HETATM   14  O   UNK N   1       1.869   3.884   0.000  0.00  0.00    -0.648 OA
BRANCH  13  15
HETATM   15  O   UNK N   1       4.060   4.024   0.000  0.00  0.00    -0.775 OA
HETATM   16  H   UNK N   1       4.894   3.597   0.000  0.00  0.00     0.167 HD
ENDBRANCH  13  15
ENDBRANCH   1  13
TORSDOF 7
