REMARK  10 active torsions:
REMARK  status: ('A' for Active; 'I' for Inactive)
REMARK    1  A    between atoms: N_1  and  C_2 
REMARK    2  A    between atoms: C_2  and  C_3 
REMARK    3  A    between atoms: C_2  and  C_6 
REMARK    4  A    between atoms: C_2  and  C_9 
REMARK    5  A    between atoms: C_3  and  C_4 
REMARK    6  A    between atoms: C_4  and  O_5 
REMARK    7  A    between atoms: C_6  and  C_7 
REMARK    8  A    between atoms: C_7  and  O_8 
REMARK    9  A    between atoms: C_9  and  C_10 
REMARK   10  A    between atoms: C_10  and  O_11 
ROOT
HETATM    1  C   UNK N   1      -0.207  -2.271   0.398  0.00  0.00     0.029 C 
ENDROOT
BRANCH   1   2
HETATM    2  N   UNK N   1      -0.644  -3.235   1.393  0.00  0.00    -0.421 N 
HETATM    3  H   UNK N   1      -1.383  -3.308   2.091  0.00  0.00     0.150 HD
HETATM    4  H   UNK N   1      -0.049  -4.064   1.393  0.00  0.00     0.150 HD
ENDBRANCH   1   2
BRANCH   1   5
HETATM    5  C   UNK N   1       0.036  -3.002  -0.937  0.00  0.00     0.056 C 
BRANCH   5   6
HETATM    6  C   UNK N   1       0.814  -4.315  -0.812  0.00  0.00     0.166 C 
BRANCH   6   7
HETATM    7  O   UNK N   1       2.064  -4.113  -0.227  0.00  0.00    -0.401 OA
HETATM    8  H   UNK N   1       2.620  -4.796   0.180  0.00  0.00     0.209 HD
ENDBRANCH   6   7
ENDBRANCH   5   6
ENDBRANCH   1   5
BRANCH   1   9
HETATM    9  C   UNK N   1      -1.346  -1.252   0.247  0.00  0.00     0.056 C 
BRANCH   9  10
HETATM   10  C   UNK N   1      -1.136  -0.200  -0.831  0.00  0.00     0.166 C 
BRANCH  10  11
HETATM   11  O   UNK N   1      -2.106   0.792  -0.700  0.00  0.00    -0.401 OA
HETATM   12  H   UNK N   1      -1.845   1.722  -0.610  0.00  0.00     0.209 HD
ENDBRANCH  10  11
ENDBRANCH   9  10
ENDBRANCH   1   9
BRANCH   1  13
HETATM   13  C   UNK N   1       1.072  -1.598   0.927  0.00  0.00     0.056 C 
BRANCH  13  14
HETATM   14  C   UNK N   1       1.711  -0.616  -0.047  0.00  0.00     0.166 C 
BRANCH  14  15
HETATM   15  O   UNK N   1       2.748   0.064   0.588  0.00  0.00    -0.401 OA
HETATM   16  H   UNK N   1       3.519  -0.325   1.030  0.00  0.00     0.209 HD
ENDBRANCH  14  15
ENDBRANCH  13  14
ENDBRANCH   1  13
TORSDOF 10
