REMARK  6 active torsions:
REMARK  status: ('A' for Active; 'I' for Inactive)
REMARK    1  A    between atoms: C_3  and  C_2 
REMARK    2  A    between atoms: C_4  and  C_2 
REMARK    3  A    between atoms: C_5  and  C_3 
REMARK    4  A    between atoms: C_6  and  C_5 
REMARK    5  A    between atoms: C_5  and  N_7 
REMARK    6  A    between atoms: O_10  and  C_6 
ROOT
HETATM    1  C   UNK N   1       0.285  -0.947  -0.000  0.00  0.00     0.173 C 
ENDROOT
BRANCH   1   2
HETATM    2  C   UNK N   1       1.808  -0.667   0.001  0.00  0.00     0.043 C 
BRANCH   2   3
HETATM    3  C   UNK N   1       2.378   0.758  -0.000  0.00  0.00     0.080 C 
BRANCH   3   4
HETATM    4  C   UNK N   1       3.886   0.747  -0.000  0.00  0.00     0.123 C 
HETATM    5  C   UNK N   1       4.666  -0.532   0.000  0.00  0.00     0.091 C 
HETATM    6  O   UNK N   1       4.491   1.806  -0.000  0.00  0.00    -0.298 OA
ENDBRANCH   3   4
ENDBRANCH   2   3
ENDBRANCH   1   2
BRANCH   1   7
HETATM    7  C   UNK N   1      -0.654   0.245  -0.000  0.00  0.00     0.163 C 
HETATM    8  O   UNK N   1      -1.866   0.046   0.000  0.00  0.00    -0.648 OA
BRANCH   7   9
HETATM    9  O   UNK N   1      -0.210   1.511   0.000  0.00  0.00    -0.775 OA
HETATM   10  H   UNK N   1       0.711   1.685   0.000  0.00  0.00     0.167 HD
ENDBRANCH   7   9
ENDBRANCH   1   7
BRANCH   1  11
HETATM   11  N   UNK N   1      -0.402  -2.226   0.000  0.00  0.00    -0.418 N 
HETATM   12  H   UNK N   1      -1.421  -2.257   0.001  0.00  0.00     0.150 HD
HETATM   13  H   UNK N   1       0.135  -3.093   0.000  0.00  0.00     0.150 HD
ENDBRANCH   1  11
TORSDOF 6
