REMARK  9 active torsions:
REMARK  status: ('A' for Active; 'I' for Inactive)
REMARK    1  A    between atoms: N_2  and  C_3 
REMARK       I    between atoms: N_2  and  C_21 
REMARK       I    between atoms: N_6  and  C_9 
REMARK    2  A    between atoms: C_9  and  C_11 
REMARK    3  A    between atoms: C_21  and  C_23 
REMARK    4  A    between atoms: C_32  and  C_33 
REMARK    5  A    between atoms: C_33  and  C_35 
REMARK    6  A    between atoms: C_35  and  C_36 
REMARK    7  A    between atoms: C_35  and  P_46 
REMARK    8  A    between atoms: P_46  and  O_47 
REMARK    9  A    between atoms: P_46  and  O_48 
ROOT
HETATM    1  C   UNK N   1       3.162  -4.197  -0.171  0.00  0.00     0.046 A 
HETATM    2  C   UNK N   1       3.170  -5.587  -0.397  0.00  0.00     0.030 A 
HETATM    3  C   UNK N   1       1.979  -6.302  -0.566  0.00  0.00    -0.025 A 
HETATM    4  C   UNK N   1       2.001  -7.645  -0.936  0.00  0.00     0.012 A 
HETATM    5  C   UNK N   1       0.802  -8.340  -1.132  0.00  0.00     0.001 A 
HETATM    6  C   UNK N   1      -0.424  -7.706  -0.923  0.00  0.00     0.001 A 
HETATM    7  C   UNK N   1      -0.453  -6.358  -0.568  0.00  0.00     0.012 A 
HETATM    8  C   UNK N   1       0.744  -5.655  -0.407  0.00  0.00    -0.025 A 
HETATM    9  C   UNK N   1       0.711  -4.293  -0.190  0.00  0.00     0.028 A 
HETATM   10  C   UNK N   1       1.878  -3.538  -0.128  0.00  0.00     0.028 A 
ENDROOT
BRANCH   1  11
HETATM   11  C   UNK N   1       4.477  -3.429   0.021  0.00  0.00     0.254 C 
HETATM   12  N   UNK N   1       5.723  -4.012   0.088  0.00  0.00    -0.347 N 
HETATM   13  C   UNK N   1       6.875  -3.168   0.347  0.00  0.00     0.153 C 
HETATM   14  O   UNK N   1       4.417  -2.228   0.201  0.00  0.00    -0.267 OA
BRANCH  12  15
HETATM   15  C   UNK N   1       5.923  -5.439   0.075  0.00  0.00     0.090 C 
HETATM   16  C   UNK N   1       7.121  -5.862  -0.812  0.00  0.00     0.045 C 
HETATM   17  C   UNK N   1       7.539  -7.328  -0.561  0.00  0.00     0.128 C 
HETATM   18  N   UNK N   1       6.504  -7.983   0.206  0.00  0.00    -0.348 N 
HETATM   19  C   UNK N   1       6.240  -7.461   1.536  0.00  0.00     0.128 C 
HETATM   20  C   UNK N   1       5.723  -8.938  -0.387  0.00  0.00     0.253 C 
HETATM   21  C   UNK N   1       6.114  -5.939   1.507  0.00  0.00     0.045 C 
HETATM   22  O   UNK N   1       6.039  -9.345  -1.503  0.00  0.00    -0.267 OA
BRANCH  20  23
HETATM   23  C   UNK N   1       4.448  -9.454   0.202  0.00  0.00     0.033 A 
HETATM   24  C   UNK N   1       3.714 -10.406  -0.521  0.00  0.00     0.029 A 
HETATM   25  C   UNK N   1       2.444 -10.800  -0.099  0.00  0.00    -0.025 A 
HETATM   26  C   UNK N   1       1.707 -11.711  -0.857  0.00  0.00     0.012 A 
HETATM   27  C   UNK N   1       1.882 -10.233   1.067  0.00  0.00    -0.026 A 
HETATM   28  C   UNK N   1       0.410 -12.055  -0.465  0.00  0.00     0.001 A 
HETATM   29  C   UNK N   1      -0.152 -11.487   0.684  0.00  0.00     0.001 A 
HETATM   30  C   UNK N   1       0.585 -10.580   1.453  0.00  0.00     0.012 A 
HETATM   31  C   UNK N   1       2.613  -9.304   1.808  0.00  0.00     0.013 A 
HETATM   32  C   UNK N   1       3.884  -8.915   1.375  0.00  0.00     0.018 A 
ENDBRANCH  20  23
ENDBRANCH  12  15
ENDBRANCH   1  11
BRANCH  10  33
HETATM   33  C   UNK N   1       1.728  -2.068  -0.273  0.00  0.00     0.180 C 
HETATM   34  O   UNK N   1       2.445  -1.543  -1.113  0.00  0.00    -0.291 OA
BRANCH  33  35
HETATM   35  C   UNK N   1       0.679  -1.186   0.435  0.00  0.00     0.205 C 
BRANCH  35  36
HETATM   36  C   UNK N   1       0.920   0.286   0.033  0.00  0.00    -0.024 A 
HETATM   37  C   UNK N   1      -0.092   1.013  -0.620  0.00  0.00     0.009 A 
HETATM   38  C   UNK N   1       0.130   2.303  -1.095  0.00  0.00     0.002 A 
HETATM   39  C   UNK N   1       1.387   2.889  -0.969  0.00  0.00     0.012 A 
HETATM   40  C   UNK N   1       2.416   2.204  -0.326  0.00  0.00    -0.025 A 
HETATM   41  C   UNK N   1       3.683   2.788  -0.243  0.00  0.00     0.012 A 
HETATM   42  C   UNK N   1       2.188   0.912   0.210  0.00  0.00    -0.018 A 
HETATM   43  C   UNK N   1       4.732   2.107   0.378  0.00  0.00     0.001 A 
HETATM   44  C   UNK N   1       4.512   0.850   0.941  0.00  0.00     0.001 A 
HETATM   45  C   UNK N   1       3.249   0.259   0.860  0.00  0.00     0.013 A 
ENDBRANCH  35  36
BRANCH  35  46
HETATM   46  P   UNK N   1      -1.107  -1.723   0.055  0.00  0.00     0.252 P 
HETATM   47  O   UNK N   1      -1.309  -1.779  -1.484  0.00  0.00    -0.653 OA
BRANCH  46  48
HETATM   48  O   UNK N   1      -2.314  -0.584   0.560  0.00  0.00    -0.328 OA
HETATM   49  H   UNK N   1      -2.100   0.319   0.842  0.00  0.00     0.220 HD
ENDBRANCH  46  48
BRANCH  46  50
HETATM   50  O   UNK N   1      -1.681  -3.266   0.607  0.00  0.00    -0.328 OA
HETATM   51  H   UNK N   1      -2.587  -3.419   0.916  0.00  0.00     0.220 HD
ENDBRANCH  46  50
ENDBRANCH  35  46
ENDBRANCH  33  35
ENDBRANCH  10  33
TORSDOF 9
