REMARK  2 active torsions:
REMARK  status: ('A' for Active; 'I' for Inactive)
REMARK    1  A    between atoms: O_1  and  C_2 
REMARK    2  A    between atoms: C_9  and  C_13 
ROOT
HETATM    1  C   UNK N   1      -0.956  -1.471  -0.000  0.00  0.00     0.068 A 
HETATM    2  C   UNK N   1      -1.125  -0.084  -0.001  0.00  0.00     0.037 A 
HETATM    3  C   UNK N   1      -0.009   0.758  -0.001  0.00  0.00     0.021 A 
HETATM    4  C   UNK N   1       1.283   0.214  -0.000  0.00  0.00     0.043 A 
HETATM    5  C   UNK N   1       2.467   1.093   0.000  0.00  0.00     0.165 A 
HETATM    6  O   UNK N   1       2.336   2.306  -0.000  0.00  0.00    -0.292 OA
HETATM    7  C   UNK N   1       3.846   0.512   0.001  0.00  0.00     0.121 A 
HETATM    8  C   UNK N   1       3.855  -1.020   0.002  0.00  0.00     0.169 A 
HETATM    9  O   UNK N   1       2.676  -1.741   0.001  0.00  0.00    -0.340 OA
HETATM   10  C   UNK N   1       1.448  -1.183   0.000  0.00  0.00     0.086 A 
HETATM   11  C   UNK N   1       0.328  -2.017   0.000  0.00  0.00     0.074 A 
ENDROOT
BRANCH   8  12
HETATM   12  C   UNK N   1       5.128  -1.797   0.001  0.00  0.00    -0.029 A 
HETATM   13  C   UNK N   1       6.360  -1.131   0.000  0.00  0.00     0.010 A 
HETATM   14  C   UNK N   1       7.550  -1.860  -0.001  0.00  0.00     0.001 A 
HETATM   15  C   UNK N   1       7.514  -3.257  -0.001  0.00  0.00     0.000 A 
HETATM   16  C   UNK N   1       6.287  -3.926  -0.001  0.00  0.00     0.001 A 
HETATM   17  C   UNK N   1       5.096  -3.198   0.001  0.00  0.00     0.010 A 
ENDBRANCH   8  12
BRANCH   1  18
HETATM   18  O   UNK N   1      -2.027  -2.280  -0.001  0.00  0.00    -0.361 OA
HETATM   19  H   UNK N   1      -2.889  -1.914  -0.001  0.00  0.00     0.217 HD
ENDBRANCH   1  18
TORSDOF 2
