REMARK  9 active torsions:
REMARK  status: ('A' for Active; 'I' for Inactive)
REMARK    1  A    between atoms: O_1  and  C_2 
REMARK    2  A    between atoms: C_2  and  C_4 
REMARK    3  A    between atoms: C_4  and  C_5 
REMARK    4  A    between atoms: C_5  and  C_6 
REMARK    5  A    between atoms: C_6  and  C_7 
REMARK    6  A    between atoms: C_7  and  C_8 
REMARK    7  A    between atoms: C_8  and  C_9 
REMARK    8  A    between atoms: C_9  and  C_10 
REMARK    9  A    between atoms: C_12  and  C_11 
ROOT
HETATM    1  C   UNK N   1       4.099   2.740  -0.850  0.00  0.00     0.286 C 
HETATM    2  O   UNK N   1       4.628   3.274   0.319  0.00  0.00    -0.212 OA
HETATM    3 Fe   UNK N   1       6.396   3.617  -0.261  0.00  0.00     0.000 Fe
HETATM    4  O   UNK N   1       6.190   2.275  -1.623  0.00  0.00    -0.117 OA
HETATM    5  N   UNK N   1       5.015   1.689  -1.276  0.00  0.00    -0.127 NA
HETATM    6  C   UNK N   1       4.457   0.942  -2.391  0.00  0.00     0.127 C 
HETATM    7  C   UNK N   1       3.898  -0.374  -1.866  0.00  0.00     0.017 C 
HETATM    8  C   UNK N   1       2.372  -0.484  -1.937  0.00  0.00     0.004 C 
HETATM    9  C   UNK N   1       1.631   0.363  -0.898  0.00  0.00     0.035 C 
HETATM   10  C   UNK N   1       1.511  -0.232   0.508  0.00  0.00     0.184 C 
HETATM   11  N   UNK N   1       2.814  -0.357   1.105  0.00  0.00    -0.345 N 
HETATM   12  C   UNK N   1       3.601  -1.447   0.938  0.00  0.00     0.243 C 
HETATM   13  O   UNK N   1       3.205  -2.418   0.304  0.00  0.00    -0.271 OA
HETATM   14  C   UNK N   1       4.985  -1.404   1.498  0.00  0.00     0.196 C 
HETATM   15  C   UNK N   1       5.885  -2.547   1.135  0.00  0.00     0.205 C 
HETATM   16  O   UNK N   1       7.192  -2.041   1.261  0.00  0.00    -0.360 OA
HETATM   17  C   UNK N   1       7.051  -0.632   1.372  0.00  0.00     0.254 C 
HETATM   18  N   UNK N   1       5.699  -0.263   0.999  0.00  0.00    -0.379 N 
HETATM   19  C   UNK N   1       8.083   0.111   0.557  0.00  0.00     0.026 A 
HETATM   20  C   UNK N   1       9.100  -0.618  -0.084  0.00  0.00     0.014 A 
HETATM   21  C   UNK N   1      10.073   0.028  -0.848  0.00  0.00     0.001 A 
HETATM   22  C   UNK N   1      10.041   1.413  -0.991  0.00  0.00     0.003 A 
HETATM   23  C   UNK N   1       9.029   2.151  -0.380  0.00  0.00     0.040 A 
HETATM   24  C   UNK N   1       8.054   1.521   0.401  0.00  0.00     0.117 A 
HETATM   25  O   UNK N   1       7.072   2.288   0.919  0.00  0.00    -0.191 OA
HETATM   26  C   UNK N   1       0.624   0.629   1.392  0.00  0.00     0.281 C 
HETATM   27  O   UNK N   1      -0.349   0.108   1.913  0.00  0.00    -0.263 OA
HETATM   28  O   UNK N   1       0.871   1.951   1.643  0.00  0.00    -0.319 OA
HETATM   29  C   UNK N   1       1.883   2.670   1.045  0.00  0.00     0.188 C 
HETATM   30  C   UNK N   1       1.966   4.113   1.560  0.00  0.00     0.129 C 
HETATM   31  C   UNK N   1       1.750   5.121   0.453  0.00  0.00     0.220 C 
HETATM   32  O   UNK N   1       0.684   5.119  -0.139  0.00  0.00    -0.274 OA
HETATM   33  N   UNK N   1       2.678   6.063   0.124  0.00  0.00    -0.348 N 
HETATM   34  C   UNK N   1       3.969   6.220   0.763  0.00  0.00     0.179 C 
HETATM   35  C   UNK N   1       4.036   7.618   1.443  0.00  0.00     0.035 C 
HETATM   36  C   UNK N   1       5.445   8.071   1.956  0.00  0.00     0.004 C 
HETATM   37  C   UNK N   1       6.515   8.407   0.866  0.00  0.00     0.022 C 
HETATM   38  C   UNK N   1       7.230   7.165   0.248  0.00  0.00     0.163 C 
HETATM   39  N   UNK N   1       6.306   6.064   0.239  0.00  0.00    -0.190 N 
HETATM   40  O   UNK N   1       6.525   5.008   1.047  0.00  0.00    -0.083 OA
HETATM   41  C   UNK N   1       5.062   6.292  -0.245  0.00  0.00     0.268 C 
HETATM   42  O   UNK N   1       4.918   7.071  -1.186  0.00  0.00    -0.269 OA
HETATM   43  H   UNK N   1       3.149   0.383   1.661  0.00  0.00     0.163 HD
HETATM   44  H   UNK N   1       5.355   0.568   0.520  0.00  0.00     0.157 HD
HETATM   45  H   UNK N   1       2.454   6.686  -0.604  0.00  0.00     0.163 HD
ENDROOT
BRANCH   1  46
HETATM   46  C   UNK N   1       3.980   3.853  -1.866  0.00  0.00     0.021 C 
HETATM   47  C   UNK N   1       3.064   3.917  -2.841  0.00  0.00    -0.027 C 
BRANCH  47  48
HETATM   48  C   UNK N   1       2.009   2.884  -3.085  0.00  0.00     0.027 C 
BRANCH  48  49
HETATM   49  C   UNK N   1       0.884   3.024  -2.084  0.00  0.00     0.004 C 
BRANCH  49  50
HETATM   50  C   UNK N   1      -0.337   2.254  -2.552  0.00  0.00     0.000 C 
BRANCH  50  51
HETATM   51  C   UNK N   1      -1.154   1.762  -1.366  0.00  0.00     0.001 C 
BRANCH  51  52
HETATM   52  C   UNK N   1      -1.758   2.913  -0.588  0.00  0.00     0.010 C 
BRANCH  52  53
HETATM   53  C   UNK N   1      -2.586   2.357   0.554  0.00  0.00     0.110 C 
BRANCH  53  54
HETATM   54  C   UNK N   1      -3.570   3.377   1.017  0.00  0.00     0.139 C 
HETATM   55  O   UNK N   1      -3.188   4.421   1.519  0.00  0.00    -0.650 OA
BRANCH  54  56
HETATM   56  O   UNK N   1      -4.888   3.139   0.882  0.00  0.00    -0.776 OA
HETATM   57  H   UNK N   1      -5.490   3.851   0.787  0.00  0.00     0.167 HD
ENDBRANCH  54  56
ENDBRANCH  53  54
ENDBRANCH  52  53
ENDBRANCH  51  52
ENDBRANCH  50  51
ENDBRANCH  49  50
ENDBRANCH  48  49
ENDBRANCH  47  48
ENDBRANCH   1  46
TORSDOF 9
