REMARK  18 active torsions:
REMARK  status: ('A' for Active; 'I' for Inactive)
REMARK    1  A    between atoms: C_2  and  C_3 
REMARK    2  A    between atoms: C_3  and  C_4 
REMARK    3  A    between atoms: C_4  and  C_5 
REMARK    4  A    between atoms: C_5  and  C_6 
REMARK    5  A    between atoms: C_6  and  C_7 
REMARK    6  A    between atoms: C_7  and  C_8 
REMARK    7  A    between atoms: C_8  and  C_9 
REMARK    8  A    between atoms: C_9  and  C_10 
REMARK    9  A    between atoms: C_10  and  N_11 
REMARK   10  A    between atoms: N_11  and  C_14 
REMARK   11  A    between atoms: C_14  and  C_15 
REMARK   12  A    between atoms: C_15  and  C_16 
REMARK   13  A    between atoms: C_16  and  C_17 
REMARK   14  A    between atoms: C_17  and  C_18 
REMARK   15  A    between atoms: C_18  and  C_19 
REMARK   16  A    between atoms: C_19  and  C_20 
REMARK   17  A    between atoms: C_20  and  C_21 
REMARK   18  A    between atoms: C_21  and  C_22 
ROOT
HETATM    1  N   UNK N   1      17.979   5.721  -0.149  0.00  0.00    -0.075 N 
HETATM    2  C   UNK N   1      17.022   4.985  -0.967  0.00  0.00     0.272 C 
HETATM    3  C   UNK N   1      18.914   6.442  -1.005  0.00  0.00     0.272 C 
ENDROOT
BRANCH   1   4
HETATM    4  C   UNK N   1      17.271   6.666   0.723  0.00  0.00     0.236 C 
BRANCH   4   5
HETATM    5  C   UNK N   1      16.444   7.692  -0.060  0.00  0.00     0.028 C 
BRANCH   5   6
HETATM    6  C   UNK N   1      15.039   7.806   0.504  0.00  0.00     0.002 C 
BRANCH   6   7
HETATM    7  C   UNK N   1      14.263   6.525   0.259  0.00  0.00     0.000 C 
BRANCH   7   8
HETATM    8  C   UNK N   1      12.794   6.842   0.104  0.00  0.00     0.000 C 
BRANCH   8   9
HETATM    9  C   UNK N   1      12.009   5.551   0.021  0.00  0.00     0.000 C 
BRANCH   9  10
HETATM   10  C   UNK N   1      10.563   5.867  -0.291  0.00  0.00     0.000 C 
BRANCH  10  11
HETATM   11  C   UNK N   1       9.712   4.646  -0.015  0.00  0.00    -0.000 C 
BRANCH  11  12
HETATM   12  C   UNK N   1       8.256   4.994  -0.234  0.00  0.00    -0.005 C 
HETATM   13  C   UNK N   1       7.388   3.843   0.227  0.00  0.00     0.005 C 
ENDBRANCH  11  12
ENDBRANCH  10  11
ENDBRANCH   9  10
ENDBRANCH   8   9
ENDBRANCH   7   8
ENDBRANCH   6   7
ENDBRANCH   5   6
ENDBRANCH   4   5
ENDBRANCH   1   4
BRANCH   1  14
HETATM   14  C   UNK N   1      18.711   4.793   0.721  0.00  0.00     0.236 C 
BRANCH  14  15
HETATM   15  C   UNK N   1      19.503   3.742  -0.065  0.00  0.00     0.028 C 
BRANCH  15  16
HETATM   16  C   UNK N   1      20.926   3.631   0.452  0.00  0.00     0.002 C 
BRANCH  16  17
HETATM   17  C   UNK N   1      21.710   4.890   0.128  0.00  0.00     0.000 C 
BRANCH  17  18
HETATM   18  C   UNK N   1      23.190   4.582   0.154  0.00  0.00     0.000 C 
BRANCH  18  19
HETATM   19  C   UNK N   1      23.975   5.865  -0.011  0.00  0.00     0.000 C 
BRANCH  19  20
HETATM   20  C   UNK N   1      25.436   5.529  -0.212  0.00  0.00     0.000 C 
BRANCH  20  21
HETATM   21  C   UNK N   1      26.269   6.780  -0.038  0.00  0.00    -0.000 C 
BRANCH  21  22
HETATM   22  C   UNK N   1      27.734   6.430  -0.184  0.00  0.00    -0.005 C 
HETATM   23  C   UNK N   1      28.578   7.627   0.197  0.00  0.00     0.005 C 
ENDBRANCH  21  22
ENDBRANCH  20  21
ENDBRANCH  19  20
ENDBRANCH  18  19
ENDBRANCH  17  18
ENDBRANCH  16  17
ENDBRANCH  15  16
ENDBRANCH  14  15
ENDBRANCH   1  14
TORSDOF 18
