REMARK  12 active torsions:
REMARK  status: ('A' for Active; 'I' for Inactive)
REMARK    1  A    between atoms: O_2  and  C_3 
REMARK    2  A    between atoms: C_3  and  C_4 
REMARK    3  A    between atoms: C_4  and  O_5 
REMARK    4  A    between atoms: O_5  and  C_6 
REMARK    5  A    between atoms: C_6  and  C_7 
REMARK    6  A    between atoms: C_7  and  O_8 
REMARK    7  A    between atoms: O_8  and  C_9 
REMARK    8  A    between atoms: C_9  and  C_10 
REMARK    9  A    between atoms: C_10  and  O_11 
REMARK   10  A    between atoms: O_11  and  C_12 
REMARK   11  A    between atoms: C_12  and  C_13 
REMARK   12  A    between atoms: C_13  and  O_14 
ROOT
HETATM    1  O   UNK N   1       9.990   3.956   0.000  0.00  0.00    -0.387 OA
ENDROOT
BRANCH   1   2
HETATM    2  C   UNK N   1       8.891   3.102  -0.000  0.00  0.00     0.193 C 
BRANCH   2   3
HETATM    3  C   UNK N   1       7.636   3.949   0.000  0.00  0.00     0.193 C 
BRANCH   3   4
HETATM    4  O   UNK N   1       6.514   3.126   0.000  0.00  0.00    -0.387 OA
BRANCH   4   5
HETATM    5  C   UNK N   1       5.435   4.009   0.000  0.00  0.00     0.193 C 
BRANCH   5   6
HETATM    6  C   UNK N   1       4.147   3.215  -0.000  0.00  0.00     0.193 C 
BRANCH   6   7
HETATM    7  O   UNK N   1       3.059   4.086  -0.000  0.00  0.00    -0.394 OA
HETATM    8  C   UNK N   1       1.947   3.246   0.000  0.00  0.00     0.201 C 
ENDBRANCH   6   7
ENDBRANCH   5   6
ENDBRANCH   4   5
ENDBRANCH   3   4
ENDBRANCH   2   3
ENDBRANCH   1   2
BRANCH   1   9
HETATM    9  C   UNK N   1      11.114   3.132   0.000  0.00  0.00     0.193 C 
BRANCH   9  10
HETATM   10  C   UNK N   1      12.329   4.032  -0.000  0.00  0.00     0.193 C 
BRANCH  10  11
HETATM   11  O   UNK N   1      13.509   3.294   0.000  0.00  0.00    -0.387 OA
BRANCH  11  12
HETATM   12  C   UNK N   1      14.490   4.285   0.000  0.00  0.00     0.193 C 
BRANCH  12  13
HETATM   13  C   UNK N   1      15.870   3.669  -0.000  0.00  0.00     0.190 C 
BRANCH  13  14
HETATM   14  O   UNK N   1      16.819   4.690   0.000  0.00  0.00    -0.399 OA
HETATM   15  H   UNK N   1      17.765   4.473   0.000  0.00  0.00     0.209 HD
ENDBRANCH  13  14
ENDBRANCH  12  13
ENDBRANCH  11  12
ENDBRANCH  10  11
ENDBRANCH   9  10
ENDBRANCH   1   9
TORSDOF 12
