REMARK  1 active torsions:
REMARK  status: ('A' for Active; 'I' for Inactive)
REMARK    1  A    between atoms: C_4  and  C_10 
ROOT
HETATM    1  N   UNK N   1      23.501 -19.962   0.036  0.00  0.00    -0.061 N 
HETATM    2  C   UNK N   1      24.578 -19.151  -0.572  0.00  0.00     0.289 C 
HETATM    3  C   UNK N   1      22.670 -19.050   0.807  0.00  0.00     0.237 C 
HETATM    4  C   UNK N   1      24.210 -17.683  -0.389  0.00  0.00     0.046 C 
HETATM    5  C   UNK N   1      22.810 -17.684   0.175  0.00  0.00     0.030 C 
HETATM    6  C   UNK N   1      22.695 -20.523  -1.038  0.00  0.00     0.273 C 
HETATM    7  C   UNK N   1      23.922 -21.058   0.901  0.00  0.00     0.273 C 
ENDROOT
BRANCH   2   8
HETATM    8  C   UNK N   1      25.995 -19.430  -0.100  0.00  0.00     0.205 C 
HETATM    9  O   UNK N   1      26.758 -18.440   0.405  0.00  0.00    -0.646 OA
HETATM   10  O   UNK N   1      26.471 -20.547  -0.225  0.00  0.00    -0.646 OA
ENDBRANCH   2   8
TORSDOF 1
