REMARK  5 active torsions:
REMARK  status: ('A' for Active; 'I' for Inactive)
REMARK    1  A    between atoms: N_1  and  C_2 
REMARK    2  A    between atoms: C_2  and  C_3 
REMARK    3  A    between atoms: C_3  and  C_4 
REMARK    4  A    between atoms: C_4  and  C_5 
REMARK    5  A    between atoms: C_5  and  C_6 
ROOT
HETATM    1  C   UNK N   1      -0.083  -1.024   0.000  0.00  0.00     0.038 C 
ENDROOT
BRANCH   1   2
HETATM    2  C   UNK N   1      -1.338  -1.886   0.000  0.00  0.00     0.006 C 
BRANCH   2   3
HETATM    3  C   UNK N   1      -2.595  -1.046  -0.000  0.00  0.00     0.019 C 
BRANCH   3   4
HETATM    4  C   UNK N   1      -3.780  -1.991  -0.000  0.00  0.00     0.111 C 
BRANCH   4   5
HETATM    5  N   UNK N   1      -5.018  -1.236  -0.000  0.00  0.00    -0.430 N 
HETATM    6  H   UNK N   1      -4.994  -0.216  -0.000  0.00  0.00     0.149 HD
HETATM    7  H   UNK N   1      -5.914  -1.725  -0.000  0.00  0.00     0.149 HD
ENDBRANCH   4   5
ENDBRANCH   3   4
ENDBRANCH   2   3
ENDBRANCH   1   2
BRANCH   1   8
HETATM    8  C   UNK N   1       1.178  -1.847   0.000  0.00  0.00    -0.058 A 
HETATM    9  C   UNK N   1       2.415  -1.194  -0.000  0.00  0.00     0.007 A 
HETATM   10  C   UNK N   1       3.603  -1.935  -0.000  0.00  0.00     0.001 A 
HETATM   11  C   UNK N   1       3.557  -3.332  -0.000  0.00  0.00     0.000 A 
HETATM   12  C   UNK N   1       2.327  -3.991   0.000  0.00  0.00     0.001 A 
HETATM   13  C   UNK N   1       1.141  -3.252   0.000  0.00  0.00     0.007 A 
ENDBRANCH   1   8
TORSDOF 5
