REMARK  5 active torsions:
REMARK  status: ('A' for Active; 'I' for Inactive)
REMARK    1  A    between atoms: C_6  and  C_7 
REMARK    2  A    between atoms: C_7  and  C_8 
REMARK    3  A    between atoms: C_8  and  N_9 
REMARK    4  A    between atoms: C_8  and  C_10 
REMARK    5  A    between atoms: C_10  and  O_11 
ROOT
HETATM    1  C   UNK N   1       0.892   2.346  -0.000  0.00  0.00     0.094 C 
ENDROOT
BRANCH   1   2
HETATM    2  C   UNK N   1       0.871   0.846  -0.000  0.00  0.00     0.028 A 
HETATM    3  N   UNK N   1      -0.228   0.063   0.000  0.00  0.00    -0.354 N 
HETATM    4  C   UNK N   1       0.242  -1.202   0.000  0.00  0.00     0.182 A 
ATOM      5  HN  UNK N   1      -1.203   0.363   0.000  1.00  0.00     0.166 HD
HETATM    6  N   UNK N   1       1.587  -1.213   0.000  0.00  0.00    -0.355 N 
HETATM    7  C   UNK N   1       2.438  -2.387  -0.000  0.00  0.00     0.156 C 
HETATM    8  C   UNK N   1       2.001   0.061  -0.000  0.00  0.00     0.116 A 
ENDBRANCH   1   2
BRANCH   1   9
HETATM    9  C   UNK N   1      -0.448   3.091   0.000  0.00  0.00     0.178 C 
BRANCH   9  10
HETATM   10  N   UNK N   1      -1.713   2.373  -0.000  0.00  0.00    -0.417 N 
HETATM   11  H   UNK N   1      -2.593   2.890  -0.000  0.00  0.00     0.150 HD
HETATM   12  H   UNK N   1      -1.721   1.353  -0.000  0.00  0.00     0.150 HD
ENDBRANCH   9  10
BRANCH   9  13
HETATM   13  C   UNK N   1      -0.492   4.587   0.000  0.00  0.00     0.163 C 
HETATM   14  O   UNK N   1       0.547   5.229  -0.000  0.00  0.00    -0.648 OA
BRANCH  13  15
HETATM   15  O   UNK N   1      -1.674   5.232  -0.000  0.00  0.00    -0.775 OA
HETATM   16  H   UNK N   1      -1.697   6.168  -0.000  0.00  0.00     0.167 HD
ENDBRANCH  13  15
ENDBRANCH   9  13
ENDBRANCH   1   9
TORSDOF 5
