REMARK  31 active torsions:
REMARK  status: ('A' for Active; 'I' for Inactive)
REMARK    1  A    between atoms: C_5  and  C_3 
REMARK    2  A    between atoms: C_7  and  C_3 
REMARK    3  A    between atoms: C_6  and  C_4 
REMARK    4  A    between atoms: C_13  and  C_4 
REMARK    5  A    between atoms: N_24  and  C_5 
REMARK    6  A    between atoms: N_26  and  C_6 
REMARK    7  A    between atoms: N_35  and  C_7 
REMARK    8  A    between atoms: C_12  and  C_8 
REMARK    9  A    between atoms: O_49  and  C_8 
REMARK   10  A    between atoms: C_22  and  C_9 
REMARK   11  A    between atoms: O_50  and  C_9 
REMARK   12  A    between atoms: N_24  and  C_13 
REMARK   13  A    between atoms: O_36  and  C_13 
REMARK   14  A    between atoms: C_15  and  O_37 
REMARK   15  A    between atoms: C_16  and  O_52 
REMARK   16  A    between atoms: C_20  and  C_17 
REMARK   17  A    between atoms: C_22  and  C_17 
REMARK   18  A    between atoms: C_17  and  O_38 
REMARK   19  A    between atoms: N_23  and  C_18 
REMARK   20  A    between atoms: N_26  and  C_20 
REMARK   21  A    between atoms: O_39  and  C_20 
REMARK   22  A    between atoms: C_21  and  N_34 
REMARK   23  A    between atoms: P_54  and  O_42 
REMARK   24  A    between atoms: P_54  and  O_43 
REMARK   25  A    between atoms: P_55  and  O_45 
REMARK   26  A    between atoms: P_56  and  O_47 
REMARK   27  A    between atoms: P_55  and  O_49 
REMARK   28  A    between atoms: P_56  and  O_50 
REMARK   29  A    between atoms: P_54  and  O_52 
REMARK   30  A    between atoms: P_55  and  O_53 
REMARK   31  A    between atoms: P_56  and  O_53 
ROOT
HETATM    1  O   UNK N   1      -4.191  17.248  -0.333  0.00  0.00    -0.631 OA
HETATM    2  P   UNK N   1      -5.319  16.948   0.679  0.00  0.00     0.401 P 
ENDROOT
BRANCH   2   3
HETATM    3  O   UNK N   1      -5.541  15.268   1.069  0.00  0.00    -0.307 OA
HETATM    4  H   UNK N   1      -6.415  14.907   1.287  0.00  0.00     0.222 HD
ENDBRANCH   2   3
BRANCH   2   5
HETATM    5  O   UNK N   1      -5.609  15.831  -0.631  0.00  0.00    -0.294 OA
BRANCH   5   6
HETATM    6  C   UNK N   1      -6.533  16.419  -1.510  0.00  0.00     0.215 C 
BRANCH   6   7
HETATM    7  C   UNK N   1      -7.920  15.827  -1.308  0.00  0.00     0.180 C 
HETATM    8  C   UNK N   1      -8.650  16.440  -0.106  0.00  0.00     0.197 C 
HETATM    9  C   UNK N   1      -9.642  15.337   0.116  0.00  0.00     0.199 C 
HETATM   10  C   UNK N   1      -8.653  14.173   0.048  0.00  0.00     0.262 C 
HETATM   11  O   UNK N   1      -7.844  14.423  -1.087  0.00  0.00    -0.353 OA
BRANCH   8  12
HETATM   12  O   UNK N   1      -9.257  17.697  -0.350  0.00  0.00    -0.286 OA
BRANCH  12  13
HETATM   13  P   UNK N   1      -8.077  18.962  -0.034  0.00  0.00     0.391 P 
HETATM   14  O   UNK N   1      -8.743  20.341   0.207  0.00  0.00    -0.632 OA
BRANCH  13  15
HETATM   15  O   UNK N   1      -9.015  18.760   1.415  0.00  0.00    -0.307 OA
HETATM   16  H   UNK N   1      -9.375  19.157   2.224  0.00  0.00     0.222 HD
ENDBRANCH  13  15
BRANCH  13  17
HETATM   17  O   UNK N   1      -8.886  19.315  -1.527  0.00  0.00    -0.307 OA
HETATM   18  H   UNK N   1      -8.941  19.805  -2.362  0.00  0.00     0.222 HD
ENDBRANCH  13  17
ENDBRANCH  12  13
ENDBRANCH   8  12
BRANCH   9  19
HETATM   19  O   UNK N   1     -10.284  15.437   1.352  0.00  0.00    -0.388 OA
HETATM   20  H   UNK N   1     -10.447  15.859   2.210  0.00  0.00     0.210 HD
ENDBRANCH   9  19
BRANCH  10  21
HETATM   21  N   UNK N   1      -9.232  12.827   0.003  0.00  0.00    -0.297 N 
HETATM   22  C   UNK N   1      -8.491  11.687  -0.004  0.00  0.00     0.188 A 
HETATM   23  N   UNK N   1      -9.277  10.576   0.005  0.00  0.00    -0.346 N 
HETATM   24  C   UNK N   1     -10.531  11.059   0.016  0.00  0.00     0.122 A 
ATOM     25  HN  UNK N   1      -8.982   9.600   0.003  1.00  0.00     0.167 HD
HETATM   26  C   UNK N   1     -11.738  10.382   0.043  0.00  0.00     0.131 A 
HETATM   27  C   UNK N   1     -10.507  12.407   0.010  0.00  0.00     0.142 A 
HETATM   28  N   UNK N   1     -12.886  11.122   0.055  0.00  0.00    -0.337 N 
HETATM   29  C   UNK N   1     -12.841  12.495   0.044  0.00  0.00     0.183 A 
ATOM     30  HN  UNK N   1     -13.790  10.648   0.072  1.00  0.00     0.168 HD
HETATM   31  N   UNK N   1     -11.640  13.151   0.026  0.00  0.00    -0.336 N 
ATOM     32  HN  UNK N   1     -11.598  14.170   0.025  1.00  0.00     0.168 HD
BRANCH  26  33
HETATM   33  N   UNK N   1     -11.788   8.974   0.066  0.00  0.00    -0.383 N 
HETATM   34  H   UNK N   1     -12.657   8.512   0.082  0.00  0.00     0.157 HD
HETATM   35  H   UNK N   1     -10.953   8.451   0.066  0.00  0.00     0.157 HD
ENDBRANCH  26  33
ENDBRANCH  10  21
ENDBRANCH   6   7
ENDBRANCH   5   6
ENDBRANCH   2   5
BRANCH   2  36
HETATM   36  O   UNK N   1      -4.100  16.462   1.926  0.00  0.00    -0.195 OA
BRANCH  36  37
HETATM   37  P   UNK N   1      -2.347  16.250   1.589  0.00  0.00     0.401 P 
HETATM   38  O   UNK N   1      -2.490  17.779   1.348  0.00  0.00    -0.631 OA
BRANCH  37  39
HETATM   39  O   UNK N   1      -3.084  15.081   0.537  0.00  0.00    -0.307 OA
HETATM   40  H   UNK N   1      -3.855  15.111  -0.050  0.00  0.00     0.222 HD
ENDBRANCH  37  39
BRANCH  37  41
HETATM   41  O   UNK N   1      -1.884  16.482  -0.074  0.00  0.00    -0.296 OA
BRANCH  41  42
HETATM   42  C   UNK N   1      -0.525  16.189  -0.176  0.00  0.00     0.192 C 
BRANCH  42  43
HETATM   43  C   UNK N   1      -0.253  14.913  -0.990  0.00  0.00     0.008 C 
HETATM   44  C   UNK N   1      -1.421  14.528  -1.896  0.00  0.00     0.020 C 
HETATM   45  C   UNK N   1       0.879  15.243  -1.930  0.00  0.00     0.020 C 
BRANCH  43  46
HETATM   46  C   UNK N   1       0.151  13.718  -0.089  0.00  0.00     0.202 C 
BRANCH  46  47
HETATM   47  C   UNK N   1       1.205  14.095   0.946  0.00  0.00     0.141 C 
BRANCH  47  48
HETATM   48  N   UNK N   1       2.462  13.855   0.784  0.00  0.00    -0.372 N 
ATOM     49  HN  UNK N   1       3.102  14.086   1.544  1.00  0.00     0.161 HD
BRANCH  48  50
HETATM   50  C   UNK N   1       3.010  13.276  -0.420  0.00  0.00     0.129 C 
BRANCH  50  51
HETATM   51  C   UNK N   1       4.080  14.176  -1.060  0.00  0.00     0.103 C 
BRANCH  51  52
HETATM   52  C   UNK N   1       3.892  15.664  -0.845  0.00  0.00     0.112 C 
BRANCH  52  53
HETATM   53  N   UNK N   1       4.283  16.245   0.237  0.00  0.00    -0.374 N 
ATOM     54  HN  UNK N   1       4.119  17.246   0.346  1.00  0.00     0.161 HD
BRANCH  53  55
HETATM   55  C   UNK N   1       4.944  15.528   1.300  0.00  0.00     0.123 C 
BRANCH  55  56
HETATM   56  C   UNK N   1       6.379  16.015   1.421  0.00  0.00     0.046 C 
BRANCH  56  57
HETATM   57  C   UNK N   1       7.148  15.866   0.109  0.00  0.00     0.203 C 
BRANCH  57  58
HETATM   58  N   UNK N   1       7.754  14.564   0.003  0.00  0.00    -0.156 N 
HETATM   59  O   UNK N   1       8.944  14.470   0.023  0.00  0.00    -0.537 OA
HETATM   60  O   UNK N   1       7.089  13.610  -0.258  0.00  0.00    -0.537 OA
ENDBRANCH  57  58
ENDBRANCH  56  57
ENDBRANCH  55  56
ENDBRANCH  53  55
ENDBRANCH  52  53
BRANCH  52  61
HETATM   61  O   UNK N   1       3.376  16.414  -1.835  0.00  0.00    -0.350 OA
HETATM   62  H   UNK N   1       3.648  16.987  -2.524  0.00  0.00     0.219 HD
ENDBRANCH  52  61
ENDBRANCH  51  52
ENDBRANCH  50  51
ENDBRANCH  48  50
ENDBRANCH  47  48
BRANCH  47  63
HETATM   63  O   UNK N   1       0.808  14.721   2.073  0.00  0.00    -0.348 OA
HETATM   64  H   UNK N   1       1.046  15.177   2.856  0.00  0.00     0.219 HD
ENDBRANCH  47  63
ENDBRANCH  46  47
BRANCH  46  65
HETATM   65  O   UNK N   1      -0.959  13.204   0.587  0.00  0.00    -0.387 OA
HETATM   66  H   UNK N   1      -1.653  13.693   1.056  0.00  0.00     0.210 HD
ENDBRANCH  46  65
ENDBRANCH  43  46
ENDBRANCH  42  43
ENDBRANCH  41  42
ENDBRANCH  37  41
ENDBRANCH  36  37
ENDBRANCH   2  36
TORSDOF 31
