REMARK  3 active torsions:
REMARK  status: ('A' for Active; 'I' for Inactive)
REMARK    1  A    between atoms: C_13  and  C_14 
REMARK    2  A    between atoms: O_25  and  C_21 
REMARK    3  A    between atoms: O_26  and  C_22 
ROOT
HETATM    1  C   UNK N   1      -3.187  -1.409  -0.531  0.00  0.00     0.001 A 
HETATM    2  C   UNK N   1      -3.031  -2.794  -0.616  0.00  0.00     0.001 A 
HETATM    3  C   UNK N   1      -2.081  -0.601  -0.273  0.00  0.00     0.016 A 
HETATM    4  C   UNK N   1      -1.769  -3.369  -0.436  0.00  0.00     0.015 A 
HETATM    5  C   UNK N   1       4.078   2.061   0.158  0.00  0.00     0.014 C 
HETATM    6  C   UNK N   1       5.091   0.009  -0.986  0.00  0.00     0.014 C 
HETATM    7  C   UNK N   1       2.732   1.375   0.092  0.00  0.00     0.036 C 
HETATM    8  C   UNK N   1       4.261  -0.689   0.106  0.00  0.00     0.036 C 
HETATM    9  C   UNK N   1       5.044   1.562  -0.923  0.00  0.00     0.019 C 
HETATM   10  C   UNK N   1       2.855  -0.129   0.132  0.00  0.00    -0.063 C 
HETATM   11  C   UNK N   1      -0.811  -1.170  -0.107  0.00  0.00     0.028 A 
HETATM   12  C   UNK N   1      -0.649  -2.563  -0.185  0.00  0.00     0.014 A 
HETATM   13  C   UNK N   1       1.732  -0.919   0.137  0.00  0.00     0.053 C 
HETATM   14  C   UNK N   1       0.357  -0.312   0.119  0.00  0.00     0.196 C 
HETATM   15  C   UNK N   1       0.689  -3.179  -0.007  0.00  0.00     0.111 C 
HETATM   16  C   UNK N   1       1.806  -2.429   0.139  0.00  0.00     0.114 C 
HETATM   17  O   UNK N   1       0.183   0.892   0.261  0.00  0.00    -0.286 OA
ENDROOT
BRANCH  16  18
HETATM   18  O   UNK N   1       2.989  -3.058   0.286  0.00  0.00    -0.357 OA
HETATM   19  H   UNK N   1       3.022  -3.989   0.388  0.00  0.00     0.217 HD
ENDBRANCH  16  18
BRANCH  15  20
HETATM   20  O   UNK N   1       0.794  -4.527  -0.004  0.00  0.00    -0.357 OA
HETATM   21  H   UNK N   1       0.022  -5.057  -0.002  0.00  0.00     0.217 HD
ENDBRANCH  15  20
BRANCH   9  22
HETATM   22  C   UNK N   1       6.374   2.208  -0.622  0.00  0.00    -0.054 A 
HETATM   23  C   UNK N   1       7.523   1.451  -0.338  0.00  0.00     0.009 A 
HETATM   24  C   UNK N   1       8.717   2.091   0.012  0.00  0.00     0.024 A 
HETATM   25  C   UNK N   1       8.771   3.487   0.083  0.00  0.00     0.034 A 
HETATM   26  C   UNK N   1       7.639   4.246  -0.215  0.00  0.00     0.024 A 
HETATM   27 Cl   UNK N   1      10.253   4.288   0.556  0.00  0.00    -0.084 Cl
HETATM   28  C   UNK N   1       6.449   3.610  -0.567  0.00  0.00     0.009 A 
ENDBRANCH   9  22
TORSDOF 3
