REMARK  4 active torsions:
REMARK  status: ('A' for Active; 'I' for Inactive)
REMARK    1  A    between atoms: N_7  and  C_8 
REMARK    2  A    between atoms: C_8  and  O_9 
REMARK    3  A    between atoms: O_9  and  C_10 
REMARK    4  A    between atoms: C_10  and  N_11 
ROOT
HETATM    1  O   UNK N   1       1.085  -1.911  -0.100  0.00  0.00    -0.352 OA
ENDROOT
BRANCH   1   2
HETATM    2  C   UNK N   1       2.200  -1.696  -0.929  0.00  0.00     0.307 C 
BRANCH   2   3
HETATM    3  N   UNK N   1       3.389  -2.320  -0.386  0.00  0.00    -0.259 N 
HETATM    4  C   UNK N   1       3.556  -3.624  -0.124  0.00  0.00     0.252 A 
HETATM    5  C   UNK N   1       4.910  -3.863   0.399  0.00  0.00     0.080 A 
HETATM    6  O   UNK N   1       2.701  -4.476  -0.306  0.00  0.00    -0.268 OA
HETATM    7  C   UNK N   1       5.518  -2.661   0.428  0.00  0.00     0.080 A 
HETATM    8  C   UNK N   1       4.533  -1.693  -0.076  0.00  0.00     0.252 A 
HETATM    9  O   UNK N   1       4.718  -0.494  -0.212  0.00  0.00    -0.268 OA
ENDBRANCH   2   3
ENDBRANCH   1   2
BRANCH   1  10
HETATM   10  C   UNK N   1       1.139  -0.931   0.902  0.00  0.00     0.307 C 
BRANCH  10  11
HETATM   11  N   UNK N   1       0.703   0.353   0.394  0.00  0.00    -0.259 N 
HETATM   12  C   UNK N   1      -0.537   0.696   0.018  0.00  0.00     0.252 A 
HETATM   13  O   UNK N   1      -1.502  -0.051   0.064  0.00  0.00    -0.268 OA
HETATM   14  C   UNK N   1      -0.553   2.093  -0.442  0.00  0.00     0.080 A 
HETATM   15  C   UNK N   1       0.711   2.542  -0.318  0.00  0.00     0.080 A 
HETATM   16  C   UNK N   1       1.492   1.419   0.219  0.00  0.00     0.252 A 
HETATM   17  O   UNK N   1       2.687   1.436   0.469  0.00  0.00    -0.268 OA
ENDBRANCH  10  11
ENDBRANCH   1  10
TORSDOF 4
