REMARK  8 active torsions:
REMARK  status: ('A' for Active; 'I' for Inactive)
REMARK    1  A    between atoms: C_3  and  C_2 
REMARK    2  A    between atoms: C_4  and  C_3 
REMARK    3  A    between atoms: C_6  and  C_4 
REMARK    4  A    between atoms: C_7  and  C_5 
REMARK    5  A    between atoms: O_8  and  C_5 
REMARK    6  A    between atoms: C_7  and  C_6 
REMARK    7  A    between atoms: C_6  and  O_9 
REMARK    8  A    between atoms: C_7  and  O_10 
ROOT
HETATM    1  C   UNK N   1       3.810  -0.717  -0.210  0.00  0.00     0.149 C 
ENDROOT
BRANCH   1   2
HETATM    2  C   UNK N   1       2.603   0.217  -0.199  0.00  0.00     0.034 C 
BRANCH   2   3
HETATM    3  C   UNK N   1       1.374  -0.505  -0.728  0.00  0.00     0.002 C 
BRANCH   3   4
HETATM    4  C   UNK N   1       0.162  -0.150   0.105  0.00  0.00    -0.004 C 
HETATM    5  C   UNK N   1      -1.057  -0.840  -0.470  0.00  0.00     0.005 C 
ENDBRANCH   3   4
ENDBRANCH   2   3
ENDBRANCH   1   2
BRANCH   1   6
HETATM    6  C   UNK N   1       5.090   0.027   0.199  0.00  0.00     0.170 C 
BRANCH   6   7
HETATM    7  C   UNK N   1       6.290  -0.917   0.248  0.00  0.00     0.198 C 
BRANCH   7   8
HETATM    8  O   UNK N   1       6.521  -1.504  -0.999  0.00  0.00    -0.398 OA
HETATM    9  H   UNK N   1       6.248  -1.846  -1.865  0.00  0.00     0.209 HD
ENDBRANCH   7   8
ENDBRANCH   6   7
BRANCH   6  10
HETATM   10  O   UNK N   1       5.354   1.063  -0.702  0.00  0.00    -0.391 OA
HETATM   11  H   UNK N   1       6.069   1.263  -1.327  0.00  0.00     0.210 HD
ENDBRANCH   6  10
ENDBRANCH   1   6
BRANCH   1  12
HETATM   12  O   UNK N   1       3.575  -1.770   0.680  0.00  0.00    -0.393 OA
HETATM   13  H   UNK N   1       2.861  -1.995   1.297  0.00  0.00     0.210 HD
ENDBRANCH   1  12
TORSDOF 8
