REMARK  3 active torsions:
REMARK  status: ('A' for Active; 'I' for Inactive)
REMARK    1  A    between atoms: N_2  and  C_3 
REMARK    2  A    between atoms: C_3  and  C_6 
REMARK    3  A    between atoms: C_6  and  O_7 
ROOT
HETATM    1  C   UNK N   1       0.469  -0.220  -0.015  0.00  0.00     0.098 C 
HETATM    2  C   UNK N   1      -0.868  -0.321  -0.030  0.00  0.00     0.005 C 
HETATM    3  C   UNK N   1      -1.585  -1.630   0.027  0.00  0.00     0.038 C 
ENDROOT
BRANCH   1   4
HETATM    4  N   UNK N   1       1.265  -1.406   0.058  0.00  0.00    -0.389 N 
HETATM    5  C   UNK N   1       2.706  -1.405   0.057  0.00  0.00     0.146 C 
HETATM    6  H   UNK N   1       0.802  -2.273   0.111  0.00  0.00     0.159 HD
ENDBRANCH   1   4
BRANCH   1   7
HETATM    7  C   UNK N   1       1.070   1.142  -0.067  0.00  0.00     0.192 C 
HETATM    8  O   UNK N   1       2.278   1.299  -0.055  0.00  0.00    -0.645 OA
BRANCH   7   9
HETATM    9  O   UNK N   1       0.267   2.225  -0.120  0.00  0.00    -0.772 OA
HETATM   10  H   UNK N   1       0.640   3.084  -0.157  0.00  0.00     0.167 HD
ENDBRANCH   7   9
ENDBRANCH   1   7
TORSDOF 3
