REMARK  6 active torsions:
REMARK  status: ('A' for Active; 'I' for Inactive)
REMARK    1  A    between atoms: C_4  and  C_1 
REMARK    2  A    between atoms: O_20  and  C_1 
REMARK    3  A    between atoms: C_5  and  N_11 
REMARK    4  A    between atoms: C_7  and  O_21 
REMARK    5  A    between atoms: N_12  and  C_8 
REMARK    6  A    between atoms: C_10  and  N_19 
ROOT
HETATM    1  C   UNK N   1       4.719   2.030   0.129  0.00  0.00     0.183 A 
HETATM    2  C   UNK N   1       0.307   2.206  -0.195  0.00  0.00     0.188 A 
HETATM    3  C   UNK N   1       2.250   3.092  -0.311  0.00  0.00     0.122 A 
HETATM    4  C   UNK N   1       3.366   3.906  -0.447  0.00  0.00     0.131 A 
HETATM    5  C   UNK N   1       2.397   1.801   0.044  0.00  0.00     0.142 A 
HETATM    6  N   UNK N   1       4.594   3.352  -0.226  0.00  0.00    -0.337 N 
ATOM      7  HN  UNK N   1       5.431   3.927  -0.325  1.00  0.00     0.168 HD
HETATM    8  N   UNK N   1       3.608   1.244   0.276  0.00  0.00    -0.336 N 
ATOM      9  HN  UNK N   1       3.691   0.265   0.552  1.00  0.00     0.168 HD
HETATM   10  N   UNK N   1       0.947   3.379  -0.471  0.00  0.00    -0.346 N 
ATOM     11  HN  UNK N   1       0.530   4.271  -0.737  1.00  0.00     0.167 HD
HETATM   12  N   UNK N   1       1.189   1.223   0.127  0.00  0.00    -0.298 N 
ENDROOT
BRANCH  12  13
HETATM   13  C   UNK N   1       0.862  -0.149   0.540  0.00  0.00     0.255 C 
HETATM   14  C   UNK N   1       1.506  -1.223  -0.338  0.00  0.00     0.155 C 
HETATM   15  C   UNK N   1       0.659  -2.395   0.065  0.00  0.00     0.175 C 
HETATM   16  C   UNK N   1      -0.706  -1.709   0.007  0.00  0.00     0.178 C 
HETATM   17  O   UNK N   1      -0.538  -0.385   0.493  0.00  0.00    -0.354 OA
BRANCH  14  18
HETATM   18  N   UNK N   1       2.916  -1.444  -0.057  0.00  0.00    -0.420 N 
HETATM   19  H   UNK N   1       3.277  -2.378   0.140  0.00  0.00     0.150 HD
HETATM   20  H   UNK N   1       3.557  -0.650  -0.057  0.00  0.00     0.150 HD
ENDBRANCH  14  18
BRANCH  15  21
HETATM   21  O   UNK N   1       0.957  -2.777   1.383  0.00  0.00    -0.391 OA
HETATM   22  H   UNK N   1       0.831  -3.088   2.293  0.00  0.00     0.210 HD
ENDBRANCH  15  21
BRANCH  16  23
HETATM   23  C   UNK N   1      -1.772  -2.446   0.815  0.00  0.00     0.198 C 
BRANCH  23  24
HETATM   24  O   UNK N   1      -1.917  -3.759   0.362  0.00  0.00    -0.398 OA
HETATM   25  H   UNK N   1      -2.757  -4.128   0.048  0.00  0.00     0.209 HD
ENDBRANCH  23  24
ENDBRANCH  16  23
ENDBRANCH  12  13
BRANCH   4  26
HETATM   26  N   UNK N   1       3.243   5.267  -0.794  0.00  0.00    -0.383 N 
HETATM   27  H   UNK N   1       4.023   5.816  -1.036  0.00  0.00     0.157 HD
HETATM   28  H   UNK N   1       2.350   5.680  -0.794  0.00  0.00     0.157 HD
ENDBRANCH   4  26
TORSDOF 6
