REMARK  20 active torsions:
REMARK  status: ('A' for Active; 'I' for Inactive)
REMARK    1  A    between atoms: C_2  and  C_1 
REMARK    2  A    between atoms: C_3  and  C_1 
REMARK    3  A    between atoms: C_4  and  C_2 
REMARK    4  A    between atoms: C_5  and  C_3 
REMARK    5  A    between atoms: C_8  and  C_4 
REMARK    6  A    between atoms: P_29  and  C_5 
REMARK    7  A    between atoms: C_9  and  C_6 
REMARK    8  A    between atoms: N_15  and  C_6 
REMARK    9  A    between atoms: C_10  and  C_7 
REMARK   10  A    between atoms: O_20  and  C_7 
REMARK   11  A    between atoms: C_11  and  C_9 
REMARK   12  A    between atoms: C_9  and  O_21 
REMARK   13  A    between atoms: C_11  and  C_10 
REMARK   14  A    between atoms: C_10  and  O_22 
REMARK   15  A    between atoms: C_11  and  O_23 
REMARK   16  A    between atoms: N_15  and  C_12 
REMARK   17  A    between atoms: O_24  and  C_13 
REMARK   18  A    between atoms: O_25  and  C_14 
REMARK   19  A    between atoms: P_29  and  O_26 
REMARK   20  A    between atoms: P_29  and  O_27 
ROOT
HETATM    1  C   UNK N   1       5.207  -3.221  -0.461  0.00  0.00     0.037 A 
HETATM    2  C   UNK N   1       4.627  -4.180   0.405  0.00  0.00     0.114 A 
HETATM    3  C   UNK N   1       6.530  -3.430  -0.890  0.00  0.00     0.153 A 
HETATM    4  C   UNK N   1       6.628  -5.452   0.329  0.00  0.00     0.224 A 
HETATM    5  N   UNK N   1       5.358  -5.270   0.765  0.00  0.00    -0.308 N 
ATOM      6  HN  UNK N   1       4.938  -5.968   1.378  1.00  0.00     0.171 HD
HETATM    7  N   UNK N   1       7.209  -4.536  -0.485  0.00  0.00    -0.302 N 
ATOM      8  HN  UNK N   1       8.169  -4.679  -0.798  1.00  0.00     0.171 HD
ENDROOT
BRANCH   2   9
HETATM    9  N   UNK N   1       3.306  -4.067   0.926  0.00  0.00    -0.373 N 
HETATM   10  H   UNK N   1       2.909  -4.876   1.322  0.00  0.00     0.161 HD
BRANCH   9  11
HETATM   11  C   UNK N   1       2.497  -2.869   0.922  0.00  0.00     0.155 C 
BRANCH  11  12
HETATM   12  C   UNK N   1       1.354  -2.947  -0.089  0.00  0.00     0.167 C 
BRANCH  12  13
HETATM   13  C   UNK N   1       0.372  -4.098   0.225  0.00  0.00     0.179 C 
BRANCH  13  14
HETATM   14  C   UNK N   1      -0.770  -4.179  -0.807  0.00  0.00     0.173 C 
BRANCH  14  15
HETATM   15  C   UNK N   1      -1.666  -5.390  -0.556  0.00  0.00     0.198 C 
BRANCH  15  16
HETATM   16  O   UNK N   1      -2.273  -5.313   0.699  0.00  0.00    -0.398 OA
HETATM   17  H   UNK N   1      -2.437  -4.921   1.571  0.00  0.00     0.209 HD
ENDBRANCH  15  16
ENDBRANCH  14  15
BRANCH  14  18
HETATM   18  O   UNK N   1      -1.552  -3.021  -0.779  0.00  0.00    -0.391 OA
HETATM   19  H   UNK N   1      -1.127  -2.149  -0.760  0.00  0.00     0.210 HD
ENDBRANCH  14  18
ENDBRANCH  13  14
BRANCH  13  20
HETATM   20  O   UNK N   1       1.061  -5.316   0.213  0.00  0.00    -0.390 OA
HETATM   21  H   UNK N   1       0.568  -6.151   0.205  0.00  0.00     0.210 HD
ENDBRANCH  13  20
ENDBRANCH  12  13
BRANCH  12  22
HETATM   22  O   UNK N   1       0.686  -1.721  -0.063  0.00  0.00    -0.391 OA
HETATM   23  H   UNK N   1       1.192  -0.893  -0.045  0.00  0.00     0.210 HD
ENDBRANCH  12  22
ENDBRANCH  11  12
ENDBRANCH   9  11
ENDBRANCH   2   9
BRANCH   1  24
HETATM   24  C   UNK N   1       4.429  -2.027  -0.947  0.00  0.00     0.047 C 
BRANCH  24  25
HETATM   25  C   UNK N   1       4.858  -0.720  -0.304  0.00  0.00     0.005 C 
BRANCH  25  26
HETATM   26  C   UNK N   1       4.831  -0.808   1.217  0.00  0.00     0.001 C 
BRANCH  26  27
HETATM   27  C   UNK N   1       5.920   0.061   1.813  0.00  0.00     0.012 C 
BRANCH  27  28
HETATM   28  C   UNK N   1       7.275  -0.373   1.283  0.00  0.00     0.125 C 
BRANCH  28  29
HETATM   29  P   UNK N   1       7.814   0.786  -0.065  0.00  0.00     0.235 P 
HETATM   30  O   UNK N   1       8.010   2.245   0.421  0.00  0.00    -0.653 OA
BRANCH  29  31
HETATM   31  O   UNK N   1       8.874   0.546  -1.419  0.00  0.00    -0.329 OA
HETATM   32  H   UNK N   1       9.054  -0.034  -2.176  0.00  0.00     0.220 HD
ENDBRANCH  29  31
BRANCH  29  33
HETATM   33  O   UNK N   1       9.256   0.375   0.796  0.00  0.00    -0.329 OA
HETATM   34  H   UNK N   1       9.460  -0.441   1.279  0.00  0.00     0.220 HD
ENDBRANCH  29  33
ENDBRANCH  28  29
ENDBRANCH  27  28
ENDBRANCH  26  27
ENDBRANCH  25  26
ENDBRANCH  24  25
ENDBRANCH   1  24
BRANCH   3  35
HETATM   35  O   UNK N   1       7.132  -2.552  -1.711  0.00  0.00    -0.346 OA
HETATM   36  H   UNK N   1       7.871  -2.609  -2.284  0.00  0.00     0.219 HD
ENDBRANCH   3  35
BRANCH   4  37
HETATM   37  O   UNK N   1       7.312  -6.546   0.705  0.00  0.00    -0.332 OA
HETATM   38  H   UNK N   1       6.891  -7.340   0.967  0.00  0.00     0.221 HD
ENDBRANCH   4  37
TORSDOF 20
