REMARK  8 active torsions:
REMARK  status: ('A' for Active; 'I' for Inactive)
REMARK    1  A    between atoms: C_2  and  C_1 
REMARK    2  A    between atoms: O_12  and  C_1 
REMARK    3  A    between atoms: C_3  and  O_6 
REMARK    4  A    between atoms: C_4  and  O_7 
REMARK    5  A    between atoms: C_5  and  O_8 
REMARK    6  A    between atoms: P_14  and  O_9 
REMARK    7  A    between atoms: P_14  and  O_10 
REMARK    8  A    between atoms: P_14  and  O_12 
ROOT
HETATM    1  C   UNK N   1       0.959   0.502  -0.927  0.00  0.00     0.180 C 
HETATM    2  C   UNK N   1       0.281   1.309   0.173  0.00  0.00     0.182 C 
HETATM    3  C   UNK N   1      -1.023   0.574   0.179  0.00  0.00     0.204 C 
HETATM    4  C   UNK N   1      -0.482  -0.850   0.172  0.00  0.00     0.288 C 
HETATM    5  O   UNK N   1       0.664  -0.860  -0.668  0.00  0.00    -0.349 OA
ENDROOT
BRANCH   1   6
HETATM    6  C   UNK N   1       2.456   0.770  -1.069  0.00  0.00     0.215 C 
BRANCH   6   7
HETATM    7  O   UNK N   1       3.179   0.474   0.091  0.00  0.00    -0.294 OA
BRANCH   7   8
HETATM    8  P   UNK N   1       4.835   0.742  -0.380  0.00  0.00     0.390 P 
HETATM    9  O   UNK N   1       4.608   1.910   0.618  0.00  0.00    -0.632 OA
BRANCH   8  10
HETATM   10  O   UNK N   1       6.152   0.542   0.733  0.00  0.00    -0.307 OA
HETATM   11  H   UNK N   1       6.423  -0.151   1.354  0.00  0.00     0.222 HD
ENDBRANCH   8  10
BRANCH   8  12
HETATM   12  O   UNK N   1       4.702  -0.764   0.473  0.00  0.00    -0.307 OA
HETATM   13  H   UNK N   1       3.936  -1.120   0.950  0.00  0.00     0.222 HD
ENDBRANCH   8  12
ENDBRANCH   7   8
ENDBRANCH   6   7
ENDBRANCH   1   6
BRANCH   2  14
HETATM   14  O   UNK N   1       0.142   2.661  -0.148  0.00  0.00    -0.390 OA
HETATM   15  H   UNK N   1       0.907   3.214  -0.371  0.00  0.00     0.210 HD
ENDBRANCH   2  14
BRANCH   3  16
HETATM   16  O   UNK N   1      -1.816   0.854   1.294  0.00  0.00    -0.388 OA
HETATM   17  H   UNK N   1      -1.923   1.428   2.068  0.00  0.00     0.210 HD
ENDBRANCH   3  16
BRANCH   4  18
HETATM   18  O   UNK N   1      -1.450  -1.740  -0.297  0.00  0.00    -0.369 OA
HETATM   19  H   UNK N   1      -2.322  -1.467  -0.622  0.00  0.00     0.212 HD
ENDBRANCH   4  18
TORSDOF 8
