REMARK  6 active torsions:
REMARK  status: ('A' for Active; 'I' for Inactive)
REMARK    1  A    between atoms: C_21  and  C_14 
REMARK    2  A    between atoms: C_24  and  C_15 
REMARK    3  A    between atoms: N_32  and  C_16 
REMARK    4  A    between atoms: C_22  and  C_27 
REMARK    5  A    between atoms: C_23  and  C_28 
REMARK       I    between atoms: N_32  and  C_27 
REMARK    6  A    between atoms: O_40  and  C_28 
ROOT
HETATM    1  C   UNK N   1      10.871  -0.371  -0.914  0.00  0.00     0.048 C 
HETATM    2  C   UNK N   1       9.594   1.172   0.582  0.00  0.00     0.007 A 
HETATM    3  C   UNK N   1       8.391   1.742   1.018  0.00  0.00     0.017 A 
HETATM    4  C   UNK N   1       8.409   0.001  -1.209  0.00  0.00     0.023 A 
HETATM    5  C   UNK N   1       9.603   0.290  -0.518  0.00  0.00    -0.061 A 
HETATM    6  C   UNK N   1       7.226   1.406   0.336  0.00  0.00     0.027 A 
HETATM    7  C   UNK N   1       7.227   0.585  -0.752  0.00  0.00     0.028 A 
HETATM    8  C   UNK N   1       2.699   0.102   0.348  0.00  0.00     0.130 C 
HETATM    9  C   UNK N   1       4.168  -0.137   0.650  0.00  0.00     0.150 C 
HETATM   10  C   UNK N   1       2.795   1.631   0.221  0.00  0.00     0.170 C 
HETATM   11  C   UNK N   1       5.868   1.737   0.679  0.00  0.00     0.203 C 
HETATM   12  C   UNK N   1       5.847   0.385  -1.201  0.00  0.00     0.203 C 
HETATM   13  C   UNK N   1       4.875   0.965  -0.181  0.00  0.00     0.205 C 
HETATM   14  O   UNK N   1       5.559   2.464   1.611  0.00  0.00    -0.288 OA
HETATM   15  O   UNK N   1       5.528  -0.279  -2.175  0.00  0.00    -0.288 OA
HETATM   16  O   UNK N   1       3.878   1.849  -0.673  0.00  0.00    -0.352 OA
ENDROOT
BRANCH   8  17
HETATM   17  C   UNK N   1       1.923  -0.426   1.534  0.00  0.00     0.230 C 
HETATM   18  N   UNK N   1       1.747  -1.756   1.724  0.00  0.00    -0.327 N 
HETATM   19  H   UNK N   1       1.902  -2.096   2.635  0.00  0.00     0.169 HD
HETATM   20  O   UNK N   1       1.696   0.326   2.468  0.00  0.00    -0.273 OA
BRANCH  18  21
HETATM   21  C   UNK N   1       1.363  -2.707   0.748  0.00  0.00     0.034 C 
HETATM   22  C   UNK N   1       1.343  -4.047   1.148  0.00  0.00     0.030 C 
HETATM   23  C   UNK N   1       0.403  -4.926   0.616  0.00  0.00     0.016 C 
HETATM   24  C   UNK N   1      -0.543  -4.456  -0.301  0.00  0.00    -0.008 C 
HETATM   25  C   UNK N   1      -0.428  -3.160  -0.816  0.00  0.00     0.016 C 
HETATM   26  C   UNK N   1       0.524  -2.287  -0.293  0.00  0.00     0.030 C 
BRANCH  24  27
HETATM   27  C   UNK N   1      -1.833  -5.158  -0.427  0.00  0.00     0.063 A 
HETATM   28  C   UNK N   1      -2.114  -6.358   0.264  0.00  0.00     0.096 A 
HETATM   29  S   UNK N   1      -3.736  -6.515   0.047  0.00  0.00    -0.010 SA
HETATM   30  N   UNK N   1      -4.083  -5.186  -0.834  0.00  0.00    -0.061 NA
HETATM   31  N   UNK N   1      -2.926  -4.534  -1.006  0.00  0.00    -0.292 N 
ATOM     32  HN  UNK N   1      -2.856  -3.655  -1.518  1.00  0.00     0.183 HD
ENDBRANCH  24  27
ENDBRANCH  18  21
ENDBRANCH   8  17
BRANCH   9  33
HETATM   33  C   UNK N   1       4.629  -1.575   0.521  0.00  0.00     0.148 C 
HETATM   34  O   UNK N   1       5.114  -2.147   1.485  0.00  0.00    -0.650 OA
BRANCH  33  35
HETATM   35  O   UNK N   1       4.481  -2.243  -0.639  0.00  0.00    -0.776 OA
HETATM   36  H   UNK N   1       4.027  -2.387  -1.446  0.00  0.00     0.167 HD
ENDBRANCH  33  35
ENDBRANCH   9  33
BRANCH  10  37
HETATM   37  C   UNK N   1       1.569   2.430  -0.140  0.00  0.00    -0.027 A 
HETATM   38  C   UNK N   1       1.676   3.828  -0.116  0.00  0.00     0.011 A 
HETATM   39  C   UNK N   1       0.558   4.633  -0.320  0.00  0.00     0.026 A 
HETATM   40  C   UNK N   1      -0.689   4.054  -0.552  0.00  0.00     0.055 A 
HETATM   41  C   UNK N   1      -0.812   2.652  -0.594  0.00  0.00     0.056 A 
HETATM   42 Cl   UNK N   1      -2.075   5.109  -0.780  0.00  0.00    -0.083 Cl
HETATM   43  C   UNK N   1       0.317   1.843  -0.380  0.00  0.00     0.035 A 
HETATM   44 Cl   UNK N   1      -2.367   1.893  -0.891  0.00  0.00    -0.083 Cl
ENDBRANCH  10  37
TORSDOF 6
