REMARK  29 active torsions:
REMARK  status: ('A' for Active; 'I' for Inactive)
REMARK    1  A    between atoms: C_5  and  C_4 
REMARK    2  A    between atoms: C_6  and  C_5 
REMARK    3  A    between atoms: C_7  and  C_6 
REMARK    4  A    between atoms: C_8  and  C_7 
REMARK    5  A    between atoms: C_9  and  C_8 
REMARK    6  A    between atoms: C_10  and  C_9 
REMARK    7  A    between atoms: C_11  and  C_10 
REMARK    8  A    between atoms: C_12  and  C_11 
REMARK    9  A    between atoms: C_13  and  C_12 
REMARK   10  A    between atoms: C_14  and  C_13 
REMARK   11  A    between atoms: C_15  and  C_14 
REMARK   12  A    between atoms: C_16  and  C_15 
REMARK   13  A    between atoms: C_17  and  C_16 
REMARK   14  A    between atoms: C_18  and  C_17 
REMARK   15  A    between atoms: C_19  and  C_18 
REMARK   16  A    between atoms: C_20  and  C_19 
REMARK   17  A    between atoms: O_32  and  C_20 
REMARK   18  A    between atoms: C_22  and  C_21 
REMARK   19  A    between atoms: O_33  and  C_21 
REMARK   20  A    between atoms: S_36  and  C_22 
REMARK   21  A    between atoms: C_26  and  C_23 
REMARK   22  A    between atoms: O_32  and  C_23 
REMARK   23  A    between atoms: C_26  and  C_24 
REMARK   24  A    between atoms: O_34  and  C_24 
REMARK   25  A    between atoms: O_29  and  C_25 
REMARK   26  A    between atoms: C_26  and  N_27 
REMARK   27  A    between atoms: P_35  and  O_30 
REMARK   28  A    between atoms: P_35  and  O_33 
REMARK   29  A    between atoms: P_35  and  O_34 
ROOT
HETATM    1  C   UNK N   1       2.702   5.969  -0.579  0.00  0.00     0.195 C 
ENDROOT
BRANCH   1   2
HETATM    2  C   UNK N   1       3.089   5.401   0.786  0.00  0.00     0.131 C 
BRANCH   2   3
HETATM    3  C   UNK N   1       4.597   5.525   0.995  0.00  0.00     0.207 C 
BRANCH   3   4
HETATM    4  O   UNK N   1       4.968   6.872   1.080  0.00  0.00    -0.295 OA
BRANCH   4   5
HETATM    5  P   UNK N   1       5.849   7.247  -0.377  0.00  0.00     0.393 P 
HETATM    6  O   UNK N   1       4.927   8.143  -1.246  0.00  0.00    -0.631 OA
BRANCH   5   7
HETATM    7  O   UNK N   1       6.230   5.852  -1.345  0.00  0.00    -0.307 OA
HETATM    8  H   UNK N   1       5.662   5.280  -1.884  0.00  0.00     0.222 HD
ENDBRANCH   5   7
BRANCH   5   9
HETATM    9  O   UNK N   1       7.265   8.197  -0.035  0.00  0.00    -0.296 OA
BRANCH   9  10
HETATM   10  C   UNK N   1       8.219   7.283   0.410  0.00  0.00     0.190 C 
BRANCH  10  11
HETATM   11  C   UNK N   1       9.256   7.066  -0.675  0.00  0.00     0.100 C 
BRANCH  11  12
HETATM   12  S   UNK N   1      10.406   5.761  -0.166  0.00  0.00    -0.171 SA
HETATM   13  C   UNK N   1      11.572   6.962   0.532  0.00  0.00     0.089 C 
ENDBRANCH  11  12
ENDBRANCH  10  11
ENDBRANCH   9  10
ENDBRANCH   5   9
ENDBRANCH   4   5
ENDBRANCH   3   4
ENDBRANCH   2   3
BRANCH   2  14
HETATM   14  N   UNK N   1       2.652   4.022   0.931  0.00  0.00    -0.366 N 
HETATM   15  C   UNK N   1       3.028   3.048   0.170  0.00  0.00     0.107 C 
HETATM   16  C   UNK N   1       2.509   1.676   0.428  0.00  0.00     0.097 C 
ATOM     17  HN  UNK N   1       2.003   3.808   1.688  1.00  0.00     0.161 HD
BRANCH  15  18
HETATM   18  O   UNK N   1       3.879   3.253  -0.856  0.00  0.00    -0.350 OA
HETATM   19  H   UNK N   1       4.298   2.811  -1.569  0.00  0.00     0.219 HD
ENDBRANCH  15  18
ENDBRANCH   2  14
ENDBRANCH   1   2
BRANCH   1  20
HETATM   20  O   UNK N   1       1.319   5.977  -0.741  0.00  0.00    -0.389 OA
BRANCH  20  21
HETATM   21  C   UNK N   1       0.940   7.303  -0.521  0.00  0.00     0.167 C 
BRANCH  21  22
HETATM   22  C   UNK N   1      -0.468   7.348   0.045  0.00  0.00     0.026 C 
BRANCH  22  23
HETATM   23  C   UNK N   1      -1.485   6.954  -1.017  0.00  0.00     0.002 C 
BRANCH  23  24
HETATM   24  C   UNK N   1      -1.482   5.448  -1.243  0.00  0.00     0.000 C 
BRANCH  24  25
HETATM   25  C   UNK N   1      -2.750   4.797  -0.712  0.00  0.00     0.000 C 
BRANCH  25  26
HETATM   26  C   UNK N   1      -2.717   4.604   0.800  0.00  0.00     0.000 C 
BRANCH  26  27
HETATM   27  C   UNK N   1      -2.896   5.912   1.566  0.00  0.00     0.000 C 
BRANCH  27  28
HETATM   28  C   UNK N   1      -4.313   6.455   1.465  0.00  0.00     0.000 C 
BRANCH  28  29
HETATM   29  C   UNK N   1      -4.520   7.258   0.186  0.00  0.00     0.000 C 
BRANCH  29  30
HETATM   30  C   UNK N   1      -5.473   6.537  -0.759  0.00  0.00     0.000 C 
BRANCH  30  31
HETATM   31  C   UNK N   1      -6.933   6.775  -0.397  0.00  0.00     0.000 C 
BRANCH  31  32
HETATM   32  C   UNK N   1      -7.269   6.138   0.942  0.00  0.00     0.000 C 
BRANCH  32  33
HETATM   33  C   UNK N   1      -8.766   6.011   1.132  0.00  0.00     0.000 C 
BRANCH  33  34
HETATM   34  C   UNK N   1      -9.262   4.748   0.452  0.00  0.00     0.000 C 
BRANCH  34  35
HETATM   35  C   UNK N   1      -9.745   5.062  -0.953  0.00  0.00     0.000 C 
BRANCH  35  36
HETATM   36  C   UNK N   1     -11.263   5.034  -1.006  0.00  0.00    -0.000 C 
BRANCH  36  37
HETATM   37  C   UNK N   1     -11.851   6.222  -0.268  0.00  0.00    -0.005 C 
HETATM   38  C   UNK N   1     -13.352   6.054  -0.165  0.00  0.00     0.005 C 
ENDBRANCH  36  37
ENDBRANCH  35  36
ENDBRANCH  34  35
ENDBRANCH  33  34
ENDBRANCH  32  33
ENDBRANCH  31  32
ENDBRANCH  30  31
ENDBRANCH  29  30
ENDBRANCH  28  29
ENDBRANCH  27  28
ENDBRANCH  26  27
ENDBRANCH  25  26
ENDBRANCH  24  25
ENDBRANCH  23  24
ENDBRANCH  22  23
ENDBRANCH  21  22
ENDBRANCH  20  21
ENDBRANCH   1  20
TORSDOF 29
