REMARK  6 active torsions:
REMARK  status: ('A' for Active; 'I' for Inactive)
REMARK    1  A    between atoms: C_2  and  N_1 
REMARK    2  A    between atoms: C_2  and  C_3 
REMARK    3  A    between atoms: C_2  and  C_6 
REMARK    4  A    between atoms: C_3  and  C_4 
REMARK    5  A    between atoms: C_4  and  O_5 
REMARK    6  A    between atoms: C_6  and  O_7 
ROOT
HETATM    1  C   UNK N   1       2.293   1.379  -0.000  0.00  0.00     0.175 C 
ENDROOT
BRANCH   1   2
HETATM    2  N   UNK N   1       2.872   2.710   0.000  0.00  0.00    -0.417 N 
HETATM    3  H   UNK N   1       3.885   2.825   0.000  0.00  0.00     0.150 HD
HETATM    4  H   UNK N   1       2.265   3.530   0.000  0.00  0.00     0.150 HD
ENDBRANCH   1   2
BRANCH   1   5
HETATM    5  C   UNK N   1       0.764   1.332   0.000  0.00  0.00     0.061 C 
BRANCH   5   6
HETATM    6  C   UNK N   1       0.173  -0.062  -0.000  0.00  0.00     0.166 C 
BRANCH   6   7
HETATM    7  O   UNK N   1      -1.218   0.034   0.000  0.00  0.00    -0.401 OA
HETATM    8  H   UNK N   1      -1.643   0.906   0.000  0.00  0.00     0.209 HD
ENDBRANCH   6   7
ENDBRANCH   5   6
ENDBRANCH   1   5
BRANCH   1   9
HETATM    9  C   UNK N   1       3.266   0.227   0.000  0.00  0.00     0.163 C 
HETATM   10  O   UNK N   1       2.873  -0.927   0.000  0.00  0.00    -0.648 OA
BRANCH   9  11
HETATM   11  O   UNK N   1       4.590   0.477   0.000  0.00  0.00    -0.775 OA
HETATM   12  H   UNK N   1       5.201  -0.234  -0.000  0.00  0.00     0.167 HD
ENDBRANCH   9  11
ENDBRANCH   1   9
TORSDOF 6
