REMARK  5 active torsions:
REMARK  status: ('A' for Active; 'I' for Inactive)
REMARK       I    between atoms: N_1  and  C_2 
REMARK       I    between atoms: C_2  and  N_3 
REMARK    1  A    between atoms: N_3  and  O_4 
REMARK    2  A    between atoms: N_5  and  C_7 
REMARK    3  A    between atoms: C_7  and  C_8 
REMARK    4  A    between atoms: C_8  and  C_9 
REMARK    5  A    between atoms: C_9  and  N_10 
ROOT
HETATM    1  N   UNK N   1       1.899  -0.541   0.010  0.00  0.00    -0.233 N 
HETATM    2  C   UNK N   1       0.948   0.510   0.002  0.00  0.00     0.691 C 
HETATM    3  N   UNK N   1       1.407   1.847  -0.004  0.00  0.00    -0.099 N 
HETATM    4  N   UNK N   1      -0.328   0.282   0.002  0.00  0.00    -0.225 N 
ATOM      5  HN  UNK N   1      -0.924   1.110  -0.002  1.00  0.00     0.177 HD
HETATM    6  H   UNK N   1       1.597  -1.478   0.016  0.00  0.00     0.174 HD
HETATM    7  H   UNK N   1       2.861  -0.333   0.010  0.00  0.00     0.174 HD
HETATM    8  H   UNK N   1       0.757   2.586  -0.009  0.00  0.00     0.213 HD
ENDROOT
BRANCH   4   9
HETATM    9  C   UNK N   1      -1.028  -1.000   0.009  0.00  0.00     0.139 C 
BRANCH   9  10
HETATM   10  C   UNK N   1      -0.146  -2.240  -0.029  0.00  0.00     0.047 C 
BRANCH  10  11
HETATM   11  C   UNK N   1      -0.977  -3.501   0.011  0.00  0.00     0.231 C 
BRANCH  11  12
HETATM   12  N   UNK N   1      -0.087  -4.647   0.001  0.00  0.00    -0.079 N 
HETATM   13  H   UNK N   1      -0.471  -5.592  -0.006  0.00  0.00     0.274 HD
HETATM   14  H   UNK N   1       0.924  -4.508   0.001  0.00  0.00     0.274 HD
HETATM   15  H   UNK N   1       0.539  -5.453  -0.006  0.00  0.00     0.274 HD
ENDBRANCH  11  12
ENDBRANCH  10  11
ENDBRANCH   9  10
ENDBRANCH   4   9
BRANCH   3  16
HETATM   16  O   UNK N   1       2.719   2.115  -0.002  0.00  0.00    -0.276 OA
HETATM   17  H   UNK N   1       3.362   1.389  -0.000  0.00  0.00     0.245 HD
ENDBRANCH   3  16
TORSDOF 5
