REMARK  2 active torsions:
REMARK  status: ('A' for Active; 'I' for Inactive)
REMARK    1  A    between atoms: C_3  and  O_9 
REMARK    2  A    between atoms: O_10  and  C_4 
ROOT
HETATM    1  C   UNK N   1       1.801  -0.526   0.000  0.00  0.00     0.134 A 
HETATM    2  C   UNK N   1       1.965   0.805   0.000  0.00  0.00     0.157 A 
HETATM    3  C   UNK N   1       0.725   1.731  -0.000  0.00  0.00     0.285 A 
HETATM    4  C   UNK N   1      -0.569  -0.433   0.000  0.00  0.00     0.219 A 
HETATM    5  F   UNK N   1       3.260   1.269   0.000  0.00  0.00    -0.205 F 
HETATM    6  N   UNK N   1       0.514  -1.128   0.000  0.00  0.00    -0.330 N 
ATOM      7  HN  UNK N   1       0.446  -2.146  -0.000  1.00  0.00     0.168 HD
HETATM    8  N   UNK N   1      -0.517   0.986  -0.000  0.00  0.00    -0.324 N 
HETATM    9  H   UNK N   1      -1.365   1.486   0.000  0.00  0.00     0.166 HD
ENDROOT
BRANCH   3  10
HETATM   10  O   UNK N   1       0.344   3.070   0.000  0.00  0.00    -0.370 OA
HETATM   11  H   UNK N   1       1.019   3.766   0.000  0.00  0.00     0.212 HD
ENDBRANCH   3  10
BRANCH   4  12
HETATM   12  O   UNK N   1      -1.762  -1.054   0.000  0.00  0.00    -0.332 OA
HETATM   13  H   UNK N   1      -2.552  -0.551   0.000  0.00  0.00     0.220 HD
ENDBRANCH   4  12
TORSDOF 2
