REMARK  2 active torsions:
REMARK  status: ('A' for Active; 'I' for Inactive)
REMARK    1  A    between atoms: O_1  and  C_2 
REMARK    2  A    between atoms: C_2  and  C_3 
ROOT
HETATM    1  C   UNK N   1       1.789   0.854   0.000  0.00  0.00     0.007 A 
HETATM    2  C   UNK N   1       1.686  -0.541   0.000  0.00  0.00     0.012 A 
HETATM    3  C   UNK N   1       0.437  -1.164   0.000  0.00  0.00     0.004 A 
HETATM    4  C   UNK N   1      -0.727  -0.397   0.000  0.00  0.00     0.045 A 
HETATM    5  C   UNK N   1      -0.646   0.997  -0.000  0.00  0.00     0.155 A 
HETATM    6  F   UNK N   1      -1.786   1.731  -0.000  0.00  0.00    -0.203 F 
HETATM    7  C   UNK N   1       0.605   1.633  -0.000  0.00  0.00     0.163 A 
HETATM    8  F   UNK N   1       0.651   2.989  -0.000  0.00  0.00    -0.202 F 
ENDROOT
BRANCH   1   9
HETATM    9  C   UNK N   1       3.177   1.438  -0.000  0.00  0.00     0.206 C 
BRANCH   9  10
HETATM   10  O   UNK N   1       3.197   2.833  -0.000  0.00  0.00    -0.396 OA
HETATM   11  H   UNK N   1       4.044   3.306  -0.000  0.00  0.00     0.209 HD
ENDBRANCH   9  10
ENDBRANCH   1   9
TORSDOF 2
