REMARK  5 active torsions:
REMARK  status: ('A' for Active; 'I' for Inactive)
REMARK    1  A    between atoms: C_2  and  C_3 
REMARK    2  A    between atoms: C_3  and  C_4 
REMARK    3  A    between atoms: C_4  and  N_5 
REMARK    4  A    between atoms: C_4  and  C_6 
REMARK    5  A    between atoms: C_6  and  O_7 
ROOT
HETATM    1  C   UNK N   1       2.255   1.365  -0.000  0.00  0.00     0.173 C 
ENDROOT
BRANCH   1   2
HETATM    2  C   UNK N   1       0.726   1.308   0.000  0.00  0.00     0.035 C 
BRANCH   2   3
HETATM    3  C   UNK N   1       0.180  -0.106  -0.000  0.00  0.00    -0.002 C 
HETATM    4  C   UNK N   1      -1.331  -0.078   0.000  0.00  0.00     0.005 C 
ENDBRANCH   2   3
ENDBRANCH   1   2
BRANCH   1   5
HETATM    5  N   UNK N   1       2.840   2.693   0.000  0.00  0.00    -0.418 N 
HETATM    6  H   UNK N   1       3.853   2.804   0.000  0.00  0.00     0.150 HD
HETATM    7  H   UNK N   1       2.236   3.516   0.000  0.00  0.00     0.150 HD
ENDBRANCH   1   5
BRANCH   1   8
HETATM    8  C   UNK N   1       3.218   0.203   0.000  0.00  0.00     0.163 C 
HETATM    9  O   UNK N   1       2.817  -0.947   0.000  0.00  0.00    -0.648 OA
BRANCH   8  10
HETATM   10  O   UNK N   1       4.544   0.440   0.000  0.00  0.00    -0.775 OA
HETATM   11  H   UNK N   1       5.148  -0.276   0.000  0.00  0.00     0.167 HD
ENDBRANCH   8  10
ENDBRANCH   1   8
TORSDOF 5
