REMARK  1 active torsions:
REMARK  status: ('A' for Active; 'I' for Inactive)
REMARK    1  A    between atoms: O_12  and  C_6 
ROOT
HETATM    1  C   UNK N   1       1.129   1.570   0.000  0.00  0.00     0.049 A 
HETATM    2  C   UNK N   1       0.359   0.402   0.000  0.00  0.00     0.091 A 
HETATM    3  C   UNK N   1       4.758   1.164  -0.000  0.00  0.00     0.183 A 
HETATM    4  C   UNK N   1       2.423   1.125  -0.000  0.00  0.00     0.065 A 
HETATM    5  C   UNK N   1       2.416  -0.226  -0.000  0.00  0.00     0.110 A 
HETATM    6  C   UNK N   1       3.613  -0.926  -0.000  0.00  0.00     0.170 A 
HETATM    7  N   UNK N   1       1.160  -0.696   0.000  0.00  0.00    -0.361 N 
HETATM    8  N   UNK N   1       3.571   1.842   0.000  0.00  0.00    -0.350 N 
ATOM      9  HN  UNK N   1       3.551   2.862   0.000  1.00  0.00     0.166 HD
HETATM   10  N   UNK N   1       4.775  -0.209  -0.000  0.00  0.00    -0.331 N 
ATOM     11  HN  UNK N   1       5.669  -0.700  -0.000  1.00  0.00     0.168 HD
HETATM   12  H   UNK N   1       0.877  -1.639   0.000  0.00  0.00     0.165 HD
ENDROOT
BRANCH   6  13
HETATM   13  O   UNK N   1       3.642  -2.269   0.000  0.00  0.00    -0.344 OA
HETATM   14  H   UNK N   1       2.840  -2.755   0.000  0.00  0.00     0.219 HD
ENDBRANCH   6  13
TORSDOF 1
