REMARK  2 active torsions:
REMARK  status: ('A' for Active; 'I' for Inactive)
REMARK    1  A    between atoms: C_5  and  O_6 
REMARK    2  A    between atoms: C_7  and  O_8 
ROOT
HETATM    1  C   UNK N   1       3.299  -1.071  -0.000  0.00  0.00     0.048 C 
HETATM    2  C   UNK N   1       1.985  -0.383  -0.000  0.00  0.00    -0.059 A 
HETATM    3  C   UNK N   1       0.804  -1.131   0.000  0.00  0.00     0.009 A 
HETATM    4  C   UNK N   1      -0.433  -0.483   0.000  0.00  0.00     0.040 A 
HETATM    5  C   UNK N   1      -0.492   0.914   0.000  0.00  0.00     0.098 A 
HETATM    6  C   UNK N   1       0.694   1.666  -0.000  0.00  0.00     0.099 A 
HETATM    7  C   UNK N   1       1.930   1.013  -0.000  0.00  0.00     0.046 A 
ENDROOT
BRANCH   5   8
HETATM    8  O   UNK N   1      -1.688   1.528  -0.000  0.00  0.00    -0.358 OA
HETATM    9  H   UNK N   1      -1.734   2.464  -0.000  0.00  0.00     0.217 HD
ENDBRANCH   5   8
BRANCH   6  10
HETATM   10  O   UNK N   1       0.653   3.009  -0.000  0.00  0.00    -0.358 OA
HETATM   11  H   UNK N   1       1.450   3.502  -0.000  0.00  0.00     0.217 HD
ENDBRANCH   6  10
TORSDOF 2
