REMARK  8 active torsions:
REMARK  status: ('A' for Active; 'I' for Inactive)
REMARK    1  A    between atoms: C_2  and  N_1 
REMARK    2  A    between atoms: C_2  and  C_3 
REMARK    3  A    between atoms: C_2  and  C_11 
REMARK    4  A    between atoms: C_3  and  C_4 
REMARK    5  A    between atoms: C_4  and  O_5 
REMARK    6  A    between atoms: C_4  and  O_6 
REMARK    7  A    between atoms: O_6  and  Be_7 
REMARK    8  A    between atoms: C_11  and  O_12 
ROOT
HETATM    1  C   UNK N   1       4.402   2.192  -0.598  0.00  0.00     0.099 C 
ENDROOT
BRANCH   1   2
HETATM    2  C   UNK N   1       5.586   2.159   0.352  0.00  0.00     0.178 C 
BRANCH   2   3
HETATM    3  N   UNK N   1       6.390   3.355   0.159  0.00  0.00    -0.417 N 
HETATM    4  H   UNK N   1       7.399   3.285   0.023  0.00  0.00     0.150 HD
HETATM    5  H   UNK N   1       5.942   4.271   0.159  0.00  0.00     0.150 HD
ENDBRANCH   2   3
BRANCH   2   6
HETATM    6  C   UNK N   1       6.404   0.922   0.101  0.00  0.00     0.163 C 
HETATM    7  O   UNK N   1       5.894  -0.180   0.229  0.00  0.00    -0.648 OA
BRANCH   6   8
HETATM    8  O   UNK N   1       7.700   1.016  -0.258  0.00  0.00    -0.775 OA
HETATM    9  H   UNK N   1       8.207   0.268  -0.508  0.00  0.00     0.167 HD
ENDBRANCH   6   8
ENDBRANCH   2   6
ENDBRANCH   1   2
BRANCH   1  10
HETATM   10  C   UNK N   1       3.088   2.112   0.159  0.00  0.00     0.296 C 
BRANCH  10  11
HETATM   11  O   UNK N   1       2.492   3.372   0.125  0.00  0.00    -0.368 OA
HETATM   12  H   UNK N   1       3.043   4.170   0.101  0.00  0.00     0.212 HD
ENDBRANCH  10  11
BRANCH  10  13
HETATM   13  O   UNK N   1       2.275   1.177  -0.491  0.00  0.00    -0.206 OA
BRANCH  13  14
HETATM   14 Be   UNK N   1       0.629   1.343  -0.040  0.00  0.00     0.000 Be
HETATM   15  F   UNK N   1      -0.223   1.920  -1.361  0.00  0.00     0.000 F 
HETATM   16  F   UNK N   1       0.027  -0.169   0.351  0.00  0.00     0.000 F 
HETATM   17  F   UNK N   1       0.376   2.362   1.271  0.00  0.00     0.000 F 
ENDBRANCH  13  14
ENDBRANCH  10  13
ENDBRANCH   1  10
TORSDOF 8
