REMARK  11 active torsions:
REMARK  status: ('A' for Active; 'I' for Inactive)
REMARK    1  A    between atoms: C_3  and  N_1 
REMARK    2  A    between atoms: C_9  and  O_16 
REMARK       I    between atoms: C_13  and  N_19 
REMARK    3  A    between atoms: C_14  and  C_20 
REMARK    4  A    between atoms: C_15  and  O_21 
REMARK    5  A    between atoms: C_20  and  O_22 
REMARK    6  A    between atoms: O_22  and  P_23 
REMARK    7  A    between atoms: P_23  and  O_24 
REMARK    8  A    between atoms: P_23  and  O_25 
REMARK    9  A    between atoms: O_24  and  P_27 
REMARK   10  A    between atoms: P_27  and  O_28 
REMARK   11  A    between atoms: P_27  and  O_29 
ROOT
HETATM    1  C   UNK N   1       1.126   0.365  -0.416  0.00  0.00     0.262 C 
HETATM    2  O   UNK N   1       0.256   0.982   0.491  0.00  0.00    -0.353 OA
HETATM    3  C   UNK N   1       0.902  -1.114  -0.237  0.00  0.00     0.198 C 
HETATM    4  C   UNK N   1      -0.933   0.235   0.375  0.00  0.00     0.180 C 
HETATM    5  C   UNK N   1      -0.592  -1.123  -0.215  0.00  0.00     0.182 C 
ENDROOT
BRANCH   1   6
HETATM    6  N   UNK N   1       2.503   0.825  -0.225  0.00  0.00    -0.297 N 
HETATM    7  C   UNK N   1       3.645   0.141  -0.046  0.00  0.00     0.159 A 
HETATM    8  C   UNK N   1       4.674   1.007   0.034  0.00  0.00     0.147 A 
HETATM    9  N   UNK N   1       3.820  -1.202   0.019  0.00  0.00    -0.174 N 
HETATM   10  C   UNK N   1       5.967   0.543   0.190  0.00  0.00     0.290 A 
HETATM   11  N   UNK N   1       4.222   2.269  -0.081  0.00  0.00    -0.345 N 
HETATM   12  N   UNK N   1       6.158  -0.820   0.257  0.00  0.00    -0.154 N 
HETATM   13  O   UNK N   1       6.913   1.308   0.256  0.00  0.00    -0.265 OA
HETATM   14  C   UNK N   1       5.093  -1.684   0.173  0.00  0.00     0.680 A 
HETATM   15  H   UNK N   1       7.068  -1.179   0.367  0.00  0.00     0.187 HD
HETATM   16  N   UNK N   1       5.313  -3.073   0.232  0.00  0.00    -0.234 N 
HETATM   17  H   UNK N   1       4.548  -3.692   0.274  0.00  0.00     0.174 HD
HETATM   18  H   UNK N   1       6.232  -3.426   0.232  0.00  0.00     0.174 HD
HETATM   19  C   UNK N   1       2.878   2.131  -0.246  0.00  0.00     0.188 A 
ATOM     20  HN  UNK N   1       4.763   3.133  -0.050  1.00  0.00     0.167 HD
ATOM     21  HN  UNK N   1       3.025  -1.837  -0.045  1.00  0.00     0.186 HD
ENDBRANCH   1   6
BRANCH   3  22
HETATM   22  O   UNK N   1       1.374  -1.842  -1.328  0.00  0.00    -0.388 OA
HETATM   23  H   UNK N   1       1.099  -2.381  -2.086  0.00  0.00     0.210 HD
ENDBRANCH   3  22
BRANCH   4  24
HETATM   24  C   UNK N   1      -1.891   0.961  -0.557  0.00  0.00     0.215 C 
BRANCH  24  25
HETATM   25  O   UNK N   1      -2.967   1.452   0.186  0.00  0.00    -0.294 OA
BRANCH  25  26
HETATM   26  P   UNK N   1      -4.386   0.752  -0.539  0.00  0.00     0.401 P 
HETATM   27  O   UNK N   1      -4.901   2.137  -0.059  0.00  0.00    -0.631 OA
BRANCH  26  28
HETATM   28  O   UNK N   1      -5.750   0.326   0.454  0.00  0.00    -0.195 OA
BRANCH  28  29
HETATM   29  P   UNK N   1      -6.971  -0.237  -0.650  0.00  0.00     0.399 P 
HETATM   30  O   UNK N   1      -7.732   0.800   0.219  0.00  0.00    -0.631 OA
BRANCH  29  31
HETATM   31  O   UNK N   1      -6.427  -1.568   0.325  0.00  0.00    -0.307 OA
HETATM   32  H   UNK N   1      -6.919  -2.202   0.869  0.00  0.00     0.222 HD
ENDBRANCH  29  31
BRANCH  29  33
HETATM   33  O   UNK N   1      -8.318  -1.144  -0.040  0.00  0.00    -0.307 OA
HETATM   34  H   UNK N   1      -9.134  -0.745   0.301  0.00  0.00     0.222 HD
ENDBRANCH  29  33
ENDBRANCH  28  29
ENDBRANCH  26  28
BRANCH  26  35
HETATM   35  O   UNK N   1      -3.931  -0.225   0.827  0.00  0.00    -0.307 OA
HETATM   36  H   UNK N   1      -4.277  -0.717   1.588  0.00  0.00     0.222 HD
ENDBRANCH  26  35
ENDBRANCH  25  26
ENDBRANCH  24  25
ENDBRANCH   4  24
BRANCH   5  37
HETATM   37  O   UNK N   1      -1.065  -2.152   0.600  0.00  0.00    -0.390 OA
HETATM   38  H   UNK N   1      -1.848  -2.225   1.167  0.00  0.00     0.210 HD
ENDBRANCH   5  37
TORSDOF 11
