REMARK  4 active torsions:
REMARK  status: ('A' for Active; 'I' for Inactive)
REMARK    1  A    between atoms: C_16  and  C_8 
REMARK    2  A    between atoms: C_17  and  C_9 
REMARK    3  A    between atoms: N_20  and  C_16 
REMARK    4  A    between atoms: N_23  and  C_17 
ROOT
HETATM    1  C   UNK N   1       6.802   4.334   0.039  0.00  0.00     0.017 A 
HETATM    2  C   UNK N   1      -1.956   4.167   0.022  0.00  0.00     0.017 A 
HETATM    3  C   UNK N   1       5.437   4.113   0.051  0.00  0.00     0.035 A 
HETATM    4  C   UNK N   1      -0.580   4.002   0.024  0.00  0.00     0.035 A 
HETATM    5  C   UNK N   1       7.225   1.906  -0.003  0.00  0.00     0.047 A 
HETATM    6  C   UNK N   1      -2.273   1.723  -0.027  0.00  0.00     0.047 A 
HETATM    7  C   UNK N   1       2.506   0.214  -0.020  0.00  0.00     0.157 A 
HETATM    8  C   UNK N   1       7.715   3.255   0.010  0.00  0.00     0.009 A 
HETATM    9  C   UNK N   1      -2.820   3.050  -0.001  0.00  0.00     0.009 A 
HETATM   10  C   UNK N   1       5.834   1.729   0.010  0.00  0.00     0.063 A 
HETATM   11  C   UNK N   1      -0.876   1.604  -0.024  0.00  0.00     0.063 A 
HETATM   12  C   UNK N   1       5.014   2.803   0.034  0.00  0.00     0.085 A 
HETATM   13  C   UNK N   1      -0.100   2.710   0.002  0.00  0.00     0.085 A 
HETATM   14  C   UNK N   1       3.791   1.065   0.003  0.00  0.00     0.112 A 
HETATM   15  C   UNK N   1       1.191   1.019  -0.018  0.00  0.00     0.112 A 
HETATM   16  N   UNK N   1       5.076   0.592  -0.009  0.00  0.00    -0.342 N 
HETATM   17  N   UNK N   1      -0.075   0.498  -0.038  0.00  0.00    -0.342 N 
HETATM   18  N   UNK N   1       3.769   2.414   0.030  0.00  0.00    -0.233 N 
HETATM   19  N   UNK N   1       1.160   2.369   0.007  0.00  0.00    -0.233 N 
HETATM   20 Zn   UNK N   1       2.444   3.560   0.045  0.00  0.00     0.000 Zn
HETATM   21  H   UNK N   1       5.382  -0.343  -0.027  0.00  0.00     0.167 HD
HETATM   22  H   UNK N   1      -0.344  -0.449  -0.058  0.00  0.00     0.167 HD
ENDROOT
BRANCH   8  23
HETATM   23  C   UNK N   1       9.164   3.566  -0.015  0.00  0.00     0.102 C 
HETATM   24  N   UNK N   1       9.584   4.788  -0.022  0.00  0.00    -0.385 N 
HETATM   25  H   UNK N   1       8.946   5.601  -0.011  0.00  0.00     0.157 HD
ATOM     26  HN  UNK N   1      10.590   4.957  -0.040  1.00  0.00     0.157 HD
BRANCH  23  27
HETATM   27  N   UNK N   1      10.107   2.518  -0.037  0.00  0.00    -0.385 N 
HETATM   28  H   UNK N   1       9.803   1.582  -0.052  0.00  0.00     0.157 HD
HETATM   29  H   UNK N   1      11.070   2.722  -0.037  0.00  0.00     0.157 HD
ENDBRANCH  23  27
ENDBRANCH   8  23
BRANCH   9  30
HETATM   30  C   UNK N   1      -4.275   3.330   0.008  0.00  0.00     0.102 C 
HETATM   31  N   UNK N   1      -5.144   2.386  -0.010  0.00  0.00    -0.385 N 
HETATM   32  H   UNK N   1      -4.871   1.396  -0.033  0.00  0.00     0.157 HD
ATOM     33  HN  UNK N   1      -6.136   2.626  -0.001  1.00  0.00     0.157 HD
BRANCH  30  34
HETATM   34  N   UNK N   1      -4.722   4.674   0.041  0.00  0.00    -0.385 N 
HETATM   35  H   UNK N   1      -4.068   5.409   0.065  0.00  0.00     0.157 HD
HETATM   36  H   UNK N   1      -5.686   4.872   0.041  0.00  0.00     0.157 HD
ENDBRANCH  30  34
ENDBRANCH   9  30
TORSDOF 4
