REMARK  10 active torsions:
REMARK  status: ('A' for Active; 'I' for Inactive)
REMARK    1  A    between atoms: C_17  and  C_15 
REMARK    2  A    between atoms: C_22  and  C_15 
REMARK    3  A    between atoms: C_24  and  C_20 
REMARK    4  A    between atoms: S_37  and  C_21 
REMARK    5  A    between atoms: C_25  and  C_22 
REMARK    6  A    between atoms: C_22  and  N_30 
REMARK    7  A    between atoms: C_23  and  C_26 
REMARK    8  A    between atoms: N_29  and  C_24 
REMARK       I    between atoms: N_31  and  C_25 
REMARK    9  A    between atoms: O_34  and  C_26 
REMARK   10  A    between atoms: S_37  and  N_30 
ROOT
HETATM    1  C   UNK N   1       3.635   4.129  -0.295  0.00  0.00     0.189 C 
ENDROOT
BRANCH   1   2
HETATM    2  C   UNK N   1       4.886   4.902   0.063  0.00  0.00     0.074 C 
BRANCH   2   3
HETATM    3  C   UNK N   1       6.145   4.128   0.205  0.00  0.00    -0.055 A 
HETATM    4  C   UNK N   1       6.198   2.736   0.363  0.00  0.00     0.007 A 
HETATM    5  C   UNK N   1       7.430   2.079   0.393  0.00  0.00     0.002 A 
HETATM    6  C   UNK N   1       8.609   2.816   0.232  0.00  0.00     0.015 A 
HETATM    7  C   UNK N   1       8.547   4.212   0.084  0.00  0.00     0.007 A 
HETATM    8  C   UNK N   1       7.315   4.848   0.084  0.00  0.00     0.022 A 
BRANCH   7   9
HETATM    9  C   UNK N   1       9.748   5.027  -0.140  0.00  0.00     0.102 C 
HETATM   10  N   UNK N   1      10.876   4.469  -0.377  0.00  0.00    -0.385 N 
HETATM   11  H   UNK N   1      10.938   3.503  -0.559  0.00  0.00     0.157 HD
ATOM     12  HN  UNK N   1      11.725   5.034  -0.377  1.00  0.00     0.157 HD
BRANCH   9  13
HETATM   13  N   UNK N   1       9.640   6.437  -0.203  0.00  0.00    -0.385 N 
HETATM   14  H   UNK N   1      10.451   6.992  -0.247  0.00  0.00     0.157 HD
HETATM   15  H   UNK N   1       8.752   6.862  -0.203  0.00  0.00     0.157 HD
ENDBRANCH   9  13
ENDBRANCH   7   9
ENDBRANCH   2   3
ENDBRANCH   1   2
BRANCH   1  16
HETATM   16  C   UNK N   1       2.453   5.068  -0.512  0.00  0.00     0.244 C 
HETATM   17  N   UNK N   1       2.079   6.059   0.384  0.00  0.00    -0.336 N 
HETATM   18  C   UNK N   1       3.025   6.502   1.383  0.00  0.00     0.127 C 
HETATM   19  C   UNK N   1       1.071   7.059   0.068  0.00  0.00     0.185 C 
HETATM   20  C   UNK N   1       3.817   7.673   0.750  0.00  0.00     0.020 C 
HETATM   21  C   UNK N   1       2.924   8.713   0.024  0.00  0.00     0.004 C 
HETATM   22  C   UNK N   1       1.767   8.101  -0.801  0.00  0.00     0.036 C 
HETATM   23  O   UNK N   1       1.846   4.959  -1.574  0.00  0.00    -0.271 OA
BRANCH  19  24
HETATM   24  C   UNK N   1      -0.246   6.533  -0.458  0.00  0.00     0.163 C 
HETATM   25  O   UNK N   1      -1.133   7.317  -0.750  0.00  0.00    -0.648 OA
BRANCH  24  26
HETATM   26  O   UNK N   1      -0.494   5.211  -0.508  0.00  0.00    -0.775 OA
HETATM   27  H   UNK N   1      -1.378   4.900  -0.543  0.00  0.00     0.167 HD
ENDBRANCH  24  26
ENDBRANCH  19  24
ENDBRANCH   1  16
BRANCH   1  28
HETATM   28  N   UNK N   1       3.356   3.153   0.756  0.00  0.00    -0.301 N 
HETATM   29  H   UNK N   1       3.284   3.365   1.751  0.00  0.00     0.173 HD
BRANCH  28  30
HETATM   30  S   UNK N   1       3.161   1.539   0.037  0.00  0.00     0.259 S 
HETATM   31  O   UNK N   1       4.286   0.586   0.467  0.00  0.00    -0.201 OA
HETATM   32  O   UNK N   1       2.616   1.223   1.439  0.00  0.00    -0.201 OA
BRANCH  30  33
HETATM   33  C   UNK N   1       1.537   0.960  -0.336  0.00  0.00     0.080 A 
HETATM   34  C   UNK N   1       1.246  -0.410  -0.404  0.00  0.00     0.026 A 
HETATM   35  C   UNK N   1      -0.086  -0.832  -0.376  0.00  0.00     0.014 A 
HETATM   36  C   UNK N   1      -1.109   0.116  -0.246  0.00  0.00    -0.026 A 
HETATM   37  C   UNK N   1      -2.434  -0.289  -0.088  0.00  0.00     0.012 A 
HETATM   38  C   UNK N   1      -0.799   1.494  -0.229  0.00  0.00    -0.025 A 
HETATM   39  C   UNK N   1      -3.439   0.670   0.092  0.00  0.00     0.001 A 
HETATM   40  C   UNK N   1      -3.125   2.033   0.091  0.00  0.00     0.001 A 
HETATM   41  C   UNK N   1      -1.803   2.444  -0.072  0.00  0.00     0.012 A 
HETATM   42  C   UNK N   1       0.517   1.903  -0.281  0.00  0.00     0.037 A 
ENDBRANCH  30  33
ENDBRANCH  28  30
ENDBRANCH   1  28
TORSDOF 10
