REMARK  8 active torsions:
REMARK  status: ('A' for Active; 'I' for Inactive)
REMARK    1  A    between atoms: C_5  and  C_3 
REMARK    2  A    between atoms: C_6  and  N_14 
REMARK    3  A    between atoms: C_7  and  N_14 
REMARK    4  A    between atoms: C_9  and  O_17 
REMARK    5  A    between atoms: C_10  and  O_18 
REMARK    6  A    between atoms: C_11  and  O_19 
REMARK    7  A    between atoms: C_12  and  O_20 
REMARK    8  A    between atoms: C_13  and  O_21 
ROOT
HETATM    1  N   UNK N   1      -1.998  -2.453  -0.804  0.00  0.00    -0.399 N 
HETATM    2  H   UNK N   1      -1.968  -1.887  -1.652  0.00  0.00     0.154 HD
ENDROOT
BRANCH   1   3
HETATM    3  C   UNK N   1      -1.787  -1.839   0.524  0.00  0.00     0.133 C 
HETATM    4  C   UNK N   1      -0.434  -2.220   1.078  0.00  0.00     0.018 C 
HETATM    5  C   UNK N   1       0.688  -1.595   0.685  0.00  0.00     0.048 C 
HETATM    6  C   UNK N   1       0.600  -0.416  -0.231  0.00  0.00     0.193 C 
HETATM    7  C   UNK N   1      -0.741   0.216  -0.541  0.00  0.00     0.223 C 
HETATM    8  O   UNK N   1       1.606   0.024  -0.767  0.00  0.00    -0.289 OA
HETATM    9  C   UNK N   1      -1.853  -0.309   0.396  0.00  0.00     0.180 C 
BRANCH   5  10
HETATM   10  C   UNK N   1       1.980  -2.148   1.137  0.00  0.00     0.273 C 
HETATM   11  O   UNK N   1       3.042  -1.699   0.735  0.00  0.00    -0.301 OA
ENDBRANCH   5  10
BRANCH   7  12
HETATM   12  O   UNK N   1      -0.659   1.605  -0.415  0.00  0.00    -0.385 OA
HETATM   13  H   UNK N   1       0.205   2.038  -0.327  0.00  0.00     0.210 HD
ENDBRANCH   7  12
BRANCH   9  14
HETATM   14  O   UNK N   1      -1.701   0.255   1.670  0.00  0.00    -0.390 OA
HETATM   15  H   UNK N   1      -1.311   0.359   2.552  0.00  0.00     0.210 HD
ENDBRANCH   9  14
ENDBRANCH   1   3
BRANCH   1  16
HETATM   16  C   UNK N   1      -2.254  -3.914  -0.873  0.00  0.00     0.165 C 
HETATM   17  C   UNK N   1      -1.074  -4.768  -0.431  0.00  0.00     0.065 C 
HETATM   18  C   UNK N   1       0.172  -4.484  -0.811  0.00  0.00     0.048 C 
HETATM   19  O   UNK N   1      -1.322  -5.955   0.186  0.00  0.00    -0.321 OA
HETATM   20  C   UNK N   1      -2.442  -6.680  -0.181  0.00  0.00     0.294 C 
HETATM   21  C   UNK N   1      -3.754  -5.856  -0.089  0.00  0.00     0.204 C 
HETATM   22  C   UNK N   1      -3.474  -4.342  -0.027  0.00  0.00     0.180 C 
BRANCH  20  23
HETATM   23  O   UNK N   1      -2.522  -7.873   0.541  0.00  0.00    -0.368 OA
HETATM   24  H   UNK N   1      -3.267  -8.239   1.043  0.00  0.00     0.212 HD
ENDBRANCH  20  23
BRANCH  21  25
HETATM   25  O   UNK N   1      -4.497  -6.214   1.041  0.00  0.00    -0.388 OA
HETATM   26  H   UNK N   1      -4.970  -5.891   1.824  0.00  0.00     0.210 HD
ENDBRANCH  21  25
BRANCH  22  27
HETATM   27  O   UNK N   1      -4.617  -3.620  -0.379  0.00  0.00    -0.390 OA
HETATM   28  H   UNK N   1      -4.580  -2.682  -0.624  0.00  0.00     0.210 HD
ENDBRANCH  22  27
ENDBRANCH   1  16
TORSDOF 8
