REMARK  3 active torsions:
REMARK  status: ('A' for Active; 'I' for Inactive)
REMARK    1  A    between atoms: O_2  and  C_3 
REMARK    2  A    between atoms: C_9  and  C_14 
REMARK    3  A    between atoms: C_17  and  O_18 
ROOT
HETATM    1  C   UNK N   1      -0.845  -2.131   0.219  0.00  0.00     0.070 A 
HETATM    2  C   UNK N   1      -0.950  -0.735   0.238  0.00  0.00     0.038 A 
HETATM    3  C   UNK N   1       0.197   0.064   0.186  0.00  0.00     0.021 A 
HETATM    4  C   UNK N   1       1.466  -0.529   0.116  0.00  0.00     0.049 A 
HETATM    5  C   UNK N   1       2.639   0.241   0.072  0.00  0.00     0.197 A 
HETATM    6  O   UNK N   1       2.568   1.460   0.095  0.00  0.00    -0.286 OA
HETATM    7  C   UNK N   1       3.892  -0.414   0.020  0.00  0.00     0.048 A 
HETATM    8  C   UNK N   1       3.895  -1.819   0.011  0.00  0.00     0.159 A 
HETATM    9  O   UNK N   1       2.766  -2.517   0.041  0.00  0.00    -0.321 OA
HETATM   10  C   UNK N   1       1.576  -1.936   0.095  0.00  0.00     0.091 A 
HETATM   11  C   UNK N   1       0.426  -2.725   0.144  0.00  0.00     0.075 A 
ENDROOT
BRANCH   7  12
HETATM   12  C   UNK N   1       5.202   0.303  -0.025  0.00  0.00    -0.020 A 
HETATM   13  C   UNK N   1       5.279   1.693  -0.218  0.00  0.00     0.015 A 
HETATM   14  C   UNK N   1       6.520   2.335  -0.280  0.00  0.00     0.037 A 
HETATM   15  C   UNK N   1       7.698   1.598  -0.139  0.00  0.00     0.065 A 
HETATM   16  C   UNK N   1       7.636   0.219   0.064  0.00  0.00     0.037 A 
HETATM   17  C   UNK N   1       6.398  -0.425   0.113  0.00  0.00     0.015 A 
BRANCH  15  18
HETATM   18  O   UNK N   1       8.889   2.213  -0.200  0.00  0.00    -0.361 OA
HETATM   19  H   UNK N   1       9.677   1.708  -0.243  0.00  0.00     0.217 HD
ENDBRANCH  15  18
ENDBRANCH   7  12
BRANCH   1  20
HETATM   20  O   UNK N   1      -1.972  -2.878   0.281  0.00  0.00    -0.356 OA
HETATM   21  C   UNK N   1      -1.963  -4.255   0.293  0.00  0.00     0.210 C 
ENDBRANCH   1  20
TORSDOF 3
