REMARK  10 active torsions:
REMARK  status: ('A' for Active; 'I' for Inactive)
REMARK    1  A    between atoms: C_3  and  C_2 
REMARK    2  A    between atoms: S_17  and  C_2 
REMARK    3  A    between atoms: C_7  and  C_3 
REMARK    4  A    between atoms: C_3  and  N_9 
REMARK    5  A    between atoms: C_4  and  C_6 
REMARK    6  A    between atoms: C_5  and  S_17 
REMARK    7  A    between atoms: C_8  and  C_6 
REMARK    8  A    between atoms: C_6  and  N_10 
REMARK    9  A    between atoms: O_13  and  C_7 
REMARK   10  A    between atoms: O_15  and  C_8 
ROOT
HETATM    1  C   UNK N   1       2.165   2.151   0.079  0.00  0.00     0.075 C 
HETATM    2  C   UNK N   1       3.008   3.336  -0.300  0.00  0.00     0.187 C 
HETATM    3  C   UNK N   1       0.846   2.741  -0.225  0.00  0.00     0.169 C 
HETATM    4  N   UNK N   1       0.974   4.108   0.253  0.00  0.00    -0.287 N 
HETATM    5  O   UNK N   1       2.292   4.478   0.125  0.00  0.00    -0.276 OA
HETATM    6  H   UNK N   1       0.220   4.689   0.619  0.00  0.00     0.189 HD
ENDROOT
BRANCH   3   7
HETATM    7  S   UNK N   1      -0.471   1.827   0.629  0.00  0.00    -0.139 SA
BRANCH   7   8
HETATM    8  C   UNK N   1      -1.795   2.644  -0.319  0.00  0.00     0.111 C 
BRANCH   8   9
HETATM    9  C   UNK N   1      -3.083   2.693   0.486  0.00  0.00     0.182 C 
BRANCH   9  10
HETATM   10  C   UNK N   1      -4.072   3.593  -0.202  0.00  0.00     0.163 C 
HETATM   11  O   UNK N   1      -5.155   3.164  -0.572  0.00  0.00    -0.648 OA
BRANCH  10  12
HETATM   12  O   UNK N   1      -3.768   4.889  -0.402  0.00  0.00    -0.775 OA
HETATM   13  H   UNK N   1      -2.881   5.158  -0.540  0.00  0.00     0.167 HD
ENDBRANCH  10  12
ENDBRANCH   9  10
BRANCH   9  14
HETATM   14  N   UNK N   1      -3.617   1.346   0.626  0.00  0.00    -0.417 N 
HETATM   15  H   UNK N   1      -4.621   1.198   0.724  0.00  0.00     0.150 HD
HETATM   16  H   UNK N   1      -2.984   0.546   0.626  0.00  0.00     0.150 HD
ENDBRANCH   9  14
ENDBRANCH   8   9
ENDBRANCH   7   8
ENDBRANCH   3   7
BRANCH   2  17
HETATM   17  C   UNK N   1       4.413   3.285   0.326  0.00  0.00     0.205 C 
BRANCH  17  18
HETATM   18  C   UNK N   1       5.192   2.050  -0.071  0.00  0.00     0.165 C 
HETATM   19  O   UNK N   1       6.326   1.889   0.355  0.00  0.00    -0.648 OA
BRANCH  18  20
HETATM   20  O   UNK N   1       4.656   1.118  -0.883  0.00  0.00    -0.775 OA
HETATM   21  H   UNK N   1       3.909   1.116  -1.448  0.00  0.00     0.167 HD
ENDBRANCH  18  20
ENDBRANCH  17  18
BRANCH  17  22
HETATM   22  N   UNK N   1       5.157   4.463  -0.093  0.00  0.00    -0.416 N 
HETATM   23  H   UNK N   1       6.133   4.424  -0.387  0.00  0.00     0.150 HD
HETATM   24  H   UNK N   1       4.683   5.366  -0.093  0.00  0.00     0.150 HD
ENDBRANCH  17  22
ENDBRANCH   2  17
TORSDOF 10
