REMARK  18 active torsions:
REMARK  status: ('A' for Active; 'I' for Inactive)
REMARK    1  A    between atoms: C_3  and  C_1 
REMARK    2  A    between atoms: O_37  and  C_1 
REMARK    3  A    between atoms: C_5  and  O_25 
REMARK    4  A    between atoms: C_6  and  O_26 
REMARK    5  A    between atoms: C_7  and  O_27 
REMARK    6  A    between atoms: C_8  and  O_28 
REMARK    7  A    between atoms: C_9  and  O_29 
REMARK    8  A    between atoms: C_10  and  C_14 
REMARK    9  A    between atoms: O_30  and  C_12 
REMARK   10  A    between atoms: C_13  and  N_24 
REMARK   11  A    between atoms: O_32  and  C_14 
REMARK   12  A    between atoms: C_15  and  O_40 
REMARK       I    between atoms: N_17  and  C_16 
REMARK   13  A    between atoms: P_42  and  O_33 
REMARK   14  A    between atoms: P_43  and  O_35 
REMARK   15  A    between atoms: P_42  and  O_37 
REMARK   16  A    between atoms: P_43  and  O_40 
REMARK   17  A    between atoms: P_42  and  O_41 
REMARK   18  A    between atoms: P_43  and  O_41 
ROOT
HETATM    1  C   UNK N   1      -1.265  -4.973   0.846  0.00  0.00     0.215 C 
ENDROOT
BRANCH   1   2
HETATM    2  C   UNK N   1      -0.102  -4.000   0.852  0.00  0.00     0.180 C 
HETATM    3  C   UNK N   1       0.954  -4.421  -0.167  0.00  0.00     0.182 C 
HETATM    4  C   UNK N   1       1.596  -3.092  -0.362  0.00  0.00     0.198 C 
HETATM    5  C   UNK N   1       0.350  -2.213  -0.466  0.00  0.00     0.262 C 
HETATM    6  O   UNK N   1      -0.513  -2.666   0.554  0.00  0.00    -0.353 OA
BRANCH   3   7
HETATM    7  O   UNK N   1       0.371  -4.842  -1.370  0.00  0.00    -0.390 OA
HETATM    8  H   UNK N   1      -0.083  -4.639  -2.202  0.00  0.00     0.210 HD
ENDBRANCH   3   7
BRANCH   4   9
HETATM    9  O   UNK N   1       2.402  -3.039  -1.502  0.00  0.00    -0.388 OA
HETATM   10  H   UNK N   1       2.713  -3.505  -2.293  0.00  0.00     0.210 HD
ENDBRANCH   4   9
BRANCH   5  11
HETATM   11  N   UNK N   1       0.608  -0.772  -0.342  0.00  0.00    -0.297 N 
HETATM   12  C   UNK N   1      -0.338   0.204  -0.426  0.00  0.00     0.188 A 
HETATM   13  N   UNK N   1       0.212   1.445  -0.301  0.00  0.00    -0.346 N 
HETATM   14  C   UNK N   1       1.528   1.211  -0.136  0.00  0.00     0.130 A 
ATOM     15  HN  UNK N   1      -0.265   2.346  -0.328  1.00  0.00     0.167 HD
HETATM   16  C   UNK N   1       1.761  -0.113  -0.159  0.00  0.00     0.157 A 
HETATM   17  C   UNK N   1       2.577   2.099   0.036  0.00  0.00     0.186 A 
HETATM   18  N   UNK N   1       3.005  -0.630  -0.014  0.00  0.00    -0.174 N 
HETATM   19  C   UNK N   1       4.049   0.228   0.165  0.00  0.00     0.679 A 
HETATM   20  H   UNK N   1       3.152  -1.604  -0.038  0.00  0.00     0.186 HD
HETATM   21  N   UNK N   1       5.231  -0.236   0.315  0.00  0.00    -0.234 N 
HETATM   22  N   UNK N   1       3.836   1.584   0.187  0.00  0.00    -0.168 N 
HETATM   23  H   UNK N   1       5.377  -1.203   0.431  0.00  0.00     0.174 HD
ATOM     24  HN  UNK N   1       6.029   0.400   0.315  1.00  0.00     0.174 HD
ATOM     25  HN  UNK N   1       4.626   2.216   0.319  1.00  0.00     0.186 HD
BRANCH  17  26
HETATM   26  O   UNK N   1       2.375   3.426   0.053  0.00  0.00    -0.344 OA
HETATM   27  H   UNK N   1       3.106   4.012   0.066  0.00  0.00     0.219 HD
ENDBRANCH  17  26
ENDBRANCH   5  11
ENDBRANCH   1   2
BRANCH   1  28
HETATM   28  O   UNK N   1      -2.382  -4.311   0.360  0.00  0.00    -0.294 OA
BRANCH  28  29
HETATM   29  P   UNK N   1      -2.789  -4.950  -1.210  0.00  0.00     0.401 P 
HETATM   30  O   UNK N   1      -2.409  -6.455  -1.287  0.00  0.00    -0.631 OA
BRANCH  29  31
HETATM   31  O   UNK N   1      -2.021  -4.110  -2.522  0.00  0.00    -0.307 OA
HETATM   32  H   UNK N   1      -1.400  -4.246  -3.255  0.00  0.00     0.222 HD
ENDBRANCH  29  31
BRANCH  29  33
HETATM   33  O   UNK N   1      -4.500  -4.871  -1.423  0.00  0.00    -0.195 OA
BRANCH  33  34
HETATM   34  P   UNK N   1      -5.169  -4.246   0.060  0.00  0.00     0.404 P 
HETATM   35  O   UNK N   1      -4.995  -5.324   1.166  0.00  0.00    -0.631 OA
BRANCH  34  36
HETATM   36  O   UNK N   1      -4.486  -2.729   0.567  0.00  0.00    -0.307 OA
HETATM   37  H   UNK N   1      -3.563  -2.636   0.850  0.00  0.00     0.222 HD
ENDBRANCH  34  36
BRANCH  34  38
HETATM   38  O   UNK N   1      -6.841  -4.065  -0.288  0.00  0.00    -0.263 OA
BRANCH  38  39
HETATM   39  C   UNK N   1      -7.602  -3.841   0.865  0.00  0.00     0.304 C 
HETATM   40  C   UNK N   1      -8.960  -3.363   0.360  0.00  0.00     0.205 C 
HETATM   41  C   UNK N   1      -9.522  -4.470  -0.548  0.00  0.00     0.183 C 
HETATM   42  C   UNK N   1      -9.683  -5.726   0.310  0.00  0.00     0.189 C 
HETATM   43  C   UNK N   1      -8.377  -6.116   1.057  0.00  0.00     0.253 C 
HETATM   44  O   UNK N   1      -7.719  -5.010   1.677  0.00  0.00    -0.340 OA
BRANCH  40  45
HETATM   45  O   UNK N   1      -8.798  -2.180  -0.369  0.00  0.00    -0.388 OA
HETATM   46  H   UNK N   1      -8.031  -1.868  -0.875  0.00  0.00     0.210 HD
ENDBRANCH  40  45
BRANCH  41  47
HETATM   47  O   UNK N   1     -10.755  -4.080  -1.073  0.00  0.00    -0.390 OA
HETATM   48  H   UNK N   1     -10.949  -3.202  -1.438  0.00  0.00     0.210 HD
ENDBRANCH  41  47
BRANCH  42  49
HETATM   49  O   UNK N   1     -10.154  -6.794  -0.458  0.00  0.00    -0.390 OA
HETATM   50  H   UNK N   1     -10.960  -6.882  -0.991  0.00  0.00     0.210 HD
ENDBRANCH  42  49
BRANCH  43  51
HETATM   51  C   UNK N   1      -7.416  -6.999   0.283  0.00  0.00     0.172 C 
HETATM   52  O   UNK N   1      -6.933  -6.638  -0.775  0.00  0.00    -0.648 OA
BRANCH  51  53
HETATM   53  O   UNK N   1      -7.109  -8.221   0.764  0.00  0.00    -0.774 OA
HETATM   54  H   UNK N   1      -7.737  -8.831   1.099  0.00  0.00     0.167 HD
ENDBRANCH  51  53
ENDBRANCH  43  51
ENDBRANCH  38  39
ENDBRANCH  34  38
ENDBRANCH  33  34
ENDBRANCH  29  33
ENDBRANCH  28  29
ENDBRANCH   1  28
TORSDOF 18
