REMARK  1 active torsions:
REMARK  status: ('A' for Active; 'I' for Inactive)
REMARK    1  A    between atoms: O_12  and  C_6 
ROOT
HETATM    1  C   UNK N   1       4.593   1.132  -0.000  0.00  0.00     0.039 A 
HETATM    2  C   UNK N   1       3.393   1.870  -0.000  0.00  0.00     0.035 A 
HETATM    3  C   UNK N   1       3.333  -0.969  -0.000  0.00  0.00     0.068 A 
HETATM    4  C   UNK N   1       0.168   0.512   0.000  0.00  0.00     0.181 A 
HETATM    5  C   UNK N   1       4.568  -0.293  -0.000  0.00  0.00     0.070 A 
HETATM    6  C   UNK N   1       2.202   1.152   0.000  0.00  0.00     0.060 A 
HETATM    7  C   UNK N   1       2.175  -0.203  -0.000  0.00  0.00     0.062 A 
HETATM    8  N   UNK N   1       0.949   1.626   0.000  0.00  0.00    -0.351 N 
ATOM      9  HN  UNK N   1       0.649   2.601   0.000  1.00  0.00     0.166 HD
HETATM   10  N   UNK N   1       0.906  -0.629   0.000  0.00  0.00    -0.350 N 
HETATM   11  H   UNK N   1       0.581  -1.559   0.000  0.00  0.00     0.166 HD
ENDROOT
BRANCH   5  12
HETATM   12  O   UNK N   1       5.707  -1.023  -0.000  0.00  0.00    -0.356 OA
HETATM   13  C   UNK N   1       6.963  -0.461   0.000  0.00  0.00     0.210 C 
ENDBRANCH   5  12
TORSDOF 1
