REMARK  4 active torsions:
REMARK  status: ('A' for Active; 'I' for Inactive)
REMARK    1  A    between atoms: O_1  and  C_2 
REMARK    2  A    between atoms: C_2  and  C_4 
REMARK    3  A    between atoms: C_8  and  C_11 
REMARK    4  A    between atoms: C_11  and  O_12 
ROOT
HETATM    1  C   UNK N   1       1.601  -0.442   0.000  0.00  0.00     0.107 A 
HETATM    2  C   UNK N   1       0.393  -1.153  -0.000  0.00  0.00     0.037 A 
HETATM    3  C   UNK N   1      -0.814  -0.450  -0.000  0.00  0.00     0.005 A 
HETATM    4  C   UNK N   1      -0.805   0.947  -0.000  0.00  0.00     0.037 A 
HETATM    5  C   UNK N   1       0.422   1.624  -0.000  0.00  0.00     0.107 A 
HETATM    6  N   UNK N   1       1.581   0.916   0.000  0.00  0.00    -0.345 N 
ATOM      7  HN  UNK N   1       2.467   1.421   0.000  1.00  0.00     0.166 HD
ENDROOT
BRANCH   1   8
HETATM    8  C   UNK N   1       2.893  -1.143   0.000  0.00  0.00     0.193 C 
HETATM    9  O   UNK N   1       3.932  -0.500   0.000  0.00  0.00    -0.645 OA
BRANCH   8  10
HETATM   10  O   UNK N   1       2.944  -2.488  -0.000  0.00  0.00    -0.772 OA
HETATM   11  H   UNK N   1       2.150  -2.986  -0.000  0.00  0.00     0.167 HD
ENDBRANCH   8  10
ENDBRANCH   1   8
BRANCH   5  12
HETATM   12  C   UNK N   1       0.476   3.093  -0.000  0.00  0.00     0.193 C 
HETATM   13  O   UNK N   1       1.559   3.661   0.000  0.00  0.00    -0.645 OA
BRANCH  12  14
HETATM   14  O   UNK N   1      -0.656   3.821   0.000  0.00  0.00    -0.772 OA
HETATM   15  H   UNK N   1      -0.611   4.757   0.000  0.00  0.00     0.167 HD
ENDBRANCH  12  14
ENDBRANCH   5  12
TORSDOF 4
