REMARK  3 active torsions:
REMARK  status: ('A' for Active; 'I' for Inactive)
REMARK    1  A    between atoms: C_6  and  C_7 
REMARK    2  A    between atoms: C_6  and  C_8 
REMARK    3  A    between atoms: C_7  and  N_9 
ROOT
HETATM    1  C   UNK N   1      14.464 -10.380   0.000  0.00  0.00     0.000 A 
HETATM    2  C   UNK N   1      13.067 -10.399   0.000  0.00  0.00     0.001 A 
HETATM    3  C   UNK N   1      15.179 -11.582   0.000  0.00  0.00     0.001 A 
HETATM    4  C   UNK N   1      12.383 -11.618   0.000  0.00  0.00     0.007 A 
HETATM    5  C   UNK N   1      14.495 -12.801   0.000  0.00  0.00     0.007 A 
HETATM    6  C   UNK N   1      13.097 -12.830   0.000  0.00  0.00    -0.057 A 
ENDROOT
BRANCH   6   7
HETATM    7  C   UNK N   1      12.406 -14.162   0.000  0.00  0.00     0.057 C 
BRANCH   7   8
HETATM    8  C   UNK N   1      10.887 -14.082  -0.000  0.00  0.00     0.115 C 
BRANCH   8   9
HETATM    9  N   UNK N   1      10.338 -15.425   0.000  0.00  0.00    -0.430 N 
HETATM   10  H   UNK N   1       9.327 -15.563   0.000  0.00  0.00     0.149 HD
HETATM   11  H   UNK N   1      10.963 -16.232   0.000  0.00  0.00     0.149 HD
ENDBRANCH   8   9
ENDBRANCH   7   8
ENDBRANCH   6   7
TORSDOF 3
