REMARK  1 active torsions:
REMARK  status: ('A' for Active; 'I' for Inactive)
REMARK    1  A    between atoms: C_2  and  C_3 
REMARK       I    between atoms: C_3  and  N_4 
ROOT
HETATM    1  C   UNK N   1       1.046  -0.009   0.000  0.00  0.00     0.214 C 
HETATM    2  N   UNK N   1       1.804  -1.122  -0.000  0.00  0.00    -0.370 N 
HETATM    3  O   UNK N   1      -0.171  -0.107  -0.000  0.00  0.00    -0.274 OA
HETATM    4  H   UNK N   1       1.377  -2.008  -0.000  0.00  0.00     0.159 HD
HETATM    5  H   UNK N   1       2.786  -1.048  -0.000  0.00  0.00     0.159 HD
ENDROOT
BRANCH   1   6
HETATM    6  C   UNK N   1       1.716   1.333  -0.000  0.00  0.00     0.098 C 
HETATM    7  C   UNK N   1       0.720   2.480   0.000  0.00  0.00     0.014 C 
ENDBRANCH   1   6
TORSDOF 1
