REMARK  8 active torsions:
REMARK  status: ('A' for Active; 'I' for Inactive)
REMARK    1  A    between atoms: P_2  and  O_3 
REMARK    2  A    between atoms: P_2  and  O_4 
REMARK    3  A    between atoms: P_2  and  O_5 
REMARK    4  A    between atoms: C_6  and  O_5 
REMARK    5  A    between atoms: C_8  and  C_9 
REMARK    6  A    between atoms: C_9  and  O_11 
REMARK    7  A    between atoms: C_13  and  O_14 
REMARK    8  A    between atoms: C_15  and  O_16 
ROOT
HETATM    1  C   UNK N   1       0.739   1.313   0.300  0.00  0.00     0.188 C 
HETATM    2  C   UNK N   1       2.064   0.591   0.299  0.00  0.00     0.022 C 
HETATM    3  C   UNK N   1       2.182  -0.743   0.157  0.00  0.00     0.017 C 
HETATM    4  C   UNK N   1       0.966  -1.633   0.018  0.00  0.00     0.079 C 
HETATM    5  C   UNK N   1      -0.344  -0.953   0.406  0.00  0.00     0.154 C 
HETATM    6  C   UNK N   1      -0.411   0.434  -0.206  0.00  0.00     0.180 C 
ENDROOT
BRANCH   1   7
HETATM    7  O   UNK N   1       0.831   2.450  -0.515  0.00  0.00    -0.285 OA
BRANCH   7   8
HETATM    8  P   UNK N   1       0.343   3.797   0.475  0.00  0.00     0.391 P 
HETATM    9  O   UNK N   1       1.625   4.362  -0.192  0.00  0.00    -0.632 OA
BRANCH   8  10
HETATM   10  O   UNK N   1      -0.240   5.266  -0.242  0.00  0.00    -0.307 OA
HETATM   11  H   UNK N   1       0.309   5.958  -0.642  0.00  0.00     0.222 HD
ENDBRANCH   8  10
BRANCH   8  12
HETATM   12  O   UNK N   1      -0.850   3.514  -0.755  0.00  0.00    -0.307 OA
HETATM   13  H   UNK N   1      -1.320   4.012  -1.442  0.00  0.00     0.222 HD
ENDBRANCH   8  12
ENDBRANCH   7   8
ENDBRANCH   1   7
BRANCH   6  14
HETATM   14  O   UNK N   1      -1.633   1.029   0.113  0.00  0.00    -0.390 OA
HETATM   15  H   UNK N   1      -1.699   1.971   0.334  0.00  0.00     0.210 HD
ENDBRANCH   6  14
BRANCH   3  16
HETATM   16  C   UNK N   1       3.526  -1.359   0.111  0.00  0.00     0.171 C 
HETATM   17  O   UNK N   1       3.645  -2.566  -0.017  0.00  0.00    -0.646 OA
BRANCH  16  18
HETATM   18  O   UNK N   1       4.631  -0.589   0.201  0.00  0.00    -0.773 OA
HETATM   19  H   UNK N   1       5.477  -0.986   0.265  0.00  0.00     0.167 HD
ENDBRANCH  16  18
ENDBRANCH   3  16
BRANCH   5  20
HETATM   20  O   UNK N   1      -1.407  -1.725  -0.063  0.00  0.00    -0.393 OA
HETATM   21  H   UNK N   1      -2.242  -1.354  -0.389  0.00  0.00     0.210 HD
ENDBRANCH   5  20
TORSDOF 8
