REMARK  20 active torsions:
REMARK  status: ('A' for Active; 'I' for Inactive)
REMARK    1  A    between atoms: C_22  and  C_19 
REMARK    2  A    between atoms: O_48  and  C_19 
REMARK    3  A    between atoms: C_23  and  C_20 
REMARK    4  A    between atoms: O_49  and  C_20 
REMARK    5  A    between atoms: C_27  and  C_21 
REMARK    6  A    between atoms: C_26  and  O_42 
REMARK    7  A    between atoms: C_33  and  C_27 
REMARK    8  A    between atoms: C_27  and  N_38 
REMARK    9  A    between atoms: C_28  and  N_40 
REMARK   10  A    between atoms: C_30  and  C_29 
REMARK   11  A    between atoms: C_31  and  C_29 
REMARK   12  A    between atoms: C_29  and  O_43 
REMARK   13  A    between atoms: C_32  and  C_30 
REMARK   14  A    between atoms: C_30  and  O_44 
REMARK   15  A    between atoms: C_34  and  C_31 
REMARK   16  A    between atoms: C_31  and  O_48 
REMARK   17  A    between atoms: C_35  and  C_32 
REMARK   18  A    between atoms: C_32  and  O_49 
REMARK   19  A    between atoms: O_45  and  C_33 
REMARK   20  A    between atoms: C_35  and  O_47 
ROOT
HETATM    1  C   UNK N   1       5.447   0.877   0.034  0.00  0.00     0.144 C 
HETATM    2  N   UNK N   1       4.755  -0.036  -0.563  0.00  0.00    -0.360 N 
ATOM      3  HN  UNK N   1       4.749  -0.030  -1.583  1.00  0.00     0.162 HD
HETATM    4  O   UNK N   1       5.507   0.930   1.382  0.00  0.00    -0.348 OA
HETATM    5  H   UNK N   1       5.560   0.913   2.318  0.00  0.00     0.219 HD
ENDROOT
BRANCH   1   6
HETATM    6  C   UNK N   1       6.155   1.917  -0.809  0.00  0.00     0.227 C 
BRANCH   6   7
HETATM    7  C   UNK N   1       7.713   1.873  -0.856  0.00  0.00     0.186 C 
BRANCH   7   8
HETATM    8  C   UNK N   1       8.513   1.824   0.474  0.00  0.00     0.186 C 
BRANCH   8   9
HETATM    9  C   UNK N   1      10.073   1.803   0.204  0.00  0.00     0.227 C 
BRANCH   9  10
HETATM   10  C   UNK N   1      10.586   0.386  -0.083  0.00  0.00     0.144 C 
HETATM   11  N   UNK N   1      11.557  -0.082   0.652  0.00  0.00    -0.361 N 
ATOM     12  HN  UNK N   1      11.953   0.588   1.311  1.00  0.00     0.162 HD
BRANCH  11  13
HETATM   13  C   UNK N   1      12.170  -1.406   0.687  0.00  0.00     0.146 C 
HETATM   14  C   UNK N   1      13.581  -1.461   0.235  0.00  0.00    -0.027 A 
HETATM   15  C   UNK N   1      14.551  -0.457   0.296  0.00  0.00     0.010 A 
HETATM   16  C   UNK N   1      13.894  -2.724  -0.200  0.00  0.00    -0.047 A 
HETATM   17  C   UNK N   1      15.857  -0.761  -0.122  0.00  0.00     0.001 A 
HETATM   18  C   UNK N   1      16.177  -2.059  -0.563  0.00  0.00     0.001 A 
HETATM   19  C   UNK N   1      15.188  -3.055  -0.601  0.00  0.00     0.008 A 
HETATM   20  C   UNK N   1      12.712  -3.628  -0.176  0.00  0.00     0.073 C 
HETATM   21  C   UNK N   1      11.572  -2.587  -0.113  0.00  0.00     0.149 C 
BRANCH  21  22
HETATM   22  O   UNK N   1      10.425  -3.103   0.491  0.00  0.00    -0.393 OA
HETATM   23  H   UNK N   1       9.715  -2.592   0.910  0.00  0.00     0.210 HD
ENDBRANCH  21  22
ENDBRANCH  11  13
BRANCH  10  24
HETATM   24  O   UNK N   1      10.035  -0.354  -1.061  0.00  0.00    -0.348 OA
HETATM   25  H   UNK N   1       9.396  -0.280  -1.742  0.00  0.00     0.219 HD
ENDBRANCH  10  24
ENDBRANCH   9  10
BRANCH   9  26
HETATM   26  O   UNK N   1      10.822   2.303   1.301  0.00  0.00    -0.370 OA
BRANCH  26  27
HETATM   27  C   UNK N   1      10.442   3.615   1.656  0.00  0.00     0.207 C 
BRANCH  27  28
HETATM   28  C   UNK N   1      10.920   4.665   0.703  0.00  0.00    -0.035 A 
HETATM   29  C   UNK N   1       9.998   5.577   0.178  0.00  0.00     0.009 A 
HETATM   30  C   UNK N   1      10.427   6.597  -0.675  0.00  0.00     0.001 A 
HETATM   31  C   UNK N   1      11.780   6.706  -1.009  0.00  0.00     0.000 A 
HETATM   32  C   UNK N   1      12.704   5.794  -0.488  0.00  0.00     0.001 A 
HETATM   33  C   UNK N   1      12.276   4.777   0.373  0.00  0.00     0.009 A 
ENDBRANCH  27  28
ENDBRANCH  26  27
ENDBRANCH   9  26
ENDBRANCH   8   9
BRANCH   8  34
HETATM   34  O   UNK N   1       8.164   0.707   1.240  0.00  0.00    -0.390 OA
HETATM   35  H   UNK N   1       7.373   0.530   1.772  0.00  0.00     0.210 HD
ENDBRANCH   8  34
ENDBRANCH   7   8
BRANCH   7  36
HETATM   36  O   UNK N   1       8.132   2.985  -1.596  0.00  0.00    -0.390 OA
HETATM   37  H   UNK N   1       8.944   3.119  -2.109  0.00  0.00     0.210 HD
ENDBRANCH   7  36
ENDBRANCH   6   7
BRANCH   6  38
HETATM   38  O   UNK N   1       5.607   3.216  -0.696  0.00  0.00    -0.370 OA
BRANCH  38  39
HETATM   39  C   UNK N   1       5.606   3.742   0.601  0.00  0.00     0.207 C 
BRANCH  39  40
HETATM   40  C   UNK N   1       4.807   5.003   0.527  0.00  0.00    -0.035 A 
HETATM   41  C   UNK N   1       3.422   4.949   0.310  0.00  0.00     0.009 A 
HETATM   42  C   UNK N   1       2.692   6.129   0.124  0.00  0.00     0.001 A 
HETATM   43  C   UNK N   1       3.347   7.364   0.135  0.00  0.00     0.000 A 
HETATM   44  C   UNK N   1       4.729   7.421   0.346  0.00  0.00     0.001 A 
HETATM   45  C   UNK N   1       5.458   6.242   0.539  0.00  0.00     0.009 A 
ENDBRANCH  39  40
ENDBRANCH  38  39
ENDBRANCH   6  38
ENDBRANCH   1   6
BRANCH   2  46
HETATM   46  C   UNK N   1       3.984  -1.071   0.103  0.00  0.00     0.161 C 
BRANCH  46  47
HETATM   47  C   UNK N   1       2.507  -0.899  -0.308  0.00  0.00     0.008 C 
HETATM   48  C   UNK N   1       1.585  -1.907   0.358  0.00  0.00     0.012 C 
HETATM   49  C   UNK N   1       1.999   0.494   0.031  0.00  0.00     0.012 C 
ENDBRANCH  46  47
BRANCH  46  50
HETATM   50  C   UNK N   1       4.530  -2.422  -0.311  0.00  0.00     0.134 C 
HETATM   51  N   UNK N   1       4.013  -3.501   0.168  0.00  0.00    -0.377 N 
HETATM   52  C   UNK N   1       4.501  -4.807  -0.196  0.00  0.00     0.148 C 
ATOM     53  HN  UNK N   1       3.236  -3.428   0.825  1.00  0.00     0.160 HD
BRANCH  50  54
HETATM   54  O   UNK N   1       5.570  -2.493  -1.174  0.00  0.00    -0.348 OA
HETATM   55  H   UNK N   1       5.887  -3.141  -1.772  0.00  0.00     0.219 HD
ENDBRANCH  50  54
ENDBRANCH  46  50
ENDBRANCH   2  46
TORSDOF 20
