REMARK  14 active torsions:
REMARK  status: ('A' for Active; 'I' for Inactive)
REMARK    1  A    between atoms: C_3  and  C_1 
REMARK    2  A    between atoms: N_10  and  C_1 
REMARK    3  A    between atoms: C_4  and  C_2 
REMARK    4  A    between atoms: O_17  and  C_2 
REMARK    5  A    between atoms: C_6  and  C_3 
REMARK    6  A    between atoms: C_3  and  O_18 
REMARK    7  A    between atoms: C_6  and  C_4 
REMARK    8  A    between atoms: C_4  and  O_19 
REMARK    9  A    between atoms: N_15  and  C_5 
REMARK   10  A    between atoms: C_6  and  O_20 
REMARK   11  A    between atoms: N_10  and  C_7 
REMARK   12  A    between atoms: O_21  and  C_8 
REMARK   13  A    between atoms: O_22  and  C_9 
REMARK   14  A    between atoms: O_23  and  N_15 
ROOT
HETATM    1  C   UNK N   1       3.650  -2.023   0.246  0.00  0.00     0.148 A 
HETATM    2  C   UNK N   1       3.663  -3.429   0.090  0.00  0.00     0.137 A 
HETATM    3  C   UNK N   1       4.846  -1.392   0.651  0.00  0.00     0.176 A 
HETATM    4  C   UNK N   1       5.950  -3.480   0.716  0.00  0.00     0.224 A 
HETATM    5  N   UNK N   1       4.810  -4.114   0.340  0.00  0.00    -0.306 N 
ATOM      6  HN  UNK N   1       4.815  -5.130   0.243  1.00  0.00     0.171 HD
HETATM    7  N   UNK N   1       5.961  -2.132   0.869  0.00  0.00    -0.301 N 
ATOM      8  HN  UNK N   1       6.824  -1.668   1.152  1.00  0.00     0.171 HD
ENDROOT
BRANCH   2   9
HETATM    9  N   UNK N   1       2.516  -4.157  -0.333  0.00  0.00    -0.372 N 
HETATM   10  H   UNK N   1       2.382  -5.071   0.008  0.00  0.00     0.161 HD
BRANCH   9  11
HETATM   11  C   UNK N   1       1.542  -3.606  -1.246  0.00  0.00     0.155 C 
BRANCH  11  12
HETATM   12  C   UNK N   1       0.131  -4.168  -1.058  0.00  0.00     0.167 C 
BRANCH  12  13
HETATM   13  C   UNK N   1      -0.653  -3.473   0.077  0.00  0.00     0.179 C 
BRANCH  13  14
HETATM   14  C   UNK N   1      -2.147  -3.860   0.033  0.00  0.00     0.173 C 
BRANCH  14  15
HETATM   15  C   UNK N   1      -2.941  -3.098   1.088  0.00  0.00     0.198 C 
BRANCH  15  16
HETATM   16  O   UNK N   1      -4.307  -3.342   0.930  0.00  0.00    -0.398 OA
HETATM   17  H   UNK N   1      -4.928  -2.605   0.821  0.00  0.00     0.209 HD
ENDBRANCH  15  16
ENDBRANCH  14  15
BRANCH  14  18
HETATM   18  O   UNK N   1      -2.311  -5.232   0.239  0.00  0.00    -0.391 OA
HETATM   19  H   UNK N   1      -3.193  -5.609   0.382  0.00  0.00     0.210 HD
ENDBRANCH  14  18
ENDBRANCH  13  14
BRANCH  13  20
HETATM   20  O   UNK N   1      -0.553  -2.087  -0.088  0.00  0.00    -0.390 OA
HETATM   21  H   UNK N   1       0.313  -1.666  -0.202  0.00  0.00     0.210 HD
ENDBRANCH  13  20
ENDBRANCH  12  13
BRANCH  12  22
HETATM   22  O   UNK N   1       0.181  -5.552  -0.865  0.00  0.00    -0.391 OA
HETATM   23  H   UNK N   1      -0.633  -6.062  -0.731  0.00  0.00     0.210 HD
ENDBRANCH  12  22
ENDBRANCH  11  12
ENDBRANCH   9  11
ENDBRANCH   2   9
BRANCH   1  24
HETATM   24  N   UNK N   1       2.452  -1.288   0.021  0.00  0.00    -0.261 N 
ATOM     25  HN  UNK N   1       1.616  -1.788  -0.283  1.00  0.00     0.194 HD
BRANCH  24  26
HETATM   26  O   UNK N   1       2.395  -0.106   0.176  0.00  0.00    -0.289 OA
ATOM     27  HO  UNK N   1       1.595   0.385   0.025  1.00  0.00     0.244 HD
ENDBRANCH  24  26
ENDBRANCH   1  24
BRANCH   3  28
HETATM   28  O   UNK N   1       4.901  -0.060   0.827  0.00  0.00    -0.344 OA
HETATM   29  H   UNK N   1       5.724   0.371   0.950  0.00  0.00     0.219 HD
ENDBRANCH   3  28
BRANCH   4  30
HETATM   30  O   UNK N   1       7.071  -4.186   0.932  0.00  0.00    -0.332 OA
HETATM   31  H   UNK N   1       7.035  -5.111   1.082  0.00  0.00     0.221 HD
ENDBRANCH   4  30
TORSDOF 14
