REMARK  31 active torsions:
REMARK  status: ('A' for Active; 'I' for Inactive)
REMARK    1  A    between atoms: C_4  and  C_3 
REMARK    2  A    between atoms: C_12  and  C_3 
REMARK    3  A    between atoms: N_25  and  C_4 
REMARK    4  A    between atoms: C_6  and  C_5 
REMARK    5  A    between atoms: N_23  and  C_5 
REMARK    6  A    between atoms: S_54  and  C_6 
REMARK    7  A    between atoms: C_11  and  C_7 
REMARK    8  A    between atoms: O_45  and  C_7 
REMARK    9  A    between atoms: C_21  and  C_8 
REMARK   10  A    between atoms: O_46  and  C_8 
REMARK   11  A    between atoms: N_23  and  C_12 
REMARK   12  A    between atoms: O_34  and  C_12 
REMARK   13  A    between atoms: C_14  and  O_35 
REMARK   14  A    between atoms: C_15  and  O_48 
REMARK   15  A    between atoms: C_19  and  C_16 
REMARK   16  A    between atoms: C_21  and  C_16 
REMARK   17  A    between atoms: C_16  and  O_36 
REMARK   18  A    between atoms: N_22  and  C_17 
REMARK   19  A    between atoms: N_25  and  C_19 
REMARK   20  A    between atoms: O_37  and  C_19 
REMARK   21  A    between atoms: C_20  and  N_33 
REMARK   22  A    between atoms: P_50  and  O_38 
REMARK   23  A    between atoms: P_50  and  O_39 
REMARK   24  A    between atoms: P_51  and  O_41 
REMARK   25  A    between atoms: P_52  and  O_43 
REMARK   26  A    between atoms: P_51  and  O_45 
REMARK   27  A    between atoms: P_52  and  O_46 
REMARK   28  A    between atoms: P_50  and  O_48 
REMARK   29  A    between atoms: P_51  and  O_49 
REMARK   30  A    between atoms: P_52  and  O_49 
REMARK   31  A    between atoms: S_54  and  S_53 
ROOT
HETATM    1  O   UNK N   1      -1.201  -2.977   2.386  0.00  0.00    -0.631 OA
HETATM    2  P   UNK N   1      -2.230  -1.903   1.942  0.00  0.00     0.401 P 
ENDROOT
BRANCH   2   3
HETATM    3  O   UNK N   1      -2.349  -0.798   3.275  0.00  0.00    -0.307 OA
HETATM    4  H   UNK N   1      -1.847  -0.431   4.019  0.00  0.00     0.222 HD
ENDBRANCH   2   3
BRANCH   2   5
HETATM    5  O   UNK N   1      -1.640  -1.021   0.558  0.00  0.00    -0.294 OA
BRANCH   5   6
HETATM    6  C   UNK N   1      -0.944  -1.905  -0.283  0.00  0.00     0.215 C 
BRANCH   6   7
HETATM    7  C   UNK N   1       0.405  -1.307  -0.687  0.00  0.00     0.180 C 
HETATM    8  C   UNK N   1       1.567  -1.914   0.122  0.00  0.00     0.197 C 
HETATM    9  C   UNK N   1       2.463  -0.703   0.185  0.00  0.00     0.199 C 
HETATM   10  C   UNK N   1       1.404   0.350   0.472  0.00  0.00     0.262 C 
HETATM   11  O   UNK N   1       0.389   0.094  -0.467  0.00  0.00    -0.353 OA
BRANCH   8  12
HETATM   12  O   UNK N   1       2.239  -2.992  -0.502  0.00  0.00    -0.286 OA
BRANCH  12  13
HETATM   13  P   UNK N   1       1.199  -4.400  -0.627  0.00  0.00     0.391 P 
HETATM   14  O   UNK N   1       0.409  -4.574   0.697  0.00  0.00    -0.632 OA
BRANCH  13  15
HETATM   15  O   UNK N   1       0.053  -4.262  -1.925  0.00  0.00    -0.307 OA
HETATM   16  H   UNK N   1      -0.200  -3.669  -2.650  0.00  0.00     0.222 HD
ENDBRANCH  13  15
BRANCH  13  17
HETATM   17  O   UNK N   1       2.143  -5.843  -0.819  0.00  0.00    -0.307 OA
HETATM   18  H   UNK N   1       1.708  -6.703  -0.927  0.00  0.00     0.222 HD
ENDBRANCH  13  17
ENDBRANCH  12  13
ENDBRANCH   8  12
BRANCH   9  19
HETATM   19  O   UNK N   1       3.429  -0.810   1.189  0.00  0.00    -0.388 OA
HETATM   20  H   UNK N   1       3.700  -1.428   1.886  0.00  0.00     0.210 HD
ENDBRANCH   9  19
BRANCH  10  21
HETATM   21  N   UNK N   1       1.830   1.750   0.376  0.00  0.00    -0.297 N 
HETATM   22  C   UNK N   1       0.971   2.800   0.464  0.00  0.00     0.188 A 
HETATM   23  N   UNK N   1       1.620   3.992   0.368  0.00  0.00    -0.346 N 
HETATM   24  C   UNK N   1       2.912   3.654   0.230  0.00  0.00     0.122 A 
ATOM     25  HN  UNK N   1       1.217   4.928   0.396  1.00  0.00     0.167 HD
HETATM   26  C   UNK N   1       4.028   4.465   0.116  0.00  0.00     0.131 A 
HETATM   27  C   UNK N   1       3.043   2.311   0.229  0.00  0.00     0.142 A 
HETATM   28  N   UNK N   1       5.248   3.862   0.010  0.00  0.00    -0.337 N 
HETATM   29  C   UNK N   1       5.362   2.492   0.013  0.00  0.00     0.183 A 
ATOM     30  HN  UNK N   1       6.088   4.436  -0.072  1.00  0.00     0.168 HD
HETATM   31  N   UNK N   1       4.248   1.702   0.123  0.00  0.00    -0.336 N 
ATOM     32  HN  UNK N   1       4.324   0.685   0.126  1.00  0.00     0.168 HD
BRANCH  26  33
HETATM   33  N   UNK N   1       3.916   5.870   0.124  0.00  0.00    -0.383 N 
HETATM   34  H   UNK N   1       4.726   6.429   0.129  0.00  0.00     0.157 HD
HETATM   35  H   UNK N   1       3.026   6.293   0.124  0.00  0.00     0.157 HD
ENDBRANCH  26  33
ENDBRANCH  10  21
ENDBRANCH   6   7
ENDBRANCH   5   6
ENDBRANCH   2   5
BRANCH   2  36
HETATM   36  O   UNK N   1      -3.791  -2.649   1.715  0.00  0.00    -0.195 OA
BRANCH  36  37
HETATM   37  P   UNK N   1      -3.759  -3.488   0.187  0.00  0.00     0.401 P 
HETATM   38  O   UNK N   1      -5.106  -4.252   0.085  0.00  0.00    -0.631 OA
BRANCH  37  39
HETATM   39  O   UNK N   1      -2.533  -4.715   0.151  0.00  0.00    -0.307 OA
HETATM   40  H   UNK N   1      -2.784  -5.652   0.130  0.00  0.00     0.222 HD
ENDBRANCH  37  39
BRANCH  37  41
HETATM   41  O   UNK N   1      -3.675  -2.445  -1.214  0.00  0.00    -0.296 OA
BRANCH  41  42
HETATM   42  C   UNK N   1      -4.185  -1.182  -0.856  0.00  0.00     0.192 C 
BRANCH  42  43
HETATM   43  C   UNK N   1      -5.690  -1.035  -1.124  0.00  0.00     0.008 C 
HETATM   44  C   UNK N   1      -5.903   0.258  -1.897  0.00  0.00     0.020 C 
HETATM   45  C   UNK N   1      -6.196  -2.177  -2.009  0.00  0.00     0.020 C 
BRANCH  43  46
HETATM   46  C   UNK N   1      -6.446  -0.994   0.232  0.00  0.00     0.202 C 
BRANCH  46  47
HETATM   47  C   UNK N   1      -7.933  -1.149   0.065  0.00  0.00     0.141 C 
BRANCH  47  48
HETATM   48  N   UNK N   1      -8.613  -0.294  -0.623  0.00  0.00    -0.372 N 
ATOM     49  HN  UNK N   1      -8.139   0.538  -0.973  1.00  0.00     0.161 HD
BRANCH  48  50
HETATM   50  C   UNK N   1     -10.020  -0.466  -0.919  0.00  0.00     0.129 C 
BRANCH  50  51
HETATM   51  C   UNK N   1     -10.902  -0.380   0.319  0.00  0.00     0.103 C 
BRANCH  51  52
HETATM   52  C   UNK N   1     -11.681  -1.649   0.462  0.00  0.00     0.112 C 
BRANCH  52  53
HETATM   53  N   UNK N   1     -12.923  -1.683   0.121  0.00  0.00    -0.374 N 
ATOM     54  HN  UNK N   1     -13.367  -0.832  -0.226  1.00  0.00     0.161 HD
BRANCH  53  55
HETATM   55  C   UNK N   1     -13.703  -2.895   0.220  0.00  0.00     0.132 C 
BRANCH  55  56
HETATM   56  C   UNK N   1     -13.330  -3.852  -0.903  0.00  0.00     0.105 C 
BRANCH  56  57
HETATM   57  S   UNK N   1     -13.537  -5.566  -0.346  0.00  0.00    -0.099 SA
BRANCH  57  58
HETATM   58  S   UNK N   1     -11.433  -5.886  -0.263  0.00  0.00    -0.111 SA
HETATM   59  H   UNK N   1     -10.937  -7.151  -0.210  0.00  0.00     0.114 HD
ENDBRANCH  57  58
ENDBRANCH  56  57
ENDBRANCH  55  56
ENDBRANCH  53  55
ENDBRANCH  52  53
BRANCH  52  60
HETATM   60  O   UNK N   1     -11.076  -2.755   0.942  0.00  0.00    -0.350 OA
HETATM   61  H   UNK N   1     -11.531  -3.503   1.275  0.00  0.00     0.219 HD
ENDBRANCH  52  60
ENDBRANCH  51  52
ENDBRANCH  50  51
ENDBRANCH  48  50
ENDBRANCH  47  48
BRANCH  47  62
HETATM   62  O   UNK N   1      -8.526  -2.237   0.593  0.00  0.00    -0.348 OA
HETATM   63  H   UNK N   1      -9.388  -2.258   0.960  0.00  0.00     0.219 HD
ENDBRANCH  47  62
ENDBRANCH  46  47
BRANCH  46  64
HETATM   64  O   UNK N   1      -6.154   0.181   0.933  0.00  0.00    -0.387 OA
HETATM   65  H   UNK N   1      -5.347   0.413   1.419  0.00  0.00     0.210 HD
ENDBRANCH  46  64
ENDBRANCH  43  46
ENDBRANCH  42  43
ENDBRANCH  41  42
ENDBRANCH  37  41
ENDBRANCH  36  37
ENDBRANCH   2  36
TORSDOF 31
