REMARK  17 active torsions:
REMARK  status: ('A' for Active; 'I' for Inactive)
REMARK    1  A    between atoms: C_10  and  C_9 
REMARK    2  A    between atoms: C_17  and  C_9 
REMARK    3  A    between atoms: C_19  and  C_10 
REMARK    4  A    between atoms: C_20  and  C_11 
REMARK    5  A    between atoms: N_26  and  C_11 
REMARK    6  A    between atoms: C_18  and  C_12 
REMARK    7  A    between atoms: S_37  and  C_12 
REMARK    8  A    between atoms: C_24  and  C_17 
REMARK    9  A    between atoms: C_17  and  N_25 
REMARK   10  A    between atoms: C_23  and  C_18 
REMARK   11  A    between atoms: C_18  and  N_28 
REMARK   12  A    between atoms: C_19  and  O_30 
REMARK   13  A    between atoms: O_32  and  C_20 
REMARK   14  A    between atoms: C_21  and  O_33 
REMARK   15  A    between atoms: C_22  and  S_37 
REMARK   16  A    between atoms: O_34  and  C_23 
REMARK   17  A    between atoms: O_36  and  C_24 
ROOT
HETATM    1  C   UNK N   1       1.795   4.236   0.835  0.00  0.00     0.167 C 
ENDROOT
BRANCH   1   2
HETATM    2  C   UNK N   1       0.483   4.989   0.628  0.00  0.00     0.108 C 
BRANCH   2   3
HETATM    3  S   UNK N   1      -0.059   4.950  -1.120  0.00  0.00    -0.154 SA
BRANCH   3   4
HETATM    4  C   UNK N   1      -1.636   5.864  -0.892  0.00  0.00     0.114 C 
HETATM    5  C   UNK N   1      -2.756   5.011  -0.322  0.00  0.00    -0.030 A 
HETATM    6  C   UNK N   1      -2.650   3.614  -0.244  0.00  0.00     0.009 A 
HETATM    7  C   UNK N   1      -3.955   5.641   0.077  0.00  0.00    -0.018 A 
HETATM    8  C   UNK N   1      -3.727   2.849   0.208  0.00  0.00     0.001 A 
HETATM    9  C   UNK N   1      -4.925   3.471   0.569  0.00  0.00     0.001 A 
HETATM   10  C   UNK N   1      -5.038   4.862   0.507  0.00  0.00     0.013 A 
HETATM   11  C   UNK N   1      -4.036   7.123   0.055  0.00  0.00    -0.017 A 
HETATM   12  C   UNK N   1      -5.269   7.782   0.155  0.00  0.00     0.013 A 
HETATM   13  C   UNK N   1      -2.848   7.881  -0.079  0.00  0.00    -0.017 A 
HETATM   14  C   UNK N   1      -5.329   9.177   0.098  0.00  0.00     0.001 A 
HETATM   15  C   UNK N   1      -4.159   9.923  -0.059  0.00  0.00     0.001 A 
HETATM   16  C   UNK N   1      -2.922   9.280  -0.140  0.00  0.00     0.011 A 
HETATM   17  C   UNK N   1      -1.508   7.171  -0.090  0.00  0.00     0.170 C 
BRANCH  17  18
HETATM   18  O   UNK N   1      -0.509   7.990  -0.628  0.00  0.00    -0.389 OA
HETATM   19  H   UNK N   1       0.329   7.674  -1.001  0.00  0.00     0.210 HD
ENDBRANCH  17  18
ENDBRANCH   3   4
ENDBRANCH   2   3
ENDBRANCH   1   2
BRANCH   1  20
HETATM   20  C   UNK N   1       1.650   2.742   0.759  0.00  0.00     0.136 C 
HETATM   21  N   UNK N   1       2.712   2.027   0.879  0.00  0.00    -0.363 N 
ATOM     22  HN  UNK N   1       3.582   2.494   1.135  1.00  0.00     0.161 HD
BRANCH  21  23
HETATM   23  C   UNK N   1       2.738   0.603   0.673  0.00  0.00     0.231 C 
BRANCH  23  24
HETATM   24  C   UNK N   1       3.739   0.273  -0.403  0.00  0.00     0.158 C 
HETATM   25  O   UNK N   1       4.403   1.154  -0.932  0.00  0.00    -0.649 OA
BRANCH  24  26
HETATM   26  O   UNK N   1       3.906  -1.004  -0.788  0.00  0.00    -0.775 OA
HETATM   27  H   UNK N   1       3.194  -1.550  -1.057  0.00  0.00     0.167 HD
ENDBRANCH  24  26
ENDBRANCH  23  24
ENDBRANCH  21  23
BRANCH  20  28
HETATM   28  O   UNK N   1       0.454   2.166   0.498  0.00  0.00    -0.348 OA
HETATM   29  H   UNK N   1      -0.306   2.685   0.318  0.00  0.00     0.219 HD
ENDBRANCH  20  28
ENDBRANCH   1  20
BRANCH   1  30
HETATM   30  N   UNK N   1       2.736   4.591  -0.212  0.00  0.00    -0.362 N 
HETATM   31  C   UNK N   1       3.951   4.957  -0.017  0.00  0.00     0.111 C 
ATOM     32  HN  UNK N   1       2.407   4.546  -1.176  1.00  0.00     0.162 HD
BRANCH  31  33
HETATM   33  C   UNK N   1       4.842   5.093  -1.209  0.00  0.00     0.086 C 
BRANCH  33  34
HETATM   34  C   UNK N   1       5.639   6.387  -1.305  0.00  0.00     0.043 C 
BRANCH  34  35
HETATM   35  C   UNK N   1       6.861   6.477  -0.380  0.00  0.00     0.173 C 
BRANCH  35  36
HETATM   36  C   UNK N   1       7.616   5.176  -0.227  0.00  0.00     0.163 C 
HETATM   37  O   UNK N   1       8.770   5.090  -0.613  0.00  0.00    -0.648 OA
BRANCH  36  38
HETATM   38  O   UNK N   1       7.035   4.111   0.362  0.00  0.00    -0.775 OA
HETATM   39  H   UNK N   1       6.192   4.091   0.772  0.00  0.00     0.167 HD
ENDBRANCH  36  38
ENDBRANCH  35  36
BRANCH  35  40
HETATM   40  N   UNK N   1       6.458   6.967   0.926  0.00  0.00    -0.418 N 
HETATM   41  H   UNK N   1       6.616   7.385   1.844  0.00  0.00     0.150 HD
HETATM   42  H   UNK N   1       5.452   6.801   0.926  0.00  0.00     0.150 HD
ENDBRANCH  35  40
ENDBRANCH  34  35
ENDBRANCH  33  34
ENDBRANCH  31  33
BRANCH  31  43
HETATM   43  O   UNK N   1       4.451   5.068   1.232  0.00  0.00    -0.350 OA
HETATM   44  H   UNK N   1       4.691   4.806   2.099  0.00  0.00     0.219 HD
ENDBRANCH  31  43
ENDBRANCH   1  30
TORSDOF 17
