REMARK  9 active torsions:
REMARK  status: ('A' for Active; 'I' for Inactive)
REMARK    1  A    between atoms: C_5  and  C_3 
REMARK    2  A    between atoms: O_21  and  C_3 
REMARK    3  A    between atoms: C_6  and  O_14 
REMARK    4  A    between atoms: C_7  and  O_15 
REMARK    5  A    between atoms: O_16  and  C_8 
REMARK    6  A    between atoms: C_9  and  N_13 
REMARK    7  A    between atoms: P_23  and  O_18 
REMARK    8  A    between atoms: P_23  and  O_19 
REMARK    9  A    between atoms: P_23  and  O_21 
ROOT
HETATM    1  C   UNK N   1      -0.069   2.445  -0.613  0.00  0.00     0.180 C 
HETATM    2  C   UNK N   1      -1.013   3.467   0.090  0.00  0.00     0.182 C 
HETATM    3  C   UNK N   1      -2.347   2.732   0.040  0.00  0.00     0.198 C 
HETATM    4  C   UNK N   1      -1.826   1.312   0.123  0.00  0.00     0.263 C 
HETATM    5  O   UNK N   1      -0.845   1.296  -0.883  0.00  0.00    -0.353 OA
ENDROOT
BRANCH   4   6
HETATM    6  N   UNK N   1      -2.780   0.205  -0.050  0.00  0.00    -0.279 N 
HETATM    7  C   UNK N   1      -4.125   0.421  -0.069  0.00  0.00     0.109 A 
HETATM    8  C   UNK N   1      -5.013  -0.654  -0.134  0.00  0.00     0.005 A 
HETATM    9  C   UNK N   1      -6.481  -0.407  -0.118  0.00  0.00     0.054 C 
HETATM   10  C   UNK N   1      -4.501  -1.953  -0.189  0.00  0.00     0.151 A 
HETATM   11  N   UNK N   1      -3.161  -2.148  -0.185  0.00  0.00    -0.288 N 
HETATM   12  C   UNK N   1      -2.295  -1.092  -0.109  0.00  0.00     0.330 A 
ATOM     13  HN  UNK N   1      -2.792  -3.097  -0.239  1.00  0.00     0.172 HD
HETATM   14  O   UNK N   1      -1.095  -1.309  -0.084  0.00  0.00    -0.246 OA
BRANCH  10  15
HETATM   15  O   UNK N   1      -5.324  -3.014  -0.239  0.00  0.00    -0.346 OA
HETATM   16  H   UNK N   1      -6.252  -2.887  -0.274  0.00  0.00     0.219 HD
ENDBRANCH  10  15
ENDBRANCH   4   6
BRANCH   3  17
HETATM   17  O   UNK N   1      -3.210   3.087   1.080  0.00  0.00    -0.388 OA
HETATM   18  H   UNK N   1      -3.296   3.730   1.802  0.00  0.00     0.210 HD
ENDBRANCH   3  17
BRANCH   2  19
HETATM   19  O   UNK N   1      -0.628   3.666   1.422  0.00  0.00    -0.390 OA
HETATM   20  H   UNK N   1      -0.375   3.503   2.344  0.00  0.00     0.210 HD
ENDBRANCH   2  19
BRANCH   1  21
HETATM   21  C   UNK N   1       1.095   1.931   0.248  0.00  0.00     0.215 C 
BRANCH  21  22
HETATM   22  O   UNK N   1       2.024   2.911   0.607  0.00  0.00    -0.294 OA
BRANCH  22  23
HETATM   23  P   UNK N   1       3.429   2.571  -0.365  0.00  0.00     0.390 P 
HETATM   24  O   UNK N   1       3.589   4.080  -0.043  0.00  0.00    -0.632 OA
BRANCH  23  25
HETATM   25  O   UNK N   1       5.042   2.680   0.263  0.00  0.00    -0.307 OA
HETATM   26  H   UNK N   1       5.546   1.929   0.614  0.00  0.00     0.222 HD
ENDBRANCH  23  25
BRANCH  23  27
HETATM   27  O   UNK N   1       3.622   1.659   1.108  0.00  0.00    -0.307 OA
HETATM   28  H   UNK N   1       3.236   1.312   1.927  0.00  0.00     0.222 HD
ENDBRANCH  23  27
ENDBRANCH  22  23
ENDBRANCH  21  22
ENDBRANCH   1  21
TORSDOF 9
