REMARK  5 active torsions:
REMARK  status: ('A' for Active; 'I' for Inactive)
REMARK    1  A    between atoms: C_1  and  O_2 
REMARK    2  A    between atoms: C_3  and  O_4 
REMARK    3  A    between atoms: C_5  and  C_10 
REMARK    4  A    between atoms: C_6  and  O_7 
REMARK    5  A    between atoms: C_10  and  O_11 
ROOT
HETATM    1  C   UNK N   1       0.674  -0.944   0.002  0.00  0.00     0.188 A 
HETATM    2  C   UNK N   1      -0.590  -0.141  -0.002  0.00  0.00     0.180 A 
HETATM    3  C   UNK N   1      -0.520   1.398   0.001  0.00  0.00     0.179 A 
HETATM    4  C   UNK N   1       1.893   1.332   0.002  0.00  0.00     0.294 A 
HETATM    5  O   UNK N   1       0.711   2.114  -0.001  0.00  0.00    -0.348 OA
HETATM    6  C   UNK N   1       1.965  -0.189  -0.002  0.00  0.00     0.256 A 
HETATM    7  F   UNK N   1       3.179  -0.849   0.000  0.00  0.00    -0.241 F 
ENDROOT
BRANCH   3   8
HETATM    8  C   UNK N   1      -1.751   2.304  -0.000  0.00  0.00     0.198 C 
BRANCH   8   9
HETATM    9  O   UNK N   1      -2.945   1.584   0.000  0.00  0.00    -0.398 OA
HETATM   10  H   UNK N   1      -3.794   2.054   0.000  0.00  0.00     0.209 HD
ENDBRANCH   8   9
ENDBRANCH   3   8
BRANCH   2  11
HETATM   11  O   UNK N   1      -1.815  -0.812   0.000  0.00  0.00    -0.390 OA
HETATM   12  H   UNK N   1      -2.644  -0.308   0.002  0.00  0.00     0.210 HD
ENDBRANCH   2  11
BRANCH   1  13
HETATM   13  O   UNK N   1       0.655  -2.338  -0.001  0.00  0.00    -0.390 OA
HETATM   14  H   UNK N   1      -0.191  -2.812  -0.003  0.00  0.00     0.210 HD
ENDBRANCH   1  13
BRANCH   4  15
HETATM   15  O   UNK N   1       3.088   2.052  -0.000  0.00  0.00    -0.368 OA
HETATM   16  H   UNK N   1       3.937   1.583  -0.002  0.00  0.00     0.212 HD
ENDBRANCH   4  15
TORSDOF 5
