REMARK  1 active torsions:
REMARK  status: ('A' for Active; 'I' for Inactive)
REMARK    1  A    between atoms: C_3  and  N_4 
ROOT
HETATM    1  C   UNK N   1       2.918   1.858   0.000  0.00  0.00     0.163 C 
HETATM    2  N   UNK N   1       1.699   1.057  -0.000  0.00  0.00    -0.290 N 
HETATM    3  C   UNK N   1       1.775  -0.308  -0.000  0.00  0.00     0.105 A 
HETATM    4  C   UNK N   1       0.607  -1.069  -0.000  0.00  0.00     0.065 A 
HETATM    5  C   UNK N   1      -0.624  -0.420  -0.000  0.00  0.00     0.096 A 
HETATM    6  N   UNK N   1      -0.678   0.936  -0.000  0.00  0.00    -0.319 N 
HETATM    7  C   UNK N   1       0.470   1.683  -0.000  0.00  0.00     0.327 A 
HETATM    8  O   UNK N   1       0.394   2.899   0.000  0.00  0.00    -0.246 OA
HETATM    9  H   UNK N   1      -1.553   1.388  -0.000  0.00  0.00     0.170 HD
ENDROOT
BRANCH   3  10
HETATM   10  N   UNK N   1       3.027  -0.962   0.000  0.00  0.00    -0.385 N 
HETATM   11  H   UNK N   1       3.069  -1.945   0.000  0.00  0.00     0.157 HD
HETATM   12  H   UNK N   1       3.858  -0.434   0.000  0.00  0.00     0.157 HD
ENDBRANCH   3  10
TORSDOF 1
