REMARK  1 active torsions:
REMARK  status: ('A' for Active; 'I' for Inactive)
REMARK    1  A    between atoms: C_6  and  N_7 
ROOT
HETATM    1  C   UNK N   1       3.875   3.244   0.001  0.00  0.00     0.158 C 
HETATM    2  N   UNK N   1       3.789   1.795  -0.002  0.00  0.00    -0.332 N 
HETATM    3  C   UNK N   1       4.929   1.040  -0.005  0.00  0.00     0.185 A 
HETATM    4  N   UNK N   1       4.857  -0.331  -0.004  0.00  0.00    -0.337 N 
ATOM      5  HN  UNK N   1       5.717  -0.880  -0.006  1.00  0.00     0.168 HD
HETATM    6  C   UNK N   1       3.650  -0.971  -0.001  0.00  0.00     0.131 A 
HETATM    7  C   UNK N   1       2.500  -0.192  -0.000  0.00  0.00     0.122 A 
HETATM    8  N   UNK N   1       1.208  -0.555   0.002  0.00  0.00    -0.346 N 
ATOM      9  HN  UNK N   1       0.822  -1.499   0.003  1.00  0.00     0.167 HD
HETATM   10  C   UNK N   1       0.530   0.627   0.003  0.00  0.00     0.182 A 
HETATM   11  N   UNK N   1       1.368   1.699   0.002  0.00  0.00    -0.336 N 
ATOM     12  HN  UNK N   1       1.123   2.689   0.002  1.00  0.00     0.168 HD
HETATM   13  C   UNK N   1       2.592   1.151  -0.001  0.00  0.00     0.140 A 
ENDROOT
BRANCH   6  14
HETATM   14  N   UNK N   1       3.589  -2.379   0.005  0.00  0.00    -0.383 N 
HETATM   15  H   UNK N   1       2.715  -2.834   0.009  0.00  0.00     0.157 HD
HETATM   16  H   UNK N   1       4.419  -2.908   0.005  0.00  0.00     0.157 HD
ENDBRANCH   6  14
TORSDOF 1
