REMARK  9 active torsions:
REMARK  status: ('A' for Active; 'I' for Inactive)
REMARK    1  A    between atoms: C_4  and  C_2 
REMARK    2  A    between atoms: O_25  and  C_2 
REMARK    3  A    between atoms: C_6  and  O_19 
REMARK    4  A    between atoms: C_7  and  O_20 
REMARK    5  A    between atoms: O_21  and  C_9 
REMARK    6  A    between atoms: C_10  and  N_18 
REMARK    7  A    between atoms: P_27  and  O_22 
REMARK    8  A    between atoms: P_27  and  O_23 
REMARK    9  A    between atoms: P_27  and  O_25 
ROOT
HETATM    1  C   UNK N   1      -1.518  -4.197  -0.399  0.00  0.00     0.180 C 
HETATM    2  C   UNK N   1      -0.130  -4.775  -0.078  0.00  0.00     0.182 C 
HETATM    3  C   UNK N   1       0.712  -3.515   0.151  0.00  0.00     0.198 C 
HETATM    4  C   UNK N   1      -0.254  -2.413  -0.272  0.00  0.00     0.258 C 
HETATM    5  O   UNK N   1      -1.524  -2.887   0.126  0.00  0.00    -0.354 OA
ENDROOT
BRANCH   4   6
HETATM    6  N   UNK N   1       0.031  -1.108   0.303  0.00  0.00    -0.319 N 
HETATM    7  C   UNK N   1      -0.976  -0.042   0.285  0.00  0.00     0.253 A 
HETATM    8  N   UNK N   1      -0.173   1.170   0.202  0.00  0.00    -0.362 N 
HETATM    9  C   UNK N   1      -0.716   2.499   0.098  0.00  0.00     0.152 C 
HETATM   10  C   UNK N   1       1.182   0.833   0.147  0.00  0.00     0.128 A 
HETATM   11  C   UNK N   1       1.304  -0.502   0.203  0.00  0.00     0.153 A 
HETATM   12  C   UNK N   1       2.314   1.630   0.006  0.00  0.00     0.186 A 
HETATM   13  N   UNK N   1       2.507  -1.119   0.119  0.00  0.00    -0.174 N 
HETATM   14  C   UNK N   1       3.632  -0.352  -0.003  0.00  0.00     0.679 A 
HETATM   15  H   UNK N   1       2.570  -2.102   0.145  0.00  0.00     0.186 HD
HETATM   16  N   UNK N   1       4.778  -0.909  -0.071  0.00  0.00    -0.234 N 
HETATM   17  N   UNK N   1       3.530   1.015  -0.061  0.00  0.00    -0.168 N 
HETATM   18  H   UNK N   1       4.848  -1.890  -0.124  0.00  0.00     0.174 HD
ATOM     19  HN  UNK N   1       5.623  -0.338  -0.071  1.00  0.00     0.174 HD
ATOM     20  HN  UNK N   1       4.375   1.579  -0.155  1.00  0.00     0.186 HD
BRANCH  12  21
HETATM   21  O   UNK N   1       2.222   2.968  -0.078  0.00  0.00    -0.344 OA
HETATM   22  H   UNK N   1       2.998   3.490  -0.136  0.00  0.00     0.219 HD
ENDBRANCH  12  21
ENDBRANCH   4   6
BRANCH   3  23
HETATM   23  O   UNK N   1       0.991  -3.368   1.517  0.00  0.00    -0.388 OA
HETATM   24  H   UNK N   1       1.176  -3.484   2.462  0.00  0.00     0.210 HD
ENDBRANCH   3  23
BRANCH   2  25
HETATM   25  O   UNK N   1      -0.155  -5.549   1.092  0.00  0.00    -0.390 OA
HETATM   26  H   UNK N   1      -0.627  -5.801   1.901  0.00  0.00     0.210 HD
ENDBRANCH   2  25
BRANCH   1  27
HETATM   27  C   UNK N   1      -2.646  -5.080   0.136  0.00  0.00     0.215 C 
BRANCH  27  28
HETATM   28  O   UNK N   1      -3.786  -4.337   0.479  0.00  0.00    -0.294 OA
BRANCH  28  29
HETATM   29  P   UNK N   1      -5.101  -4.893  -0.525  0.00  0.00     0.390 P 
HETATM   30  O   UNK N   1      -5.131  -6.025   0.541  0.00  0.00    -0.632 OA
BRANCH  29  31
HETATM   31  O   UNK N   1      -6.747  -4.840   0.027  0.00  0.00    -0.307 OA
HETATM   32  H   UNK N   1      -7.181  -4.029   0.335  0.00  0.00     0.222 HD
ENDBRANCH  29  31
BRANCH  29  33
HETATM   33  O   UNK N   1      -5.491  -3.401   0.274  0.00  0.00    -0.307 OA
HETATM   34  H   UNK N   1      -4.878  -2.796   0.720  0.00  0.00     0.222 HD
ENDBRANCH  29  33
ENDBRANCH  28  29
ENDBRANCH  27  28
ENDBRANCH   1  27
TORSDOF 9
