REMARK  4 active torsions:
REMARK  status: ('A' for Active; 'I' for Inactive)
REMARK    1  A    between atoms: O_2  and  C_3 
REMARK    2  A    between atoms: C_3  and  C_5 
REMARK    3  A    between atoms: C_12  and  O_13 
REMARK    4  A    between atoms: C_24  and  O_25 
ROOT
HETATM    1  C   UNK N   1       6.242  -1.083  -0.000  0.00  0.00     0.053 A 
HETATM    2  C   UNK N   1       7.452  -0.418  -0.000  0.00  0.00    -0.059 A 
HETATM    3  C   UNK N   1       8.778  -1.066  -0.000  0.00  0.00     0.045 C 
HETATM    4  C   UNK N   1       7.576   1.083  -0.000  0.00  0.00     0.118 A 
HETATM    5  C   UNK N   1       6.321   1.873   0.000  0.00  0.00     0.167 A 
HETATM    6  O   UNK N   1       6.402   3.092   0.000  0.00  0.00    -0.292 OA
HETATM    7  C   UNK N   1       5.011   1.198   0.000  0.00  0.00     0.055 A 
HETATM    8  C   UNK N   1       3.793   1.943   0.000  0.00  0.00     0.095 A 
HETATM    9  C   UNK N   1       2.544   1.274   0.000  0.00  0.00     0.063 A 
HETATM   10  C   UNK N   1       2.534  -0.127   0.000  0.00  0.00     0.033 A 
HETATM   11  C   UNK N   1       3.726  -0.826   0.000  0.00  0.00     0.030 A 
HETATM   12  C   UNK N   1       4.977  -0.217   0.000  0.00  0.00    -0.002 A 
HETATM   13  C   UNK N   1       1.272  -0.886   0.000  0.00  0.00     0.194 A 
HETATM   14  O   UNK N   1       1.297  -2.111   0.000  0.00  0.00    -0.287 OA
HETATM   15  C   UNK N   1      -0.016  -0.178   0.000  0.00  0.00     0.032 A 
HETATM   16  C   UNK N   1      -1.206  -0.916   0.000  0.00  0.00     0.017 A 
HETATM   17  C   UNK N   1      -2.438  -0.270  -0.000  0.00  0.00     0.004 A 
HETATM   18  C   UNK N   1      -2.491   1.123  -0.000  0.00  0.00     0.037 A 
HETATM   19  C   UNK N   1      -1.314   1.879  -0.000  0.00  0.00     0.080 A 
HETATM   20  C   UNK N   1      -0.053   1.234   0.000  0.00  0.00     0.062 A 
HETATM   21  C   UNK N   1       1.235   2.002   0.000  0.00  0.00     0.199 A 
HETATM   22  O   UNK N   1       1.215   3.225   0.000  0.00  0.00    -0.286 OA
ENDROOT
BRANCH   1  23
HETATM   23  C   UNK N   1       6.043  -2.640  -0.000  0.00  0.00     0.294 C 
HETATM   24  O   UNK N   1       4.896  -3.052  -0.000  0.00  0.00    -0.259 OA
BRANCH  23  25
HETATM   25  O   UNK N   1       6.980  -3.635  -0.000  0.00  0.00    -0.322 OA
HETATM   26  C   UNK N   1       8.345  -3.668   0.000  0.00  0.00     0.213 C 
ENDBRANCH  23  25
ENDBRANCH   1  23
BRANCH   8  27
HETATM   27  O   UNK N   1       3.828   3.291   0.000  0.00  0.00    -0.359 OA
HETATM   28  H   UNK N   1       4.651   3.738   0.000  0.00  0.00     0.217 HD
ENDBRANCH   8  27
BRANCH  19  29
HETATM   29  O   UNK N   1      -1.409   3.220  -0.000  0.00  0.00    -0.360 OA
HETATM   30  H   UNK N   1      -0.632   3.744  -0.000  0.00  0.00     0.217 HD
ENDBRANCH  19  29
TORSDOF 4
