REMARK  3 active torsions:
REMARK  status: ('A' for Active; 'I' for Inactive)
REMARK    1  A    between atoms: C_7  and  N_11 
REMARK    2  A    between atoms: S_18  and  C_8 
REMARK    3  A    between atoms: S_18  and  N_10 
ROOT
HETATM    1  C   UNK N   1       5.833   2.176   1.158  0.00  0.00     0.026 C 
HETATM    2  C   UNK N   1       4.532   0.695  -0.404  0.00  0.00     0.049 C 
HETATM    3  C   UNK N   1       0.751   0.548   0.146  0.00  0.00     0.044 A 
HETATM    4  C   UNK N   1       5.071   2.127  -0.154  0.00  0.00     0.112 C 
HETATM    5  C   UNK N   1       2.075   1.072   0.183  0.00  0.00    -0.005 A 
HETATM    6  C   UNK N   1       3.340   0.288   0.506  0.00  0.00     0.112 C 
HETATM    7  C   UNK N   1      -0.201   1.539  -0.140  0.00  0.00     0.121 A 
HETATM    8  C   UNK N   1       2.137   2.437  -0.065  0.00  0.00     0.110 A 
HETATM    9  O   UNK N   1       3.712   4.248  -1.326  0.00  0.00    -0.222 OA
HETATM   10  O   UNK N   1       3.765   4.262   1.074  0.00  0.00    -0.222 OA
HETATM   11  S   UNK N   1       0.601   2.980  -0.332  0.00  0.00    -0.064 SA
HETATM   12  S   UNK N   1       3.674   3.298  -0.119  0.00  0.00     0.186 S 
ENDROOT
BRANCH   7  13
HETATM   13  S   UNK N   1      -1.974   1.326  -0.138  0.00  0.00     0.263 S 
HETATM   14  O   UNK N   1      -2.723   2.513  -0.762  0.00  0.00    -0.200 OA
HETATM   15  O   UNK N   1      -2.546   1.301   1.287  0.00  0.00    -0.200 OA
BRANCH  13  16
HETATM   16  N   UNK N   1      -2.643  -0.104  -0.924  0.00  0.00    -0.324 N 
HETATM   17  H   UNK N   1      -3.553  -0.183  -1.378  0.00  0.00     0.169 HD
HETATM   18  H   UNK N   1      -2.060  -0.941  -0.924  0.00  0.00     0.169 HD
ENDBRANCH  13  16
ENDBRANCH   7  13
BRANCH   6  19
HETATM   19  N   UNK N   1       3.114  -1.163   0.496  0.00  0.00    -0.417 N 
HETATM   20  C   UNK N   1       2.856  -1.646  -0.857  0.00  0.00     0.140 C 
HETATM   21  H   UNK N   1       3.134  -1.755   1.325  0.00  0.00     0.153 HD
ENDBRANCH   6  19
TORSDOF 3
