REMARK  9 active torsions:
REMARK  status: ('A' for Active; 'I' for Inactive)
REMARK    1  A    between atoms: S_2  and  C_3 
REMARK    2  A    between atoms: C_3  and  S_4 
REMARK    3  A    between atoms: S_4  and  C_6 
REMARK    4  A    between atoms: C_6  and  C_7 
REMARK    5  A    between atoms: C_7  and  C_8 
REMARK    6  A    between atoms: C_7  and  N_10 
REMARK    7  A    between atoms: C_8  and  O_9 
REMARK       I    between atoms: N_10  and  C_11 
REMARK    8  A    between atoms: C_11  and  C_13 
REMARK    9  A    between atoms: C_14  and  C_15 
ROOT
HETATM    1  N   UNK N   1      -0.271  -4.769  -1.192  0.00  0.00    -0.350 N 
HETATM    2  C   UNK N   1       0.953  -5.173  -0.755  0.00  0.00     0.241 C 
HETATM    3  O   UNK N   1       1.801  -5.481  -1.577  0.00  0.00    -0.269 OA
HETATM    4  H   UNK N   1      -0.406  -4.718  -2.166  0.00  0.00     0.163 HD
ENDROOT
BRANCH   2   5
HETATM    5  C   UNK N   1       1.276  -5.196   0.694  0.00  0.00     0.075 C 
HETATM    6  C   UNK N   1       2.452  -5.525   1.254  0.00  0.00     0.024 C 
BRANCH   6   7
HETATM    7  C   UNK N   1       3.662  -6.007   0.543  0.00  0.00     0.054 A 
HETATM    8  C   UNK N   1       4.713  -5.129   0.217  0.00  0.00     0.025 A 
HETATM    9  C   UNK N   1       4.622  -3.671   0.518  0.00  0.00     0.069 C 
HETATM   10  N   UNK N   1       5.839  -5.610  -0.374  0.00  0.00    -0.312 N 
HETATM   11  C   UNK N   1       5.976  -6.942  -0.658  0.00  0.00     0.327 A 
HETATM   12  H   UNK N   1       6.568  -4.989  -0.601  0.00  0.00     0.170 HD
HETATM   13  O   UNK N   1       7.000  -7.353  -1.170  0.00  0.00    -0.247 OA
HETATM   14  N   UNK N   1       4.964  -7.812  -0.358  0.00  0.00    -0.275 N 
HETATM   15  C   UNK N   1       3.813  -7.369   0.237  0.00  0.00     0.261 A 
HETATM   16  H   UNK N   1       5.064  -8.768  -0.573  0.00  0.00     0.173 HD
HETATM   17  O   UNK N   1       2.933  -8.167   0.511  0.00  0.00    -0.267 OA
ENDBRANCH   6   7
ENDBRANCH   2   5
BRANCH   1  18
HETATM   18  C   UNK N   1      -1.398  -4.407  -0.346  0.00  0.00     0.119 C 
BRANCH  18  19
HETATM   19  C   UNK N   1      -1.999  -5.638   0.332  0.00  0.00     0.136 C 
BRANCH  19  20
HETATM   20  S   UNK N   1      -3.711  -5.414   0.972  0.00  0.00     0.026 S 
HETATM   21  O   UNK N   1      -4.017  -4.144   0.161  0.00  0.00    -0.257 OA
BRANCH  20  22
HETATM   22  C   UNK N   1      -4.388  -6.472  -0.343  0.00  0.00     0.181 C 
BRANCH  22  23
HETATM   23  S   UNK N   1      -6.205  -6.443  -0.306  0.00  0.00    -0.161 SA
HETATM   24  C   UNK N   1      -6.281  -7.880   0.798  0.00  0.00     0.090 C 
ENDBRANCH  22  23
ENDBRANCH  20  22
ENDBRANCH  19  20
ENDBRANCH  18  19
BRANCH  18  25
HETATM   25  C   UNK N   1      -1.062  -3.309   0.659  0.00  0.00     0.190 C 
BRANCH  25  26
HETATM   26  O   UNK N   1      -0.673  -2.148  -0.008  0.00  0.00    -0.399 OA
HETATM   27  H   UNK N   1       0.162  -1.979  -0.473  0.00  0.00     0.209 HD
ENDBRANCH  25  26
ENDBRANCH  18  25
ENDBRANCH   1  18
TORSDOF 9
