REMARK  3 active torsions:
REMARK  status: ('A' for Active; 'I' for Inactive)
REMARK    1  A    between atoms: N_1  and  O_2 
REMARK    2  A    between atoms: O_2  and  C_3 
REMARK       I    between atoms: C_3  and  N_5 
REMARK    3  A    between atoms: N_5  and  C_6 
ROOT
HETATM    1  C   UNK N   1      -0.189   3.324  -0.037  0.00  0.00     0.386 C 
HETATM    2  O   UNK N   1      -1.284   2.788  -0.154  0.00  0.00    -0.236 OA
HETATM    3  N   UNK N   1       0.949   2.580   0.035  0.00  0.00    -0.301 N 
HETATM    4  H   UNK N   1       1.803   3.067   0.089  0.00  0.00     0.171 HD
ENDROOT
BRANCH   3   5
HETATM    5  C   UNK N   1       1.007   1.156   0.039  0.00  0.00     0.036 A 
HETATM    6  C   UNK N   1       2.252   0.526  -0.076  0.00  0.00     0.029 A 
HETATM    7  C   UNK N   1       2.339  -0.870  -0.088  0.00  0.00     0.002 A 
HETATM    8  C   UNK N   1       1.182  -1.646   0.021  0.00  0.00     0.000 A 
HETATM    9  C   UNK N   1      -0.063  -1.027   0.148  0.00  0.00     0.002 A 
HETATM   10  C   UNK N   1      -0.150   0.366   0.156  0.00  0.00     0.029 A 
ENDBRANCH   3   5
BRANCH   1  11
HETATM   11  O   UNK N   1      -0.101   4.672   0.005  0.00  0.00    -0.188 OA
BRANCH  11  12
HETATM   12  N   UNK N   1      -1.192   5.434  -0.049  0.00  0.00    -0.301 N 
HETATM   13  H   UNK N   1      -1.104   6.450  -0.091  0.00  0.00     0.184 HD
HETATM   14  H   UNK N   1      -2.116   5.003  -0.049  0.00  0.00     0.184 HD
ENDBRANCH  11  12
ENDBRANCH   1  11
TORSDOF 3
