REMARK  20 active torsions:
REMARK  status: ('A' for Active; 'I' for Inactive)
REMARK    1  A    between atoms: C_20  and  C_12 
REMARK    2  A    between atoms: C_23  and  C_12 
REMARK    3  A    between atoms: C_19  and  C_15 
REMARK    4  A    between atoms: O_44  and  C_15 
REMARK    5  A    between atoms: C_27  and  C_16 
REMARK    6  A    between atoms: O_45  and  C_16 
REMARK    7  A    between atoms: C_21  and  C_17 
REMARK    8  A    between atoms: N_32  and  C_17 
REMARK    9  A    between atoms: O_36  and  C_18 
REMARK   10  A    between atoms: C_28  and  C_22 
REMARK   11  A    between atoms: C_29  and  C_23 
REMARK   12  A    between atoms: C_23  and  N_34 
REMARK   13  A    between atoms: O_44  and  C_24 
REMARK   14  A    between atoms: O_45  and  C_25 
REMARK   15  A    between atoms: P_46  and  C_26 
REMARK   16  A    between atoms: O_38  and  C_27 
REMARK   17  A    between atoms: O_39  and  C_28 
REMARK   18  A    between atoms: C_29  and  O_40 
REMARK   19  A    between atoms: P_46  and  O_41 
REMARK   20  A    between atoms: P_46  and  O_42 
ROOT
HETATM    1  C   UNK N   1       4.315   6.766  -1.235  0.00  0.00     0.135 C 
HETATM    2  N   UNK N   1       4.886   5.808  -0.589  0.00  0.00    -0.364 N 
ATOM      3  HN  UNK N   1       4.493   5.602   0.330  1.00  0.00     0.162 HD
ENDROOT
BRANCH   1   4
HETATM    4  C   UNK N   1       2.942   7.203  -0.811  0.00  0.00     0.162 C 
BRANCH   4   5
HETATM    5  C   UNK N   1       2.866   7.907   0.567  0.00  0.00     0.072 C 
BRANCH   5   6
HETATM    6  C   UNK N   1       1.486   8.476   0.721  0.00  0.00    -0.054 A 
HETATM    7  C   UNK N   1       1.283   9.854   0.683  0.00  0.00     0.010 A 
HETATM    8  C   UNK N   1      -0.015  10.359   0.560  0.00  0.00     0.038 A 
HETATM    9  C   UNK N   1      -1.111   9.494   0.418  0.00  0.00     0.087 A 
HETATM   10  C   UNK N   1      -0.900   8.091   0.516  0.00  0.00     0.083 A 
HETATM   11  C   UNK N   1       0.390   7.618   0.682  0.00  0.00     0.029 A 
BRANCH   9  12
HETATM   12  O   UNK N   1      -2.323  10.044   0.174  0.00  0.00    -0.340 OA
BRANCH  12  13
HETATM   13  C   UNK N   1      -3.200   9.504  -0.736  0.00  0.00     0.285 C 
BRANCH  13  14
HETATM   14  C   UNK N   1      -4.594   9.921  -0.442  0.00  0.00     0.164 C 
HETATM   15  O   UNK N   1      -5.441   9.075  -0.213  0.00  0.00    -0.648 OA
BRANCH  14  16
HETATM   16  O   UNK N   1      -4.928  11.223  -0.457  0.00  0.00    -0.775 OA
HETATM   17  H   UNK N   1      -4.258  11.879  -0.468  0.00  0.00     0.167 HD
ENDBRANCH  14  16
ENDBRANCH  13  14
ENDBRANCH  12  13
ENDBRANCH   9  12
BRANCH  10  18
HETATM   18  P   UNK N   1      -2.226   6.815   0.366  0.00  0.00     0.273 P 
HETATM   19  O   UNK N   1      -1.637   5.413   0.679  0.00  0.00    -0.650 OA
BRANCH  18  20
HETATM   20  O   UNK N   1      -2.866   6.625  -1.237  0.00  0.00    -0.326 OA
HETATM   21  H   UNK N   1      -3.137   6.882  -2.132  0.00  0.00     0.220 HD
ENDBRANCH  18  20
BRANCH  18  22
HETATM   22  O   UNK N   1      -3.562   6.961   1.461  0.00  0.00    -0.326 OA
HETATM   23  H   UNK N   1      -3.865   7.650   2.074  0.00  0.00     0.220 HD
ENDBRANCH  18  22
ENDBRANCH  10  18
ENDBRANCH   5   6
ENDBRANCH   4   5
BRANCH   4  24
HETATM   24  N   UNK N   1       2.027   6.062  -0.896  0.00  0.00    -0.362 N 
HETATM   25  C   UNK N   1       1.952   5.095  -0.035  0.00  0.00     0.107 C 
HETATM   26  C   UNK N   1       0.965   4.000  -0.245  0.00  0.00     0.097 C 
ATOM     27  HN  UNK N   1       1.397   6.026  -1.697  1.00  0.00     0.162 HD
BRANCH  25  28
HETATM   28  O   UNK N   1       2.723   5.080   1.072  0.00  0.00    -0.350 OA
HETATM   29  H   UNK N   1       2.981   4.611   1.841  0.00  0.00     0.219 HD
ENDBRANCH  25  28
ENDBRANCH   4  24
ENDBRANCH   1   4
BRANCH   1  30
HETATM   30  O   UNK N   1       4.845   7.271  -2.367  0.00  0.00    -0.348 OA
HETATM   31  H   UNK N   1       5.333   7.128  -3.154  0.00  0.00     0.219 HD
ENDBRANCH   1  30
BRANCH   2  32
HETATM   32  C   UNK N   1       6.014   4.980  -0.991  0.00  0.00     0.112 C 
HETATM   33  C   UNK N   1       6.594   5.273  -2.370  0.00  0.00     0.037 C 
BRANCH  32  34
HETATM   34  C   UNK N   1       5.437   3.596  -0.947  0.00  0.00    -0.035 A 
HETATM   35  C   UNK N   1       4.220   3.348  -1.586  0.00  0.00     0.012 A 
HETATM   36  C   UNK N   1       3.461   2.243  -1.232  0.00  0.00     0.038 A 
HETATM   37  C   UNK N   1       3.889   1.355  -0.242  0.00  0.00     0.083 A 
HETATM   38  C   UNK N   1       5.196   1.538   0.338  0.00  0.00     0.048 A 
HETATM   39  C   UNK N   1       5.931   2.676  -0.034  0.00  0.00     0.027 A 
BRANCH  37  40
HETATM   40  O   UNK N   1       3.002   0.369   0.067  0.00  0.00    -0.350 OA
BRANCH  40  41
HETATM   41  C   UNK N   1       3.243  -0.787   0.755  0.00  0.00     0.180 C 
BRANCH  41  42
HETATM   42  C   UNK N   1       4.075  -1.702  -0.107  0.00  0.00     0.010 C 
HETATM   43  C   UNK N   1       4.757  -2.755   0.764  0.00  0.00     0.007 C 
HETATM   44  C   UNK N   1       5.312  -3.859  -0.122  0.00  0.00     0.000 C 
HETATM   45  C   UNK N   1       4.191  -4.570  -0.898  0.00  0.00     0.000 C 
HETATM   46  C   UNK N   1       2.894  -3.757  -0.997  0.00  0.00     0.000 C 
HETATM   47  C   UNK N   1       3.209  -2.285  -1.233  0.00  0.00     0.007 C 
ENDBRANCH  41  42
ENDBRANCH  40  41
ENDBRANCH  37  40
BRANCH  38  48
HETATM   48  C   UNK N   1       5.849   0.702   1.389  0.00  0.00     0.146 C 
HETATM   49  N   UNK N   1       7.124   0.715   1.507  0.00  0.00    -0.379 N 
HETATM   50  H   UNK N   1       7.623  -0.129   1.598  0.00  0.00     0.158 HD
ATOM     51  HN  UNK N   1       7.625   1.604   1.507  1.00  0.00     0.158 HD
BRANCH  48  52
HETATM   52  O   UNK N   1       5.129   0.025   2.301  0.00  0.00    -0.346 OA
HETATM   53  H   UNK N   1       4.469   0.224   2.936  0.00  0.00     0.219 HD
ENDBRANCH  48  52
ENDBRANCH  38  48
ENDBRANCH  32  34
ENDBRANCH   2  32
TORSDOF 20
