REMARK  18 active torsions:
REMARK  status: ('A' for Active; 'I' for Inactive)
REMARK    1  A    between atoms: C_3  and  C_46 
REMARK    2  A    between atoms: C_6  and  C_8 
REMARK    3  A    between atoms: C_9  and  O_45 
REMARK    4  A    between atoms: C_10  and  O_44 
REMARK    5  A    between atoms: C_11  and  C_13 
REMARK    6  A    between atoms: C_13  and  O_14 
REMARK    7  A    between atoms: O_14  and  P_15 
REMARK    8  A    between atoms: P_15  and  O_17 
REMARK    9  A    between atoms: P_15  and  O_18 
REMARK   10  A    between atoms: O_18  and  P_19 
REMARK   11  A    between atoms: P_19  and  O_21 
REMARK   12  A    between atoms: P_19  and  O_22 
REMARK   13  A    between atoms: O_22  and  C_23 
REMARK   14  A    between atoms: C_24  and  C_23 
REMARK   15  A    between atoms: C_25  and  O_43 
REMARK   16  A    between atoms: C_26  and  O_42 
REMARK   17  A    between atoms: C_27  and  N_29 
REMARK   18  A    between atoms: C_40  and  N_41 
REMARK       I    between atoms: C_46  and  N_48 
ROOT
HETATM    1  P   UNK N   1      -3.504  -3.420  -1.836  0.00  0.00     0.401 P 
HETATM    2  O   UNK N   1      -3.336  -4.545  -0.781  0.00  0.00    -0.631 OA
ENDROOT
BRANCH   1   3
HETATM    3  O   UNK N   1      -4.982  -2.981  -0.917  0.00  0.00    -0.195 OA
BRANCH   3   4
HETATM    4  P   UNK N   1      -5.032  -3.240   0.850  0.00  0.00     0.401 P 
HETATM    5  O   UNK N   1      -3.872  -2.492   1.553  0.00  0.00    -0.631 OA
BRANCH   4   6
HETATM    6  O   UNK N   1      -6.476  -2.502   1.489  0.00  0.00    -0.294 OA
BRANCH   6   7
HETATM    7  C   UNK N   1      -7.502  -3.452   1.407  0.00  0.00     0.215 C 
BRANCH   7   8
HETATM    8  C   UNK N   1      -8.030  -3.540  -0.016  0.00  0.00     0.178 C 
HETATM    9  C   UNK N   1      -9.508  -3.820  -0.042  0.00  0.00     0.180 C 
HETATM   10  C   UNK N   1      -9.595  -4.385  -1.412  0.00  0.00     0.184 C 
HETATM   11  C   UNK N   1      -8.366  -5.288  -1.417  0.00  0.00     0.203 C 
HETATM   12  O   UNK N   1      -7.368  -4.572  -0.724  0.00  0.00    -0.367 OA
BRANCH   9  13
HETATM   13  O   UNK N   1     -10.235  -2.634   0.061  0.00  0.00    -0.390 OA
HETATM   14  H   UNK N   1      -9.774  -1.784   0.133  0.00  0.00     0.210 HD
ENDBRANCH   9  13
BRANCH  10  15
HETATM   15  O   UNK N   1     -10.802  -5.040  -1.657  0.00  0.00    -0.390 OA
HETATM   16  H   UNK N   1     -11.616  -4.541  -1.827  0.00  0.00     0.210 HD
ENDBRANCH  10  15
BRANCH  11  17
HETATM   17  C   UNK N   1      -8.522  -6.661  -0.793  0.00  0.00     0.041 A 
HETATM   18  N   UNK N   1      -9.734  -7.110  -0.360  0.00  0.00    -0.353 N 
HETATM   19  C   UNK N   1      -9.901  -8.359   0.159  0.00  0.00     0.100 A 
ATOM     20  HN  UNK N   1     -10.542  -6.491  -0.426  1.00  0.00     0.166 HD
HETATM   21  C   UNK N   1      -8.798  -9.213   0.273  0.00  0.00     0.035 A 
HETATM   22  C   UNK N   1      -7.544  -8.775  -0.153  0.00  0.00     0.004 A 
HETATM   23  C   UNK N   1      -7.405  -7.499  -0.699  0.00  0.00     0.028 A 
BRANCH  19  24
HETATM   24  C   UNK N   1     -11.246  -8.809   0.568  0.00  0.00     0.266 C 
HETATM   25  O   UNK N   1     -12.201  -8.057   0.454  0.00  0.00    -0.266 OA
HETATM   26  N   UNK N   1     -11.435 -10.055   1.049  0.00  0.00    -0.365 N 
HETATM   27  H   UNK N   1     -12.291 -10.390   1.401  0.00  0.00     0.159 HD
HETATM   28  H   UNK N   1     -10.665 -10.669   1.049  0.00  0.00     0.159 HD
ENDBRANCH  19  24
ENDBRANCH  11  17
ENDBRANCH   7   8
ENDBRANCH   6   7
ENDBRANCH   4   6
BRANCH   4  29
HETATM   29  O   UNK N   1      -4.956  -4.915   1.315  0.00  0.00    -0.307 OA
HETATM   30  H   UNK N   1      -5.744  -5.419   1.575  0.00  0.00     0.222 HD
ENDBRANCH   4  29
ENDBRANCH   3   4
ENDBRANCH   1   3
BRANCH   1  31
HETATM   31  O   UNK N   1      -3.570  -1.762  -1.295  0.00  0.00    -0.307 OA
HETATM   32  H   UNK N   1      -2.790  -1.270  -0.994  0.00  0.00     0.222 HD
ENDBRANCH   1  31
BRANCH   1  33
HETATM   33  O   UNK N   1      -1.847  -2.942  -1.353  0.00  0.00    -0.294 OA
BRANCH  33  34
HETATM   34  C   UNK N   1      -1.679  -2.786   0.048  0.00  0.00     0.215 C 
BRANCH  34  35
HETATM   35  C   UNK N   1      -0.683  -3.763   0.638  0.00  0.00     0.180 C 
HETATM   36  C   UNK N   1       0.713  -3.242   0.462  0.00  0.00     0.182 C 
HETATM   37  C   UNK N   1       1.463  -4.510   0.574  0.00  0.00     0.198 C 
HETATM   38  C   UNK N   1       0.566  -5.390  -0.270  0.00  0.00     0.262 C 
HETATM   39  O   UNK N   1      -0.765  -5.033   0.029  0.00  0.00    -0.353 OA
BRANCH  36  40
HETATM   40  O   UNK N   1       1.053  -2.357   1.486  0.00  0.00    -0.390 OA
HETATM   41  H   UNK N   1       1.704  -2.254   2.197  0.00  0.00     0.210 HD
ENDBRANCH  36  40
BRANCH  37  42
HETATM   42  O   UNK N   1       2.729  -4.367   0.008  0.00  0.00    -0.388 OA
HETATM   43  H   UNK N   1       3.255  -5.080  -0.386  0.00  0.00     0.210 HD
ENDBRANCH  37  42
BRANCH  38  44
HETATM   44  N   UNK N   1       0.797  -6.811  -0.012  0.00  0.00    -0.297 N 
HETATM   45  C   UNK N   1      -0.106  -7.729   0.428  0.00  0.00     0.188 A 
HETATM   46  N   UNK N   1       0.456  -8.966   0.536  0.00  0.00    -0.346 N 
HETATM   47  C   UNK N   1       1.733  -8.785   0.147  0.00  0.00     0.122 A 
ATOM     48  HN  UNK N   1       0.011  -9.832   0.841  1.00  0.00     0.167 HD
HETATM   49  C   UNK N   1       1.932  -7.496  -0.182  0.00  0.00     0.142 A 
HETATM   50  C   UNK N   1       2.774  -9.694   0.055  0.00  0.00     0.131 A 
HETATM   51  N   UNK N   1       3.128  -7.030  -0.613  0.00  0.00    -0.336 N 
HETATM   52  C   UNK N   1       4.168  -7.913  -0.704  0.00  0.00     0.183 A 
ATOM     53  HN  UNK N   1       3.250  -6.048  -0.863  1.00  0.00     0.168 HD
HETATM   54  N   UNK N   1       3.989  -9.234  -0.373  0.00  0.00    -0.337 N 
ATOM     55  HN  UNK N   1       4.774  -9.882  -0.446  1.00  0.00     0.168 HD
BRANCH  50  56
HETATM   56  N   UNK N   1       2.597 -11.051   0.389  0.00  0.00    -0.383 N 
HETATM   57  H   UNK N   1       1.713 -11.417   0.622  0.00  0.00     0.157 HD
HETATM   58  H   UNK N   1       3.378 -11.649   0.389  0.00  0.00     0.157 HD
ENDBRANCH  50  56
ENDBRANCH  38  44
ENDBRANCH  34  35
ENDBRANCH  33  34
ENDBRANCH   1  33
TORSDOF 18
