REMARK  6 active torsions:
REMARK  status: ('A' for Active; 'I' for Inactive)
REMARK    1  A    between atoms: C_2  and  N_1 
REMARK    2  A    between atoms: C_2  and  C_3 
REMARK    3  A    between atoms: C_2  and  C_13 
REMARK    4  A    between atoms: C_3  and  C_4 
REMARK    5  A    between atoms: C_8  and  O_9 
REMARK    6  A    between atoms: C_13  and  O_14 
ROOT
HETATM    1  C   UNK N   1       1.454   0.600   0.381  0.00  0.00    -0.002 A 
HETATM    2  C   UNK N   1       1.579  -0.735   0.308  0.00  0.00     0.069 A 
HETATM    3  C   UNK N   1       0.384  -1.600   0.169  0.00  0.00     0.205 A 
HETATM    4  O   UNK N   1       0.511  -2.811   0.113  0.00  0.00    -0.285 OA
HETATM    5  C   UNK N   1      -0.964  -0.985   0.121  0.00  0.00     0.119 A 
HETATM    6  C   UNK N   1      -1.097   0.344   0.204  0.00  0.00     0.096 A 
HETATM    7  C   UNK N   1       0.092   1.211   0.349  0.00  0.00     0.181 A 
HETATM    8  O   UNK N   1      -0.057   2.413   0.482  0.00  0.00    -0.288 OA
ENDROOT
BRANCH   1   9
HETATM    9  C   UNK N   1       2.686   1.434   0.616  0.00  0.00     0.078 C 
BRANCH   9  10
HETATM   10  C   UNK N   1       3.136   2.320  -0.550  0.00  0.00     0.177 C 
BRANCH  10  11
HETATM   11  N   UNK N   1       2.079   3.230  -0.962  0.00  0.00    -0.417 N 
HETATM   12  H   UNK N   1       2.260   4.191  -1.251  0.00  0.00     0.150 HD
HETATM   13  H   UNK N   1       1.116   2.893  -0.962  0.00  0.00     0.150 HD
ENDBRANCH  10  11
BRANCH  10  14
HETATM   14  C   UNK N   1       4.339   3.104  -0.106  0.00  0.00     0.163 C 
HETATM   15  O   UNK N   1       5.376   2.522   0.171  0.00  0.00    -0.648 OA
BRANCH  14  16
HETATM   16  O   UNK N   1       4.280   4.446   0.008  0.00  0.00    -0.775 OA
HETATM   17  H   UNK N   1       5.068   4.948   0.088  0.00  0.00     0.167 HD
ENDBRANCH  14  16
ENDBRANCH  10  14
ENDBRANCH   9  10
ENDBRANCH   1   9
BRANCH   5  18
HETATM   18  O   UNK N   1      -2.061  -1.759   0.003  0.00  0.00    -0.357 OA
HETATM   19  H   UNK N   1      -2.909  -1.368  -0.079  0.00  0.00     0.218 HD
ENDBRANCH   5  18
TORSDOF 6
