REMARK  5 active torsions:
REMARK  status: ('A' for Active; 'I' for Inactive)
REMARK    1  A    between atoms: C_6  and  C_4 
REMARK    2  A    between atoms: C_8  and  C_4 
REMARK    3  A    between atoms: C_10  and  C_8 
REMARK    4  A    between atoms: C_8  and  N_11 
REMARK    5  A    between atoms: O_16  and  C_10 
ROOT
HETATM    1  C   UNK N   1       5.455   0.472  -0.023  0.00  0.00     0.018 A 
HETATM    2  C   UNK N   1       4.257   1.189  -0.211  0.00  0.00     0.017 A 
HETATM    3  C   UNK N   1       5.414  -0.927   0.182  0.00  0.00     0.089 A 
HETATM    4  C   UNK N   1       1.006  -0.343  -0.241  0.00  0.00     0.097 A 
HETATM    5  C   UNK N   1       1.750   0.831  -0.348  0.00  0.00    -0.026 A 
HETATM    6  C   UNK N   1       3.069   0.467  -0.181  0.00  0.00     0.016 A 
HETATM    7  C   UNK N   1       3.073  -0.882   0.021  0.00  0.00     0.115 A 
HETATM    8  N   UNK N   1       4.218  -1.589   0.202  0.00  0.00    -0.352 N 
ATOM      9  HN  UNK N   1       4.187  -2.597   0.350  1.00  0.00     0.166 HD
HETATM   10  N   UNK N   1       1.834  -1.393  -0.006  0.00  0.00    -0.351 N 
HETATM   11  H   UNK N   1       1.577  -2.336   0.119  0.00  0.00     0.166 HD
ENDROOT
BRANCH   5  12
HETATM   12  C   UNK N   1       1.202   2.201  -0.658  0.00  0.00     0.076 C 
BRANCH  12  13
HETATM   13  C   UNK N   1       0.102   2.673   0.305  0.00  0.00     0.177 C 
BRANCH  13  14
HETATM   14  C   UNK N   1      -0.401   4.032  -0.116  0.00  0.00     0.163 C 
HETATM   15  O   UNK N   1      -1.578   4.200  -0.402  0.00  0.00    -0.648 OA
BRANCH  14  16
HETATM   16  O   UNK N   1       0.446   5.077  -0.166  0.00  0.00    -0.775 OA
HETATM   17  H   UNK N   1       1.371   4.931  -0.200  0.00  0.00     0.167 HD
ENDBRANCH  14  16
ENDBRANCH  13  14
BRANCH  13  18
HETATM   18  N   UNK N   1      -1.001   1.721   0.310  0.00  0.00    -0.417 N 
HETATM   19  H   UNK N   1      -1.964   2.057   0.313  0.00  0.00     0.150 HD
HETATM   20  H   UNK N   1      -0.810   0.719   0.310  0.00  0.00     0.150 HD
ENDBRANCH  13  18
ENDBRANCH  12  13
ENDBRANCH   5  12
TORSDOF 5
