REMARK  11 active torsions:
REMARK  status: ('A' for Active; 'I' for Inactive)
REMARK    1  A    between atoms: C_2  and  C_3 
REMARK    2  A    between atoms: C_3  and  C_5 
REMARK    3  A    between atoms: C_6  and  O_7 
REMARK    4  A    between atoms: C_9  and  O_10 
REMARK    5  A    between atoms: C_14  and  C_18 
REMARK    6  A    between atoms: C_18  and  O_19 
REMARK    7  A    between atoms: C_18  and  C_21 
REMARK    8  A    between atoms: C_21  and  C_23 
REMARK    9  A    between atoms: C_23  and  O_24 
REMARK   10  A    between atoms: C_23  and  C_25 
REMARK   11  A    between atoms: C_25  and  O_27 
ROOT
HETATM    1  C   UNK N   1      -4.646  -2.968  -0.126  0.00  0.00    -0.020 A 
HETATM    2  C   UNK N   1      -3.238  -2.816  -0.270  0.00  0.00     0.086 A 
HETATM    3  C   UNK N   1      -2.627  -1.558  -0.014  0.00  0.00     0.042 A 
HETATM    4  C   UNK N   1      -1.219  -1.377  -0.052  0.00  0.00     0.093 A 
HETATM    5  C   UNK N   1      -0.654  -0.132   0.310  0.00  0.00     0.050 A 
HETATM    6  C   UNK N   1      -1.498   0.948   0.649  0.00  0.00    -0.040 A 
HETATM    7  C   UNK N   1      -0.951   2.300   1.042  0.00  0.00     0.047 C 
HETATM    8  C   UNK N   1       0.556   2.501   0.802  0.00  0.00     0.033 C 
HETATM    9  C   UNK N   1       1.336   1.242   1.166  0.00  0.00     0.092 C 
HETATM   10  C   UNK N   1       0.815   0.064   0.404  0.00  0.00     0.163 C 
HETATM   11  O   UNK N   1       1.601  -0.752  -0.052  0.00  0.00    -0.292 OA
HETATM   12  C   UNK N   1      -2.879   0.774   0.654  0.00  0.00     0.020 A 
HETATM   13  C   UNK N   1      -3.445  -0.460   0.346  0.00  0.00    -0.020 A 
HETATM   14  C   UNK N   1      -4.823  -0.609   0.443  0.00  0.00     0.013 A 
HETATM   15  C   UNK N   1      -5.412  -1.850   0.228  0.00  0.00     0.011 A 
ENDROOT
BRANCH   8  16
HETATM   16  C   UNK N   1       0.875   2.972  -0.633  0.00  0.00     0.197 C 
BRANCH  16  17
HETATM   17  O   UNK N   1       0.112   4.076  -1.092  0.00  0.00    -0.383 OA
HETATM   18  C   UNK N   1       0.116   5.106  -0.136  0.00  0.00     0.202 C 
ENDBRANCH  16  17
BRANCH  16  19
HETATM   19  C   UNK N   1       2.359   3.112  -0.893  0.00  0.00     0.186 C 
HETATM   20  O   UNK N   1       2.887   2.333  -1.672  0.00  0.00    -0.292 OA
BRANCH  19  21
HETATM   21  C   UNK N   1       3.201   4.124  -0.144  0.00  0.00     0.218 C 
BRANCH  21  22
HETATM   22  O   UNK N   1       2.886   5.410  -0.586  0.00  0.00    -0.385 OA
HETATM   23  H   UNK N   1       3.550   6.047  -0.894  0.00  0.00     0.210 HD
ENDBRANCH  21  22
BRANCH  21  24
HETATM   24  C   UNK N   1       4.708   3.887  -0.290  0.00  0.00     0.150 C 
HETATM   25  C   UNK N   1       5.491   4.949   0.461  0.00  0.00     0.042 C 
BRANCH  24  26
HETATM   26  O   UNK N   1       5.045   2.635   0.228  0.00  0.00    -0.393 OA
HETATM   27  H   UNK N   1       4.410   1.997   0.588  0.00  0.00     0.210 HD
ENDBRANCH  24  26
ENDBRANCH  21  24
ENDBRANCH  19  21
ENDBRANCH  16  19
ENDBRANCH   8  16
BRANCH   4  28
HETATM   28  O   UNK N   1      -0.409  -2.405  -0.376  0.00  0.00    -0.359 OA
HETATM   29  H   UNK N   1      -0.746  -3.250  -0.601  0.00  0.00     0.217 HD
ENDBRANCH   4  28
BRANCH   2  30
HETATM   30  O   UNK N   1      -2.474  -3.875  -0.597  0.00  0.00    -0.359 OA
HETATM   31  H   UNK N   1      -2.846  -4.705  -0.824  0.00  0.00     0.217 HD
ENDBRANCH   2  30
BRANCH   1  32
HETATM   32  C   UNK N   1      -5.377  -4.305  -0.252  0.00  0.00     0.017 C 
HETATM   33  C   UNK N   1      -4.567  -5.508  -0.705  0.00  0.00     0.015 C 
BRANCH  32  34
HETATM   34  C   UNK N   1      -6.670  -4.236  -1.047  0.00  0.00     0.004 C 
HETATM   35  C   UNK N   1      -7.821  -3.931  -0.104  0.00  0.00     0.006 C 
ENDBRANCH  32  34
ENDBRANCH   1  32
TORSDOF 11
