REMARK  4 active torsions:
REMARK  status: ('A' for Active; 'I' for Inactive)
REMARK    1  A    between atoms: C_2  and  C_3 
REMARK    2  A    between atoms: C_3  and  N_5 
REMARK    3  A    between atoms: C_3  and  C_6 
REMARK    4  A    between atoms: C_6  and  O_7 
ROOT
HETATM    1  C   UNK N   1       1.001   0.747   0.285  0.00  0.00     0.106 C 
HETATM    2  C   UNK N   1       0.094   1.375   1.333  0.00  0.00     0.050 C 
ENDROOT
BRANCH   1   3
HETATM    3  C   UNK N   1       1.257   1.725  -0.863  0.00  0.00     0.037 C 
HETATM    4  C   UNK N   1       1.863   3.043  -0.402  0.00  0.00     0.008 C 
ENDBRANCH   1   3
BRANCH   1   5
HETATM    5  N   UNK N   1       2.267   0.386   0.913  0.00  0.00    -0.414 N 
HETATM    6  H   UNK N   1       2.491  -0.506   1.353  0.00  0.00     0.151 HD
HETATM    7  H   UNK N   1       2.999   1.096   0.913  0.00  0.00     0.151 HD
ENDBRANCH   1   5
BRANCH   1   8
HETATM    8  C   UNK N   1       0.335  -0.485  -0.269  0.00  0.00     0.168 C 
HETATM    9  O   UNK N   1      -0.767  -0.394  -0.803  0.00  0.00    -0.648 OA
BRANCH   8  10
HETATM   10  O   UNK N   1       0.931  -1.688  -0.193  0.00  0.00    -0.775 OA
HETATM   11  H   UNK N   1       0.414  -2.467  -0.140  0.00  0.00     0.167 HD
ENDBRANCH   8  10
ENDBRANCH   1   8
TORSDOF 4
