REMARK  10 active torsions:
REMARK  status: ('A' for Active; 'I' for Inactive)
REMARK    1  A    between atoms: C_6  and  C_4 
REMARK    2  A    between atoms: O_21  and  C_4 
REMARK    3  A    between atoms: O_14  and  C_7 
REMARK    4  A    between atoms: C_8  and  N_13 
REMARK    5  A    between atoms: P_24  and  O_16 
REMARK    6  A    between atoms: P_24  and  O_17 
REMARK    7  A    between atoms: P_25  and  O_19 
REMARK    8  A    between atoms: P_25  and  O_21 
REMARK    9  A    between atoms: P_24  and  O_23 
REMARK   10  A    between atoms: P_25  and  O_23 
ROOT
HETATM    1  C   UNK N   1       4.566   0.283  -0.108  0.00  0.00     0.094 C 
HETATM    2  C   UNK N   1       3.663   1.427   0.237  0.00  0.00     0.205 C 
HETATM    3  C   UNK N   1       2.341   0.688   0.308  0.00  0.00     0.182 C 
HETATM    4  C   UNK N   1       4.005  -0.770   0.842  0.00  0.00     0.235 C 
HETATM    5  F   UNK N   1       4.005   1.912   1.491  0.00  0.00    -0.246 F 
HETATM    6  O   UNK N   1       2.600  -0.579   0.886  0.00  0.00    -0.356 OA
ENDROOT
BRANCH   3   7
HETATM    7  C   UNK N   1       1.779   0.546  -1.119  0.00  0.00     0.215 C 
BRANCH   7   8
HETATM    8  O   UNK N   1       0.810  -0.463  -1.296  0.00  0.00    -0.294 OA
BRANCH   8   9
HETATM    9  P   UNK N   1      -0.626  -0.119  -0.352  0.00  0.00     0.401 P 
HETATM   10  O   UNK N   1      -0.743  -1.617  -0.750  0.00  0.00    -0.631 OA
BRANCH   9  11
HETATM   11  O   UNK N   1      -0.791   0.866  -1.777  0.00  0.00    -0.307 OA
HETATM   12  H   UNK N   1      -0.362   1.221  -2.571  0.00  0.00     0.222 HD
ENDBRANCH   9  11
BRANCH   9  13
HETATM   13  O   UNK N   1      -2.233  -0.254  -1.015  0.00  0.00    -0.195 OA
BRANCH  13  14
HETATM   14  P   UNK N   1      -3.326  -0.593   0.309  0.00  0.00     0.399 P 
HETATM   15  O   UNK N   1      -3.766  -2.073   0.151  0.00  0.00    -0.631 OA
BRANCH  14  16
HETATM   16  O   UNK N   1      -2.608  -0.451   1.886  0.00  0.00    -0.307 OA
HETATM   17  H   UNK N   1      -2.339  -0.759   2.766  0.00  0.00     0.222 HD
ENDBRANCH  14  16
BRANCH  14  18
HETATM   18  O   UNK N   1      -4.770   0.362   0.197  0.00  0.00    -0.307 OA
HETATM   19  H   UNK N   1      -4.711   1.328   0.135  0.00  0.00     0.222 HD
ENDBRANCH  14  18
ENDBRANCH  13  14
ENDBRANCH   9  13
ENDBRANCH   8   9
ENDBRANCH   7   8
ENDBRANCH   3   7
BRANCH   4  20
HETATM   20  N   UNK N   1       4.400  -2.145   0.462  0.00  0.00    -0.282 N 
HETATM   21  C   UNK N   1       5.732  -2.392   0.289  0.00  0.00     0.102 A 
HETATM   22  C   UNK N   1       6.193  -3.666  -0.030  0.00  0.00     0.073 A 
HETATM   23  C   UNK N   1       5.275  -4.699  -0.154  0.00  0.00     0.144 A 
HETATM   24  N   UNK N   1       3.954  -4.455   0.030  0.00  0.00    -0.289 N 
HETATM   25  C   UNK N   1       3.501  -3.198   0.335  0.00  0.00     0.330 A 
ATOM     26  HN  UNK N   1       3.286  -5.220  -0.060  1.00  0.00     0.172 HD
HETATM   27  O   UNK N   1       2.307  -3.033   0.518  0.00  0.00    -0.246 OA
BRANCH  23  28
HETATM   28  O   UNK N   1       5.694  -5.940  -0.449  0.00  0.00    -0.346 OA
HETATM   29  H   UNK N   1       5.090  -6.626  -0.654  0.00  0.00     0.219 HD
ENDBRANCH  23  28
ENDBRANCH   4  20
TORSDOF 10
