REMARK  21 active torsions:
REMARK  status: ('A' for Active; 'I' for Inactive)
REMARK    1  A    between atoms: C_10  and  C_4 
REMARK    2  A    between atoms: O_31  and  C_4 
REMARK    3  A    between atoms: C_11  and  C_5 
REMARK    4  A    between atoms: O_32  and  C_5 
REMARK    5  A    between atoms: C_12  and  C_6 
REMARK    6  A    between atoms: O_33  and  C_6 
REMARK    7  A    between atoms: O_34  and  C_7 
REMARK    8  A    between atoms: O_35  and  C_8 
REMARK    9  A    between atoms: O_36  and  C_9 
REMARK   10  A    between atoms: C_13  and  N_25 
REMARK   11  A    between atoms: C_14  and  N_27 
REMARK   12  A    between atoms: C_15  and  N_29 
REMARK   13  A    between atoms: C_16  and  O_37 
REMARK   14  A    between atoms: C_17  and  O_38 
REMARK   15  A    between atoms: C_18  and  O_39 
REMARK   16  A    between atoms: C_19  and  O_40 
REMARK   17  A    between atoms: C_20  and  O_45 
REMARK   18  A    between atoms: C_21  and  O_46 
REMARK   19  A    between atoms: C_22  and  O_41 
REMARK   20  A    between atoms: C_23  and  O_46 
REMARK   21  A    between atoms: C_24  and  O_45 
ROOT
HETATM    1  C   UNK N   1       0.501  -3.754   0.689  0.00  0.00     0.180 C 
HETATM    2  C   UNK N   1       0.286  -6.603   0.266  0.00  0.00     0.169 C 
HETATM    3  C   UNK N   1      -1.049  -5.802   0.436  0.00  0.00     0.177 C 
HETATM    4  C   UNK N   1      -0.920  -4.248   0.267  0.00  0.00     0.186 C 
HETATM    5  C   UNK N   1       1.361  -5.720  -0.394  0.00  0.00     0.286 C 
HETATM    6  O   UNK N   1       1.560  -4.657   0.513  0.00  0.00    -0.349 OA
ENDROOT
BRANCH   4   7
HETATM    7  O   UNK N   1      -2.009  -3.630   0.982  0.00  0.00    -0.348 OA
BRANCH   7   8
HETATM    8  C   UNK N   1      -2.162  -2.203   0.957  0.00  0.00     0.286 C 
HETATM    9  C   UNK N   1      -2.790  -1.723  -0.372  0.00  0.00     0.169 C 
HETATM   10  C   UNK N   1      -2.921  -0.185  -0.373  0.00  0.00     0.177 C 
HETATM   11  C   UNK N   1      -1.526   0.396  -0.164  0.00  0.00     0.180 C 
HETATM   12  C   UNK N   1      -0.938  -0.121   1.174  0.00  0.00     0.179 C 
HETATM   13  O   UNK N   1      -0.957  -1.539   1.306  0.00  0.00    -0.349 OA
BRANCH   9  14
HETATM   14  N   UNK N   1      -4.043  -2.398  -0.692  0.00  0.00    -0.363 N 
HETATM   15  C   UNK N   1      -5.118  -2.436   0.030  0.00  0.00     0.107 C 
HETATM   16  C   UNK N   1      -6.306  -3.171  -0.482  0.00  0.00     0.097 C 
ATOM     17  HN  UNK N   1      -4.076  -2.896  -1.581  1.00  0.00     0.162 HD
BRANCH  15  18
HETATM   18  O   UNK N   1      -5.186  -1.841   1.235  0.00  0.00    -0.350 OA
HETATM   19  H   UNK N   1      -4.851  -1.593   2.074  0.00  0.00     0.219 HD
ENDBRANCH  15  18
ENDBRANCH   9  14
BRANCH  10  20
HETATM   20  O   UNK N   1      -3.765   0.267   0.647  0.00  0.00    -0.391 OA
HETATM   21  H   UNK N   1      -3.785   0.930   1.355  0.00  0.00     0.210 HD
ENDBRANCH  10  20
BRANCH  11  22
HETATM   22  O   UNK N   1      -0.704   0.042  -1.240  0.00  0.00    -0.390 OA
HETATM   23  H   UNK N   1      -0.631  -0.573  -1.986  0.00  0.00     0.210 HD
ENDBRANCH  11  22
BRANCH  12  24
HETATM   24  C   UNK N   1       0.532   0.310   1.294  0.00  0.00     0.198 C 
BRANCH  24  25
HETATM   25  O   UNK N   1       0.701   1.679   1.081  0.00  0.00    -0.398 OA
HETATM   26  H   UNK N   1       1.583   2.053   0.933  0.00  0.00     0.209 HD
ENDBRANCH  24  25
ENDBRANCH  12  24
ENDBRANCH   7   8
ENDBRANCH   4   7
BRANCH   1  27
HETATM   27  C   UNK N   1       0.947  -2.468  -0.019  0.00  0.00     0.198 C 
BRANCH  27  28
HETATM   28  O   UNK N   1       0.634  -2.476  -1.380  0.00  0.00    -0.398 OA
HETATM   29  H   UNK N   1       0.520  -2.290  -2.325  0.00  0.00     0.209 HD
ENDBRANCH  27  28
ENDBRANCH   1  27
BRANCH   3  30
HETATM   30  O   UNK N   1      -1.607  -6.131   1.675  0.00  0.00    -0.391 OA
HETATM   31  H   UNK N   1      -1.999  -5.909   2.535  0.00  0.00     0.210 HD
ENDBRANCH   3  30
BRANCH   2  32
HETATM   32  N   UNK N   1       0.036  -7.850  -0.441  0.00  0.00    -0.363 N 
HETATM   33  C   UNK N   1       0.797  -8.890  -0.350  0.00  0.00     0.107 C 
HETATM   34  C   UNK N   1       0.452 -10.122  -1.111  0.00  0.00     0.097 C 
ATOM     35  HN  UNK N   1      -0.786  -7.906  -1.042  1.00  0.00     0.162 HD
BRANCH  33  36
HETATM   36  O   UNK N   1       1.888  -8.889   0.444  0.00  0.00    -0.350 OA
HETATM   37  H   UNK N   1       2.267  -9.545   0.995  0.00  0.00     0.219 HD
ENDBRANCH  33  36
ENDBRANCH   2  32
BRANCH   5  38
HETATM   38  O   UNK N   1       2.606  -6.421  -0.620  0.00  0.00    -0.348 OA
BRANCH  38  39
HETATM   39  C   UNK N   1       3.784  -5.645  -0.314  0.00  0.00     0.186 C 
HETATM   40  C   UNK N   1       4.167  -4.534  -1.336  0.00  0.00     0.179 C 
HETATM   41  O   UNK N   1       5.101  -3.624  -0.745  0.00  0.00    -0.349 OA
HETATM   42  C   UNK N   1       6.057  -4.217   0.134  0.00  0.00     0.282 C 
HETATM   43  C   UNK N   1       6.349  -5.686  -0.270  0.00  0.00     0.169 C 
HETATM   44  C   UNK N   1       5.042  -6.536  -0.120  0.00  0.00     0.177 C 
BRANCH  40  45
HETATM   45  C   UNK N   1       3.004  -3.713  -1.827  0.00  0.00     0.198 C 
BRANCH  45  46
HETATM   46  O   UNK N   1       3.434  -2.716  -2.704  0.00  0.00    -0.398 OA
HETATM   47  H   UNK N   1       4.184  -2.628  -3.314  0.00  0.00     0.209 HD
ENDBRANCH  45  46
ENDBRANCH  40  45
BRANCH  42  48
HETATM   48  O   UNK N   1       7.211  -3.439   0.085  0.00  0.00    -0.369 OA
HETATM   49  H   UNK N   1       8.083  -3.863   0.051  0.00  0.00     0.212 HD
ENDBRANCH  42  48
BRANCH  43  50
HETATM   50  N   UNK N   1       7.460  -6.279   0.457  0.00  0.00    -0.363 N 
HETATM   51  C   UNK N   1       8.698  -5.979   0.233  0.00  0.00     0.107 C 
HETATM   52  C   UNK N   1       9.768  -6.623   1.041  0.00  0.00     0.097 C 
ATOM     53  HN  UNK N   1       7.252  -6.966   1.182  1.00  0.00     0.162 HD
BRANCH  51  54
HETATM   54  O   UNK N   1       9.044  -5.112  -0.742  0.00  0.00    -0.350 OA
HETATM   55  H   UNK N   1       9.686  -5.019  -1.418  0.00  0.00     0.219 HD
ENDBRANCH  51  54
ENDBRANCH  43  50
BRANCH  44  56
HETATM   56  O   UNK N   1       4.970  -7.144   1.138  0.00  0.00    -0.391 OA
HETATM   57  H   UNK N   1       4.580  -7.312   2.010  0.00  0.00     0.210 HD
ENDBRANCH  44  56
ENDBRANCH  38  39
ENDBRANCH   5  38
TORSDOF 21
