REMARK  15 active torsions:
REMARK  status: ('A' for Active; 'I' for Inactive)
REMARK    1  A    between atoms: C_8  and  C_4 
REMARK    2  A    between atoms: C_16  and  C_4 
REMARK    3  A    between atoms: C_26  and  C_8 
REMARK    4  A    between atoms: N_40  and  C_16 
REMARK    5  A    between atoms: C_23  and  C_18 
REMARK    6  A    between atoms: C_24  and  C_18 
REMARK    7  A    between atoms: C_22  and  C_19 
REMARK    8  A    between atoms: C_27  and  C_19 
REMARK    9  A    between atoms: N_43  and  C_21 
REMARK   10  A    between atoms: C_21  and  O_51 
REMARK   11  A    between atoms: O_52  and  C_25 
REMARK   12  A    between atoms: C_28  and  N_43 
REMARK   13  A    between atoms: O_53  and  C_30 
REMARK   14  A    between atoms: C_32  and  O_55 
REMARK   15  A    between atoms: C_33  and  O_56 
REMARK       I    between atoms: N_37  and  C_36 
REMARK       I    between atoms: N_39  and  C_36 
REMARK       I    between atoms: N_40  and  C_36 
ROOT
HETATM    1  C   UNK N   1       6.809  -3.866  -2.025  0.00  0.00     0.022 C 
HETATM    2  C   UNK N   1       7.121  -3.928  -0.531  0.00  0.00     0.035 C 
HETATM    3  C   UNK N   1      -0.970  -0.195  -0.084  0.00  0.00     0.003 C 
HETATM    4  C   UNK N   1      -0.059  -1.144  -0.329  0.00  0.00     0.053 C 
HETATM    5  C   UNK N   1       5.360  -3.429  -2.164  0.00  0.00     0.127 C 
HETATM    6  C   UNK N   1       1.544  -2.861   1.067  0.00  0.00     0.156 C 
HETATM    7  C   UNK N   1      -0.422   1.187   0.187  0.00  0.00     0.110 C 
HETATM    8  C   UNK N   1       6.560   0.285   0.321  0.00  0.00     0.163 C 
HETATM    9  C   UNK N   1       2.512   2.224  -1.566  0.00  0.00     0.163 C 
HETATM   10  C   UNK N   1       2.962  -3.366   0.821  0.00  0.00     0.193 C 
HETATM   11  C   UNK N   1       5.877  -3.458   0.202  0.00  0.00     0.161 C 
HETATM   12  C   UNK N   1      -0.330  -2.592  -0.379  0.00  0.00     0.135 C 
HETATM   13  C   UNK N   1       5.442   1.030  -0.384  0.00  0.00     0.238 C 
HETATM   14  C   UNK N   1       1.216   2.586  -0.899  0.00  0.00     0.135 C 
HETATM   15  C   UNK N   1       6.134  -2.081   0.775  0.00  0.00     0.135 C 
HETATM   16  C   UNK N   1       4.044   0.632  -0.097  0.00  0.00     0.290 C 
HETATM   17  C   UNK N   1       3.528  -3.145  -0.567  0.00  0.00     0.244 C 
HETATM   18  N   UNK N   1       0.484  -3.397   0.222  0.00  0.00    -0.369 N 
ATOM     19  HN  UNK N   1       0.384  -4.406   0.105  1.00  0.00     0.161 HD
HETATM   20  N   UNK N   1       0.325   1.654  -0.961  0.00  0.00    -0.365 N 
ATOM     21  HN  UNK N   1       0.138   1.223  -1.867  1.00  0.00     0.162 HD
HETATM   22  N   UNK N   1       6.411  -1.113  -0.039  0.00  0.00    -0.361 N 
ATOM     23  HN  UNK N   1       6.536  -1.355  -1.022  1.00  0.00     0.162 HD
HETATM   24  N   UNK N   1       2.945   1.130  -0.709  0.00  0.00    -0.342 N 
HETATM   25  N   UNK N   1       4.857  -3.348  -0.828  0.00  0.00    -0.338 N 
HETATM   26  O   UNK N   1       5.696   1.870  -1.233  0.00  0.00    -0.285 OA
HETATM   27  O   UNK N   1       3.862  -0.244   0.732  0.00  0.00    -0.264 OA
HETATM   28  O   UNK N   1       2.767  -2.867  -1.493  0.00  0.00    -0.271 OA
HETATM   29  H   UNK N   1       2.173   0.554  -0.506  0.00  0.00     0.163 HD
ENDROOT
BRANCH   8  30
HETATM   30  C   UNK N   1       7.900   0.803  -0.178  0.00  0.00     0.035 C 
BRANCH  30  31
HETATM   31  C   UNK N   1       9.108   0.016   0.299  0.00  0.00     0.023 C 
BRANCH  31  32
HETATM   32  C   UNK N   1      10.189   0.081  -0.779  0.00  0.00     0.138 C 
BRANCH  32  33
HETATM   33  N   UNK N   1      10.373   1.441  -1.237  0.00  0.00    -0.227 N 
HETATM   34  C   UNK N   1      10.969   2.439  -0.424  0.00  0.00     0.665 C 
HETATM   35  N   UNK N   1      11.567   2.122   0.665  0.00  0.00    -0.235 N 
HETATM   36  N   UNK N   1      10.852   3.797  -0.789  0.00  0.00    -0.235 N 
HETATM   37  H   UNK N   1      11.586   1.603   1.502  0.00  0.00     0.174 HD
ATOM     38  HN  UNK N   1      12.431   2.664   0.665  1.00  0.00     0.174 HD
HETATM   39  H   UNK N   1      11.632   4.341  -1.044  0.00  0.00     0.174 HD
HETATM   40  H   UNK N   1       9.961   4.214  -0.789  0.00  0.00     0.174 HD
HETATM   41  H   UNK N   1      10.075   1.682  -2.143  0.00  0.00     0.177 HD
ENDBRANCH  32  33
ENDBRANCH  31  32
ENDBRANCH  30  31
ENDBRANCH   8  30
BRANCH  15  42
HETATM   42  O   UNK N   1       6.004  -1.863   2.102  0.00  0.00    -0.348 OA
HETATM   43  H   UNK N   1       6.090  -1.710   3.023  0.00  0.00     0.219 HD
ENDBRANCH  15  42
BRANCH   9  44
HETATM   44  C   UNK N   1       3.520   3.363  -1.794  0.00  0.00     0.072 C 
BRANCH  44  45
HETATM   45  C   UNK N   1       3.879   4.264  -0.650  0.00  0.00    -0.056 A 
HETATM   46  C   UNK N   1       3.896   5.646  -0.863  0.00  0.00     0.007 A 
HETATM   47  C   UNK N   1       4.303   6.510   0.158  0.00  0.00     0.001 A 
HETATM   48  C   UNK N   1       4.697   5.993   1.395  0.00  0.00     0.000 A 
HETATM   49  C   UNK N   1       4.683   4.613   1.613  0.00  0.00     0.001 A 
HETATM   50  C   UNK N   1       4.282   3.751   0.590  0.00  0.00     0.007 A 
ENDBRANCH  44  45
ENDBRANCH   9  44
BRANCH  14  51
HETATM   51  O   UNK N   1       1.256   3.401   0.177  0.00  0.00    -0.348 OA
HETATM   52  H   UNK N   1       1.760   3.659   0.924  0.00  0.00     0.219 HD
ENDBRANCH  14  51
BRANCH  10  53
HETATM   53  N   UNK N   1       3.042  -4.773   1.154  0.00  0.00    -0.366 N 
ATOM     54  HN  UNK N   1       3.600  -5.069   1.954  1.00  0.00     0.161 HD
BRANCH  53  55
HETATM   55  C   UNK N   1       2.419  -5.656   0.455  0.00  0.00     0.219 C 
BRANCH  55  56
HETATM   56  O   UNK N   1       2.507  -6.958   0.775  0.00  0.00    -0.357 OA
HETATM   57  H   UNK N   1       1.751  -7.465   0.998  0.00  0.00     0.218 HD
ENDBRANCH  55  56
ENDBRANCH  53  55
ENDBRANCH  10  53
BRANCH   7  58
HETATM   58  C   UNK N   1      -1.270   2.177   0.970  0.00  0.00     0.067 C 
BRANCH  58  59
HETATM   59  C   UNK N   1      -2.582   2.621   0.463  0.00  0.00    -0.056 A 
HETATM   60  C   UNK N   1      -2.874   3.983   0.516  0.00  0.00     0.010 A 
HETATM   61  C   UNK N   1      -4.160   4.433   0.221  0.00  0.00     0.037 A 
HETATM   62  C   UNK N   1      -5.158   3.515  -0.116  0.00  0.00     0.065 A 
HETATM   63  C   UNK N   1      -4.867   2.148  -0.168  0.00  0.00     0.037 A 
HETATM   64  C   UNK N   1      -3.581   1.699   0.138  0.00  0.00     0.010 A 
BRANCH  62  65
HETATM   65  O   UNK N   1      -6.399   3.946  -0.382  0.00  0.00    -0.361 OA
HETATM   66  H   UNK N   1      -6.572   4.848  -0.568  0.00  0.00     0.217 HD
ENDBRANCH  62  65
ENDBRANCH  58  59
ENDBRANCH   7  58
BRANCH  12  67
HETATM   67  O   UNK N   1      -1.443  -3.071  -0.969  0.00  0.00    -0.346 OA
HETATM   68  H   UNK N   1      -2.118  -2.568  -1.378  0.00  0.00     0.219 HD
ENDBRANCH  12  67
TORSDOF 15
