REMARK  11 active torsions:
REMARK  status: ('A' for Active; 'I' for Inactive)
REMARK    1  A    between atoms: O_1  and  C_2 
REMARK    2  A    between atoms: C_2  and  C_3 
REMARK    3  A    between atoms: C_3  and  C_5 
REMARK    4  A    between atoms: C_5  and  O_6 
REMARK    5  A    between atoms: C_5  and  C_7 
REMARK    6  A    between atoms: C_7  and  O_8 
REMARK    7  A    between atoms: C_7  and  C_9 
REMARK    8  A    between atoms: C_9  and  O_10 
REMARK    9  A    between atoms: O_10  and  P_11 
REMARK   10  A    between atoms: P_11  and  O_12 
REMARK   11  A    between atoms: P_11  and  O_13 
ROOT
HETATM    1  C   UNK N   1       5.842  -2.985   0.990  0.00  0.00     0.178 C 
ENDROOT
BRANCH   1   2
HETATM    2  C   UNK N   1       4.483  -2.277   0.957  0.00  0.00     0.220 C 
BRANCH   2   3
HETATM    3  C   UNK N   1       3.461  -2.830  -0.003  0.00  0.00     0.181 C 
HETATM    4  O   UNK N   1       3.742  -3.735  -0.773  0.00  0.00    -0.293 OA
BRANCH   3   5
HETATM    5  C   UNK N   1       2.071  -2.281   0.021  0.00  0.00     0.245 C 
BRANCH   5   6
HETATM    6  O   UNK N   1       1.758  -1.711  -1.212  0.00  0.00    -0.393 OA
HETATM    7  H   UNK N   1       1.993  -1.325  -2.071  0.00  0.00     0.209 HD
ENDBRANCH   5   6
ENDBRANCH   3   5
ENDBRANCH   2   3
BRANCH   2   8
HETATM    8  O   UNK N   1       4.665  -0.912   0.726  0.00  0.00    -0.385 OA
HETATM    9  H   UNK N   1       5.550  -0.548   0.566  0.00  0.00     0.210 HD
ENDBRANCH   2   8
ENDBRANCH   1   2
BRANCH   1  10
HETATM   10  O   UNK N   1       5.698  -4.342   1.286  0.00  0.00    -0.390 OA
HETATM   11  H   UNK N   1       4.831  -4.726   1.492  0.00  0.00     0.210 HD
ENDBRANCH   1  10
BRANCH   1  12
HETATM   12  C   UNK N   1       6.670  -2.803  -0.272  0.00  0.00     0.215 C 
BRANCH  12  13
HETATM   13  O   UNK N   1       8.026  -2.826   0.079  0.00  0.00    -0.294 OA
BRANCH  13  14
HETATM   14  P   UNK N   1       8.818  -1.720  -1.009  0.00  0.00     0.390 P 
HETATM   15  O   UNK N   1       8.494  -0.744   0.157  0.00  0.00    -0.632 OA
BRANCH  14  16
HETATM   16  O   UNK N   1      10.379  -1.042  -0.664  0.00  0.00    -0.307 OA
HETATM   17  H   UNK N   1      11.143  -1.608  -0.472  0.00  0.00     0.222 HD
ENDBRANCH  14  16
BRANCH  14  18
HETATM   18  O   UNK N   1       9.928  -2.914  -0.410  0.00  0.00    -0.307 OA
HETATM   19  H   UNK N   1       9.660  -3.784  -0.076  0.00  0.00     0.222 HD
ENDBRANCH  14  18
ENDBRANCH  13  14
ENDBRANCH  12  13
ENDBRANCH   1  12
TORSDOF 11
