REMARK  1 active torsions:
REMARK  status: ('A' for Active; 'I' for Inactive)
REMARK    1  A    between atoms: O_14  and  C_4 
ROOT
HETATM    1  C   UNK N   1      -1.706  -0.809   0.000  0.00  0.00     0.182 A 
HETATM    2  C   UNK N   1       0.292  -0.074  -0.000  0.00  0.00     0.129 A 
HETATM    3  C   UNK N   1       0.329  -1.418   0.000  0.00  0.00     0.139 A 
HETATM    4  C   UNK N   1       1.473   0.653  -0.000  0.00  0.00     0.173 A 
HETATM    5  C   UNK N   1       2.658  -1.415  -0.000  0.00  0.00     0.157 A 
HETATM    6 Br   UNK N   1       4.305  -2.359  -0.000  0.00  0.00    -0.010 Br
HETATM    7  N   UNK N   1      -0.978   0.343  -0.000  0.00  0.00    -0.346 N 
ATOM      8  HN  UNK N   1      -1.324   1.303  -0.000  1.00  0.00     0.167 HD
HETATM    9  N   UNK N   1      -0.913  -1.915   0.000  0.00  0.00    -0.337 N 
HETATM   10  N   UNK N   1       1.484  -2.116  -0.000  0.00  0.00    -0.320 N 
ATOM     11  HN  UNK N   1       1.481  -3.136   0.000  1.00  0.00     0.169 HD
HETATM   12  N   UNK N   1       2.650  -0.039  -0.000  0.00  0.00    -0.315 N 
ATOM     13  HN  UNK N   1       3.533   0.470  -0.000  1.00  0.00     0.170 HD
HETATM   14  H   UNK N   1      -1.190  -2.860   0.000  0.00  0.00     0.168 HD
ENDROOT
BRANCH   4  15
HETATM   15  O   UNK N   1       1.465   1.997   0.000  0.00  0.00    -0.344 OA
HETATM   16  H   UNK N   1       2.274   2.470   0.000  0.00  0.00     0.219 HD
ENDBRANCH   4  15
TORSDOF 1
