REMARK  3 active torsions:
REMARK  status: ('A' for Active; 'I' for Inactive)
REMARK    1  A    between atoms: C_2  and  S_4 
REMARK    2  A    between atoms: S_4  and  C_5 
REMARK    3  A    between atoms: C_5  and  N_6 
ROOT
HETATM    1  C   UNK N   1       1.065  -0.620  -0.000  0.00  0.00     0.131 C 
HETATM    2  N   UNK N   1      -0.212  -0.544   0.000  0.00  0.00    -0.380 N 
ATOM      3  HN  UNK N   1      -0.774  -1.396   0.000  1.00  0.00     0.158 HD
HETATM    4  H   UNK N   1      -0.653   0.336   0.000  0.00  0.00     0.158 HD
ENDROOT
BRANCH   1   5
HETATM    5  S   UNK N   1       2.115   0.853   0.000  0.00  0.00    -0.091 SA
BRANCH   5   6
HETATM    6  C   UNK N   1       0.949   2.274  -0.000  0.00  0.00     0.047 C 
HETATM    7  C   UNK N   1       1.572   3.653   0.000  0.00  0.00     0.021 C 
HETATM    8  C   UNK N   1      -0.566   2.188   0.000  0.00  0.00     0.021 C 
ENDBRANCH   5   6
ENDBRANCH   1   5
BRANCH   1   9
HETATM    9  N   UNK N   1       1.681  -1.889  -0.000  0.00  0.00    -0.380 N 
HETATM   10  H   UNK N   1       1.129  -2.704   0.000  0.00  0.00     0.158 HD
HETATM   11  H   UNK N   1       2.663  -1.959  -0.000  0.00  0.00     0.158 HD
ENDBRANCH   1   9
TORSDOF 3
