REMARK  11 active torsions:
REMARK  status: ('A' for Active; 'I' for Inactive)
REMARK    1  A    between atoms: C_21  and  C_7 
REMARK    2  A    between atoms: C_22  and  C_8 
REMARK    3  A    between atoms: C_11  and  C_9 
REMARK    4  A    between atoms: C_23  and  C_9 
REMARK    5  A    between atoms: C_12  and  C_10 
REMARK    6  A    between atoms: C_24  and  C_10 
REMARK    7  A    between atoms: C_33  and  C_11 
REMARK    8  A    between atoms: C_34  and  C_12 
REMARK    9  A    between atoms: O_44  and  C_33 
REMARK   10  A    between atoms: O_46  and  C_34 
REMARK   11  A    between atoms: Zn_47  and  Zn_47 
ROOT
HETATM    1 Zn   UNK N   1       6.586  -0.043  -0.000  0.00  0.00     0.000 Zn
ENDROOT
TORSDOF 11
