REMARK  5 active torsions:
REMARK  status: ('A' for Active; 'I' for Inactive)
REMARK    1  A    between atoms: C_2  and  N_1 
REMARK    2  A    between atoms: C_2  and  C_3 
REMARK    3  A    between atoms: C_2  and  C_15 
REMARK    4  A    between atoms: C_3  and  C_4 
REMARK    5  A    between atoms: C_15  and  O_16 
ROOT
HETATM    1  C   UNK N   1       3.715   0.501   0.359  0.00  0.00    -0.041 C 
HETATM    2  C   UNK N   1       4.930  -0.093   0.342  0.00  0.00    -0.018 C 
HETATM    3  C   UNK N   1       5.318  -1.530   0.075  0.00  0.00     0.028 C 
HETATM    4  C   UNK N   1       4.313  -2.392  -0.670  0.00  0.00     0.010 C 
HETATM    5  C   UNK N   1       3.139  -2.667   0.234  0.00  0.00     0.068 C 
HETATM    6  C   UNK N   1       2.161  -1.565   0.084  0.00  0.00     0.092 A 
HETATM    7  C   UNK N   1       2.418  -0.207   0.150  0.00  0.00     0.071 A 
HETATM    8  C   UNK N   1       1.171   0.363  -0.020  0.00  0.00     0.278 A 
HETATM    9  O   UNK N   1       0.914   1.553  -0.041  0.00  0.00    -0.265 OA
HETATM   10  N   UNK N   1       0.241  -0.609  -0.182  0.00  0.00    -0.225 N 
HETATM   11  O   UNK N   1       0.872  -1.747  -0.113  0.00  0.00    -0.238 OA
HETATM   12  H   UNK N   1      -0.725  -0.480  -0.325  0.00  0.00     0.198 HD
ENDROOT
BRANCH   1  13
HETATM   13  C   UNK N   1       3.660   1.966   0.687  0.00  0.00     0.074 C 
BRANCH  13  14
HETATM   14  C   UNK N   1       4.314   2.869  -0.349  0.00  0.00     0.177 C 
BRANCH  14  15
HETATM   15  N   UNK N   1       5.760   2.849  -0.179  0.00  0.00    -0.417 N 
HETATM   16  H   UNK N   1       6.255   1.965  -0.060  0.00  0.00     0.150 HD
HETATM   17  H   UNK N   1       6.282   3.725  -0.179  0.00  0.00     0.150 HD
ENDBRANCH  14  15
BRANCH  14  18
HETATM   18  C   UNK N   1       3.771   4.259  -0.172  0.00  0.00     0.163 C 
HETATM   19  O   UNK N   1       4.510   5.191   0.104  0.00  0.00    -0.648 OA
BRANCH  18  20
HETATM   20  O   UNK N   1       2.449   4.478  -0.312  0.00  0.00    -0.775 OA
HETATM   21  H   UNK N   1       2.121   5.351  -0.409  0.00  0.00     0.167 HD
ENDBRANCH  18  20
ENDBRANCH  14  18
ENDBRANCH  13  14
ENDBRANCH   1  13
TORSDOF 5
