REMARK  11 active torsions:
REMARK  status: ('A' for Active; 'I' for Inactive)
REMARK    1  A    between atoms: C_6  and  C_3 
REMARK    2  A    between atoms: N_12  and  C_3 
REMARK    3  A    between atoms: O_15  and  C_4 
REMARK    4  A    between atoms: C_5  and  O_16 
REMARK    5  A    between atoms: C_9  and  C_6 
REMARK    6  A    between atoms: C_6  and  O_17 
REMARK    7  A    between atoms: C_11  and  C_7 
REMARK    8  A    between atoms: C_8  and  N_13 
REMARK    9  A    between atoms: C_10  and  C_9 
REMARK   10  A    between atoms: C_9  and  O_18 
REMARK   11  A    between atoms: O_20  and  C_11 
ROOT
HETATM    1  C   UNK N   1       2.611   0.900  -0.157  0.00  0.00     0.050 C 
HETATM    2  C   UNK N   1       1.536   1.865  -0.550  0.00  0.00     0.169 C 
HETATM    3  C   UNK N   1       2.325  -0.405  -0.046  0.00  0.00     0.141 C 
HETATM    4  C   UNK N   1       0.222   1.424   0.096  0.00  0.00     0.148 C 
HETATM    5  C   UNK N   1      -0.091  -0.052  -0.314  0.00  0.00     0.186 C 
HETATM    6  O   UNK N   1       1.049  -0.852  -0.231  0.00  0.00    -0.335 OA
ENDROOT
BRANCH   5   7
HETATM    7  C   UNK N   1      -1.192  -0.649   0.605  0.00  0.00     0.180 C 
BRANCH   7   8
HETATM    8  C   UNK N   1      -1.548  -2.128   0.332  0.00  0.00     0.166 C 
BRANCH   8   9
HETATM    9  C   UNK N   1      -2.169  -2.327  -1.046  0.00  0.00     0.145 C 
BRANCH   9  10
HETATM   10  N   UNK N   1      -2.651  -3.693  -1.186  0.00  0.00    -0.428 N 
HETATM   11  H   UNK N   1      -3.649  -3.879  -1.283  0.00  0.00     0.150 HD
HETATM   12  H   UNK N   1      -1.988  -4.468  -1.186  0.00  0.00     0.150 HD
ENDBRANCH   9  10
ENDBRANCH   8   9
BRANCH   8  13
HETATM   13  O   UNK N   1      -0.423  -2.947   0.467  0.00  0.00    -0.391 OA
HETATM   14  H   UNK N   1      -0.525  -3.907   0.560  0.00  0.00     0.210 HD
ENDBRANCH   8  13
ENDBRANCH   7   8
BRANCH   7  15
HETATM   15  O   UNK N   1      -2.361   0.114   0.519  0.00  0.00    -0.390 OA
HETATM   16  H   UNK N   1      -2.307   1.080   0.460  0.00  0.00     0.210 HD
ENDBRANCH   7  15
ENDBRANCH   5   7
BRANCH   4  17
HETATM   17  N   UNK N   1      -0.842   2.318  -0.334  0.00  0.00    -0.365 N 
HETATM   18  C   UNK N   1      -1.450   3.151   0.442  0.00  0.00     0.107 C 
HETATM   19  C   UNK N   1      -2.525   4.017  -0.116  0.00  0.00     0.097 C 
ATOM     20  HN  UNK N   1      -1.127   2.284  -1.313  1.00  0.00     0.161 HD
BRANCH  18  21
HETATM   21  O   UNK N   1      -1.115   3.268   1.743  0.00  0.00    -0.350 OA
HETATM   22  H   UNK N   1      -0.928   3.108   2.647  0.00  0.00     0.219 HD
ENDBRANCH  18  21
ENDBRANCH   4  17
BRANCH   2  23
HETATM   23  O   UNK N   1       1.885   3.147  -0.119  0.00  0.00    -0.389 OA
HETATM   24  H   UNK N   1       2.777   3.383   0.180  0.00  0.00     0.210 HD
ENDBRANCH   2  23
BRANCH   3  25
HETATM   25  C   UNK N   1       3.390  -1.373   0.275  0.00  0.00     0.200 C 
HETATM   26  O   UNK N   1       3.132  -2.562   0.347  0.00  0.00    -0.645 OA
BRANCH  25  27
HETATM   27  O   UNK N   1       4.654  -0.952   0.490  0.00  0.00    -0.771 OA
HETATM   28  H   UNK N   1       5.346  -1.566   0.640  0.00  0.00     0.167 HD
ENDBRANCH  25  27
ENDBRANCH   3  25
TORSDOF 11
