REMARK WARNING: 32 MAX_TORS EXCEEDED!!!
REMARK  45 active torsions:
REMARK  status: ('A' for Active; 'I' for Inactive)
REMARK    1  A    between atoms: C_2  and  C_3 
REMARK    2  A    between atoms: C_3  and  C_4 
REMARK    3  A    between atoms: C_4  and  C_5 
REMARK    4  A    between atoms: C_5  and  C_6 
REMARK    5  A    between atoms: C_6  and  C_7 
REMARK    6  A    between atoms: C_7  and  C_8 
REMARK    7  A    between atoms: C_8  and  C_9 
REMARK    8  A    between atoms: C_9  and  C_10 
REMARK    9  A    between atoms: C_10  and  C_11 
REMARK   10  A    between atoms: C_11  and  C_12 
REMARK   11  A    between atoms: C_12  and  C_13 
REMARK   12  A    between atoms: C_13  and  C_14 
REMARK   13  A    between atoms: C_14  and  C_15 
REMARK   14  A    between atoms: C_15  and  C_16 
REMARK   15  A    between atoms: C_16  and  C_17 
REMARK   16  A    between atoms: C_17  and  C_18 
REMARK   17  A    between atoms: C_18  and  O_20 
REMARK   18  A    between atoms: O_20  and  C_21 
REMARK   19  A    between atoms: C_21  and  C_22 
REMARK   20  A    between atoms: C_22  and  C_23 
REMARK   21  A    between atoms: C_22  and  O_32 
REMARK   22  A    between atoms: C_23  and  O_24 
REMARK   23  A    between atoms: P_25  and  O_24 
REMARK   24  A    between atoms: P_25  and  O_26 
REMARK   25  A    between atoms: P_25  and  O_28 
REMARK   26  A    between atoms: O_28  and  C_29 
REMARK   27  A    between atoms: C_29  and  C_30 
REMARK   28  A    between atoms: C_30  and  N_31 
REMARK   29  A    between atoms: O_32  and  C_33 
REMARK   30  A    between atoms: C_33  and  C_35 
REMARK   31  A    between atoms: C_35  and  C_36 
REMARK   32  A    between atoms: C_36  and  C_37 
REMARK   33  A    between atoms: C_37  and  C_38 
REMARK   34  A    between atoms: C_38  and  C_39 
REMARK   35  A    between atoms: C_39  and  C_40 
REMARK   36  A    between atoms: C_40  and  C_41 
REMARK   37  A    between atoms: C_41  and  C_42 
REMARK   38  A    between atoms: C_42  and  C_43 
REMARK   39  A    between atoms: C_43  and  C_44 
REMARK   40  A    between atoms: C_44  and  C_45 
REMARK   41  A    between atoms: C_45  and  C_46 
REMARK   42  A    between atoms: C_46  and  C_47 
REMARK   43  A    between atoms: C_47  and  C_48 
REMARK   44  A    between atoms: C_48  and  C_49 
REMARK   45  A    between atoms: C_49  and  C_50 
ROOT
HETATM    1  C   UNK N   1      34.761  13.654   0.253  0.00  0.00     0.180 C 
ENDROOT
BRANCH   1   2
HETATM    2  C   UNK N   1      34.396  14.775  -0.719  0.00  0.00     0.213 C 
BRANCH   2   3
HETATM    3  O   UNK N   1      33.465  15.621  -0.157  0.00  0.00    -0.319 OA
BRANCH   3   4
HETATM    4  C   UNK N   1      32.151  15.298  -0.075  0.00  0.00     0.258 C 
HETATM    5  O   UNK N   1      31.376  16.062   0.475  0.00  0.00    -0.265 OA
BRANCH   4   6
HETATM    6  C   UNK N   1      31.644  14.011  -0.649  0.00  0.00     0.111 C 
BRANCH   6   7
HETATM    7  C   UNK N   1      31.298  13.054   0.470  0.00  0.00     0.010 C 
BRANCH   7   8
HETATM    8  C   UNK N   1      31.234  11.646  -0.084  0.00  0.00     0.000 C 
BRANCH   8   9
HETATM    9  C   UNK N   1      30.096  10.897   0.582  0.00  0.00     0.000 C 
BRANCH   9  10
HETATM   10  C   UNK N   1      28.840  10.908  -0.286  0.00  0.00     0.000 C 
BRANCH  10  11
HETATM   11  C   UNK N   1      28.419  12.309  -0.717  0.00  0.00     0.000 C 
BRANCH  11  12
HETATM   12  C   UNK N   1      28.113  13.189   0.485  0.00  0.00     0.000 C 
BRANCH  12  13
HETATM   13  C   UNK N   1      27.765  14.594   0.024  0.00  0.00     0.000 C 
BRANCH  13  14
HETATM   14  C   UNK N   1      26.397  14.612  -0.634  0.00  0.00     0.000 C 
BRANCH  14  15
HETATM   15  C   UNK N   1      25.321  14.408   0.412  0.00  0.00     0.000 C 
BRANCH  15  16
HETATM   16  C   UNK N   1      24.363  13.331  -0.046  0.00  0.00     0.000 C 
BRANCH  16  17
HETATM   17  C   UNK N   1      22.959  13.817   0.217  0.00  0.00     0.000 C 
BRANCH  17  18
HETATM   18  C   UNK N   1      21.949  12.734  -0.085  0.00  0.00     0.000 C 
BRANCH  18  19
HETATM   19  C   UNK N   1      20.574  13.357   0.018  0.00  0.00     0.000 C 
BRANCH  19  20
HETATM   20  C   UNK N   1      19.497  12.301  -0.081  0.00  0.00    -0.000 C 
BRANCH  20  21
HETATM   21  C   UNK N   1      18.150  12.988   0.003  0.00  0.00    -0.005 C 
HETATM   22  C   UNK N   1      17.046  11.954  -0.009  0.00  0.00     0.005 C 
ENDBRANCH  20  21
ENDBRANCH  19  20
ENDBRANCH  18  19
ENDBRANCH  17  18
ENDBRANCH  16  17
ENDBRANCH  15  16
ENDBRANCH  14  15
ENDBRANCH  13  14
ENDBRANCH  12  13
ENDBRANCH  11  12
ENDBRANCH  10  11
ENDBRANCH   9  10
ENDBRANCH   8   9
ENDBRANCH   7   8
ENDBRANCH   6   7
ENDBRANCH   4   6
ENDBRANCH   3   4
ENDBRANCH   2   3
ENDBRANCH   1   2
BRANCH   1  23
HETATM   23  C   UNK N   1      34.490  12.296  -0.393  0.00  0.00     0.215 C 
BRANCH  23  24
HETATM   24  O   UNK N   1      34.716  11.261   0.520  0.00  0.00    -0.294 OA
BRANCH  24  25
HETATM   25  P   UNK N   1      34.310   9.806  -0.346  0.00  0.00     0.393 P 
HETATM   26  O   UNK N   1      33.433   9.690   0.930  0.00  0.00    -0.631 OA
BRANCH  25  27
HETATM   27  O   UNK N   1      35.993   9.787   0.088  0.00  0.00    -0.307 OA
HETATM   28  H   UNK N   1      36.453   8.968   0.330  0.00  0.00     0.222 HD
ENDBRANCH  25  27
BRANCH  25  29
HETATM   29  O   UNK N   1      34.760   8.245   0.276  0.00  0.00    -0.295 OA
BRANCH  29  30
HETATM   30  C   UNK N   1      34.273   7.317  -0.651  0.00  0.00     0.207 C 
BRANCH  30  31
HETATM   31  C   UNK N   1      33.441   6.267   0.064  0.00  0.00     0.256 C 
BRANCH  31  32
HETATM   32  N   UNK N   1      32.029   6.558  -0.101  0.00  0.00    -0.077 N 
HETATM   33  H   UNK N   1      31.709   7.520  -0.216  0.00  0.00     0.274 HD
HETATM   34  H   UNK N   1      31.351   5.795  -0.101  0.00  0.00     0.274 HD
HETATM   35  H   UNK N   1      31.035   6.757  -0.216  0.00  0.00     0.274 HD
ENDBRANCH  31  32
ENDBRANCH  30  31
ENDBRANCH  29  30
ENDBRANCH  25  29
ENDBRANCH  24  25
ENDBRANCH  23  24
ENDBRANCH   1  23
BRANCH   1  36
HETATM   36  O   UNK N   1      36.078  13.795   0.649  0.00  0.00    -0.312 OA
BRANCH  36  37
HETATM   37  C   UNK N   1      37.106  13.674  -0.225  0.00  0.00     0.259 C 
HETATM   38  O   UNK N   1      37.406  12.579  -0.671  0.00  0.00    -0.265 OA
BRANCH  37  39
HETATM   39  C   UNK N   1      37.811  14.896  -0.718  0.00  0.00     0.111 C 
BRANCH  39  40
HETATM   40  C   UNK N   1      38.515  15.612   0.421  0.00  0.00     0.010 C 
BRANCH  40  41
HETATM   41  C   UNK N   1      40.011  15.337   0.397  0.00  0.00     0.000 C 
BRANCH  41  42
HETATM   42  C   UNK N   1      40.301  13.881   0.718  0.00  0.00     0.000 C 
BRANCH  42  43
HETATM   43  C   UNK N   1      40.511  13.103  -0.570  0.00  0.00     0.000 C 
BRANCH  43  44
HETATM   44  C   UNK N   1      40.305  11.610  -0.345  0.00  0.00     0.000 C 
BRANCH  44  45
HETATM   45  C   UNK N   1      41.330  11.008   0.609  0.00  0.00     0.000 C 
BRANCH  45  46
HETATM   46  C   UNK N   1      42.718  11.038  -0.000  0.00  0.00     0.000 C 
BRANCH  46  47
HETATM   47  C   UNK N   1      43.447  12.288   0.448  0.00  0.00     0.000 C 
BRANCH  47  48
HETATM   48  C   UNK N   1      44.174  12.892  -0.736  0.00  0.00     0.000 C 
BRANCH  48  49
HETATM   49  C   UNK N   1      45.210  13.898  -0.272  0.00  0.00     0.000 C 
BRANCH  49  50
HETATM   50  C   UNK N   1      46.395  13.159   0.313  0.00  0.00     0.000 C 
BRANCH  50  51
HETATM   51  C   UNK N   1      47.670  13.919   0.030  0.00  0.00     0.000 C 
BRANCH  51  52
HETATM   52  C   UNK N   1      48.839  12.987   0.256  0.00  0.00     0.000 C 
BRANCH  52  53
HETATM   53  C   UNK N   1      50.133  13.694  -0.077  0.00  0.00    -0.000 C 
BRANCH  53  54
HETATM   54  C   UNK N   1      51.284  12.728   0.103  0.00  0.00    -0.005 C 
HETATM   55  C   UNK N   1      52.593  13.454  -0.116  0.00  0.00     0.005 C 
ENDBRANCH  53  54
ENDBRANCH  52  53
ENDBRANCH  51  52
ENDBRANCH  50  51
ENDBRANCH  49  50
ENDBRANCH  48  49
ENDBRANCH  47  48
ENDBRANCH  46  47
ENDBRANCH  45  46
ENDBRANCH  44  45
ENDBRANCH  43  44
ENDBRANCH  42  43
ENDBRANCH  41  42
ENDBRANCH  40  41
ENDBRANCH  39  40
ENDBRANCH  37  39
ENDBRANCH  36  37
ENDBRANCH   1  36
TORSDOF 45
