REMARK  2 active torsions:
REMARK  status: ('A' for Active; 'I' for Inactive)
REMARK    1  A    between atoms: C_5  and  O_6 
REMARK    2  A    between atoms: C_7  and  N_9 
ROOT
HETATM    1  C   UNK N   1       3.367  -1.550   0.000  0.00  0.00     0.048 C 
HETATM    2  C   UNK N   1       2.073  -0.821   0.000  0.00  0.00    -0.059 A 
HETATM    3  C   UNK N   1       0.868  -1.525   0.000  0.00  0.00     0.009 A 
HETATM    4  C   UNK N   1      -0.345  -0.833  -0.000  0.00  0.00     0.039 A 
HETATM    5  C   UNK N   1      -0.361   0.567  -0.000  0.00  0.00     0.098 A 
HETATM    6  C   UNK N   1       0.861   1.287  -0.000  0.00  0.00     0.136 A 
HETATM    7  C   UNK N   1       2.066   0.572   0.000  0.00  0.00     0.045 A 
ENDROOT
BRANCH   6   8
HETATM    8  N   UNK N   1       0.908   2.715  -0.000  0.00  0.00    -0.113 N 
HETATM    9  O   UNK N   1       2.073   3.330   0.000  0.00  0.00    -0.532 OA
HETATM   10  O   UNK N   1      -0.093   3.363  -0.000  0.00  0.00    -0.532 OA
ENDBRANCH   6   8
BRANCH   5  11
HETATM   11  O   UNK N   1      -1.547   1.202  -0.000  0.00  0.00    -0.358 OA
HETATM   12  H   UNK N   1      -1.576   2.139  -0.000  0.00  0.00     0.217 HD
ENDBRANCH   5  11
TORSDOF 2
