REMARK  17 active torsions:
REMARK  status: ('A' for Active; 'I' for Inactive)
REMARK    1  A    between atoms: C_32  and  C_21 
REMARK    2  A    between atoms: C_33  and  C_21 
REMARK    3  A    between atoms: C_24  and  C_22 
REMARK    4  A    between atoms: O_48  and  C_22 
REMARK    5  A    between atoms: C_25  and  C_23 
REMARK    6  A    between atoms: O_49  and  C_23 
REMARK    7  A    between atoms: C_30  and  O_43 
REMARK    8  A    between atoms: C_31  and  O_44 
REMARK    9  A    between atoms: C_36  and  C_32 
REMARK   10  A    between atoms: C_32  and  O_45 
REMARK   11  A    between atoms: C_37  and  C_33 
REMARK   12  A    between atoms: C_33  and  O_48 
REMARK   13  A    between atoms: C_34  and  N_39 
REMARK   14  A    between atoms: C_35  and  N_41 
REMARK   15  A    between atoms: C_38  and  C_36 
REMARK   16  A    between atoms: C_36  and  O_49 
REMARK   17  A    between atoms: C_38  and  O_47 
ROOT
HETATM    1  C   UNK N   1       7.300  -2.213   1.274  0.00  0.00     0.141 C 
HETATM    2  N   UNK N   1       7.123  -3.321   0.626  0.00  0.00    -0.361 N 
ATOM      3  HN  UNK N   1       6.705  -4.093   1.144  1.00  0.00     0.162 HD
HETATM    4  O   UNK N   1       7.058  -2.202   2.598  0.00  0.00    -0.348 OA
HETATM    5  H   UNK N   1       6.980  -2.052   3.520  0.00  0.00     0.219 HD
ENDROOT
BRANCH   1   6
HETATM    6  C   UNK N   1       7.704  -0.913   0.619  0.00  0.00     0.198 C 
BRANCH   6   7
HETATM    7  C   UNK N   1       6.401  -0.482  -0.063  0.00  0.00     0.075 C 
BRANCH   7   8
HETATM    8  C   UNK N   1       6.089   1.010  -0.145  0.00  0.00     0.158 C 
BRANCH   8   9
HETATM    9  C   UNK N   1       4.557   1.297  -0.146  0.00  0.00     0.224 C 
BRANCH   9  10
HETATM   10  C   UNK N   1       4.446   2.786  -0.346  0.00  0.00     0.144 C 
HETATM   11  N   UNK N   1       4.019   3.565   0.592  0.00  0.00    -0.361 N 
ATOM     12  HN  UNK N   1       3.678   3.157   1.462  1.00  0.00     0.162 HD
BRANCH  11  13
HETATM   13  C   UNK N   1       4.014   5.013   0.437  0.00  0.00     0.146 C 
HETATM   14  C   UNK N   1       2.692   5.651   0.570  0.00  0.00    -0.027 A 
HETATM   15  C   UNK N   1       1.485   5.234   0.007  0.00  0.00     0.010 A 
HETATM   16  C   UNK N   1       2.806   6.871   1.189  0.00  0.00    -0.047 A 
HETATM   17  C   UNK N   1       0.364   6.068   0.134  0.00  0.00     0.001 A 
HETATM   18  C   UNK N   1       0.480   7.317   0.774  0.00  0.00     0.001 A 
HETATM   19  C   UNK N   1       1.715   7.731   1.297  0.00  0.00     0.008 A 
HETATM   20  C   UNK N   1       4.199   7.148   1.628  0.00  0.00     0.073 C 
HETATM   21  C   UNK N   1       4.792   5.729   1.558  0.00  0.00     0.149 C 
BRANCH  21  22
HETATM   22  O   UNK N   1       6.168   5.731   1.330  0.00  0.00    -0.393 OA
HETATM   23  H   UNK N   1       6.648   4.903   1.172  0.00  0.00     0.210 HD
ENDBRANCH  21  22
ENDBRANCH  11  13
BRANCH  10  24
HETATM   24  O   UNK N   1       4.871   3.297  -1.525  0.00  0.00    -0.348 OA
HETATM   25  H   UNK N   1       5.325   3.219  -2.341  0.00  0.00     0.219 HD
ENDBRANCH  10  24
ENDBRANCH   9  10
BRANCH   9  26
HETATM   26  O   UNK N   1       3.828   0.687  -1.203  0.00  0.00    -0.371 OA
BRANCH  26  27
HETATM   27  C   UNK N   1       3.860  -0.719  -1.098  0.00  0.00     0.207 C 
BRANCH  27  28
HETATM   28  C   UNK N   1       2.638  -1.328  -0.486  0.00  0.00    -0.035 A 
HETATM   29  C   UNK N   1       2.590  -2.719  -0.341  0.00  0.00     0.009 A 
HETATM   30  C   UNK N   1       1.467  -3.332   0.219  0.00  0.00     0.001 A 
HETATM   31  C   UNK N   1       0.384  -2.554   0.637  0.00  0.00     0.000 A 
HETATM   32  C   UNK N   1       0.428  -1.163   0.496  0.00  0.00     0.001 A 
HETATM   33  C   UNK N   1       1.553  -0.549  -0.065  0.00  0.00     0.009 A 
ENDBRANCH  27  28
ENDBRANCH  26  27
ENDBRANCH   9  26
ENDBRANCH   8   9
BRANCH   8  34
HETATM   34  O   UNK N   1       6.644   1.678   0.955  0.00  0.00    -0.392 OA
HETATM   35  H   UNK N   1       7.237   1.576   1.717  0.00  0.00     0.210 HD
ENDBRANCH   8  34
ENDBRANCH   7   8
ENDBRANCH   6   7
BRANCH   6  36
HETATM   36  O   UNK N   1       8.849  -1.082  -0.203  0.00  0.00    -0.373 OA
BRANCH  36  37
HETATM   37  C   UNK N   1       8.957  -0.072  -1.181  0.00  0.00     0.207 C 
BRANCH  37  38
HETATM   38  C   UNK N   1       9.638   1.152  -0.657  0.00  0.00    -0.035 A 
HETATM   39  C   UNK N   1       9.046   2.405  -0.850  0.00  0.00     0.009 A 
HETATM   40  C   UNK N   1       9.666   3.560  -0.366  0.00  0.00     0.001 A 
HETATM   41  C   UNK N   1      10.884   3.464   0.311  0.00  0.00     0.000 A 
HETATM   42  C   UNK N   1      11.485   2.215   0.497  0.00  0.00     0.001 A 
HETATM   43  C   UNK N   1      10.865   1.059   0.010  0.00  0.00     0.009 A 
ENDBRANCH  37  38
ENDBRANCH  36  37
ENDBRANCH   6  36
ENDBRANCH   1   6
BRANCH   2  44
HETATM   44  C   UNK N   1       7.461  -3.574  -0.765  0.00  0.00     0.146 C 
HETATM   45  C   UNK N   1       8.731  -4.329  -0.683  0.00  0.00    -0.027 A 
HETATM   46  C   UNK N   1       9.987  -3.802  -0.372  0.00  0.00     0.010 A 
HETATM   47  C   UNK N   1       8.513  -5.684  -0.687  0.00  0.00    -0.047 A 
HETATM   48  C   UNK N   1      11.045  -4.685  -0.120  0.00  0.00     0.001 A 
HETATM   49  C   UNK N   1      10.823  -6.073  -0.136  0.00  0.00     0.001 A 
HETATM   50  C   UNK N   1       9.543  -6.581  -0.409  0.00  0.00     0.008 A 
HETATM   51  C   UNK N   1       7.084  -6.022  -0.889  0.00  0.00     0.073 C 
HETATM   52  C   UNK N   1       6.559  -4.667  -1.388  0.00  0.00     0.149 C 
BRANCH  52  53
HETATM   53  O   UNK N   1       5.202  -4.476  -1.127  0.00  0.00    -0.393 OA
HETATM   54  H   UNK N   1       4.846  -3.592  -0.945  0.00  0.00     0.210 HD
ENDBRANCH  52  53
ENDBRANCH   2  44
TORSDOF 17
