REMARK  1 active torsions:
REMARK  status: ('A' for Active; 'I' for Inactive)
REMARK       I    between atoms: N_1  and  C_2 
REMARK    1  A    between atoms: C_2  and  O_3 
ROOT
HETATM    1  N   UNK N   1       1.426   1.038   0.000  0.00  0.00    -0.347 N 
HETATM    2  C   UNK N   1       0.729  -0.113   0.000  0.00  0.00     0.247 C 
HETATM    3  O   UNK N   1      -0.491  -0.087   0.000  0.00  0.00    -0.632 OA
HETATM    4  H   UNK N   1       2.410   1.018   0.000  0.00  0.00     0.162 HD
HETATM    5  H   UNK N   1       0.952   1.901   0.000  0.00  0.00     0.162 HD
ENDROOT
BRANCH   2   6
HETATM    6  O   UNK N   1       1.377  -1.291   0.000  0.00  0.00    -0.760 OA
HETATM    7  H   UNK N   1       0.892  -2.093   0.000  0.00  0.00     0.169 HD
ENDBRANCH   2   6
TORSDOF 1
