REMARK  12 active torsions:
REMARK  status: ('A' for Active; 'I' for Inactive)
REMARK    1  A    between atoms: C_3  and  C_1 
REMARK    2  A    between atoms: O_15  and  C_1 
REMARK    3  A    between atoms: C_4  and  C_2 
REMARK    4  A    between atoms: O_16  and  C_2 
REMARK    5  A    between atoms: C_5  and  O_17 
REMARK    6  A    between atoms: C_6  and  O_18 
REMARK    7  A    between atoms: C_7  and  O_19 
REMARK    8  A    between atoms: C_8  and  O_20 
REMARK    9  A    between atoms: C_9  and  O_21 
REMARK   10  A    between atoms: C_10  and  O_24 
REMARK   11  A    between atoms: O_22  and  C_11 
REMARK   12  A    between atoms: C_12  and  O_24 
ROOT
HETATM    1  C   UNK N   1       0.108   2.276  -0.675  0.00  0.00     0.138 C 
HETATM    2  C   UNK N   1      -2.038   3.294   0.358  0.00  0.00     0.186 C 
HETATM    3  C   UNK N   1      -2.496   1.836   0.194  0.00  0.00     0.223 C 
HETATM    4  C   UNK N   1      -0.755   3.580  -0.481  0.00  0.00     0.181 C 
HETATM    5  C   UNK N   1      -1.342   1.013   0.728  0.00  0.00     0.144 C 
HETATM    6  N   UNK N   1      -0.135   1.288   0.359  0.00  0.00    -0.363 N 
ATOM      7  HN  UNK N   1       0.651   0.807   0.796  1.00  0.00     0.162 HD
ENDROOT
BRANCH   4   8
HETATM    8  O   UNK N   1      -0.043   4.650   0.147  0.00  0.00    -0.348 OA
BRANCH   8   9
HETATM    9  C   UNK N   1       0.400   5.654  -0.771  0.00  0.00     0.292 C 
HETATM   10  C   UNK N   1       0.048   7.084  -0.297  0.00  0.00     0.204 C 
HETATM   11  C   UNK N   1       0.879   7.486   0.930  0.00  0.00     0.183 C 
HETATM   12  C   UNK N   1       2.364   7.256   0.619  0.00  0.00     0.180 C 
HETATM   13  C   UNK N   1       2.553   5.794   0.168  0.00  0.00     0.179 C 
HETATM   14  O   UNK N   1       1.797   5.535  -1.008  0.00  0.00    -0.348 OA
BRANCH  10  15
HETATM   15  O   UNK N   1      -1.318   7.197  -0.028  0.00  0.00    -0.388 OA
HETATM   16  H   UNK N   1      -1.725   8.058   0.158  0.00  0.00     0.210 HD
ENDBRANCH  10  15
BRANCH  11  17
HETATM   17  O   UNK N   1       0.503   6.723   2.039  0.00  0.00    -0.390 OA
HETATM   18  H   UNK N   1      -0.086   6.683   2.809  0.00  0.00     0.210 HD
ENDBRANCH  11  17
BRANCH  12  19
HETATM   19  O   UNK N   1       2.779   8.123  -0.399  0.00  0.00    -0.390 OA
HETATM   20  H   UNK N   1       3.444   8.175  -1.104  0.00  0.00     0.210 HD
ENDBRANCH  12  19
BRANCH  13  21
HETATM   21  C   UNK N   1       4.027   5.532  -0.118  0.00  0.00     0.198 C 
BRANCH  21  22
HETATM   22  O   UNK N   1       4.230   4.188  -0.433  0.00  0.00    -0.398 OA
HETATM   23  H   UNK N   1       3.492   3.598  -0.651  0.00  0.00     0.209 HD
ENDBRANCH  21  22
ENDBRANCH  13  21
ENDBRANCH   8   9
ENDBRANCH   4   8
BRANCH   1  24
HETATM   24  C   UNK N   1       1.603   2.492  -0.862  0.00  0.00     0.191 C 
BRANCH  24  25
HETATM   25  O   UNK N   1       1.863   3.070  -2.105  0.00  0.00    -0.399 OA
HETATM   26  H   UNK N   1       2.301   3.115  -2.969  0.00  0.00     0.209 HD
ENDBRANCH  24  25
ENDBRANCH   1  24
BRANCH   2  27
HETATM   27  O   UNK N   1      -3.055   4.193   0.027  0.00  0.00    -0.390 OA
HETATM   28  H   UNK N   1      -2.867   5.116  -0.202  0.00  0.00     0.210 HD
ENDBRANCH   2  27
BRANCH   3  29
HETATM   29  O   UNK N   1      -2.741   1.544  -1.152  0.00  0.00    -0.385 OA
HETATM   30  H   UNK N   1      -3.001   1.590  -2.085  0.00  0.00     0.210 HD
ENDBRANCH   3  29
BRANCH   5  31
HETATM   31  O   UNK N   1      -1.557   0.083   1.679  0.00  0.00    -0.348 OA
HETATM   32  H   UNK N   1      -2.192  -0.111   2.340  0.00  0.00     0.219 HD
ENDBRANCH   5  31
TORSDOF 12
