REMARK  15 active torsions:
REMARK  status: ('A' for Active; 'I' for Inactive)
REMARK    1  A    between atoms: C_2  and  C_1 
REMARK    2  A    between atoms: C_5  and  C_1 
REMARK    3  A    between atoms: C_8  and  C_2 
REMARK    4  A    between atoms: C_6  and  C_3 
REMARK    5  A    between atoms: N_21  and  C_3 
REMARK    6  A    between atoms: C_7  and  C_4 
REMARK    7  A    between atoms: O_22  and  C_4 
REMARK    8  A    between atoms: C_10  and  C_6 
REMARK    9  A    between atoms: C_6  and  O_23 
REMARK   10  A    between atoms: C_10  and  C_7 
REMARK   11  A    between atoms: C_7  and  O_24 
REMARK   12  A    between atoms: O_26  and  C_8 
REMARK   13  A    between atoms: C_10  and  O_27 
REMARK   14  A    between atoms: O_28  and  C_12 
REMARK   15  A    between atoms: O_29  and  C_13 
ROOT
HETATM    1  C   UNK N   1      -1.751  -1.147  -0.516  0.00  0.00     0.062 A 
HETATM    2  C   UNK N   1      -0.689   0.959  -0.348  0.00  0.00     0.129 A 
HETATM    3  C   UNK N   1       0.449   0.350   0.205  0.00  0.00     0.145 A 
HETATM    4  C   UNK N   1      -0.683   2.345  -0.536  0.00  0.00     0.175 A 
HETATM    5  C   UNK N   1      -0.605  -1.766   0.029  0.00  0.00     0.167 A 
HETATM    6  C   UNK N   1       1.510   2.464   0.367  0.00  0.00     0.327 A 
HETATM    7  N   UNK N   1      -1.758   0.200  -0.698  0.00  0.00    -0.350 N 
ATOM      8  HN  UNK N   1      -2.580   0.647  -1.104  1.00  0.00     0.166 HD
HETATM    9  N   UNK N   1       1.520   1.111   0.550  0.00  0.00    -0.292 N 
ATOM     10  HN  UNK N   1       2.345   0.664   0.951  1.00  0.00     0.172 HD
HETATM   11  N   UNK N   1       0.408   3.071  -0.177  0.00  0.00    -0.287 N 
ATOM     12  HN  UNK N   1       0.407   4.082  -0.315  1.00  0.00     0.172 HD
HETATM   13  N   UNK N   1       0.480  -1.001   0.375  0.00  0.00    -0.308 N 
HETATM   14  O   UNK N   1       2.479   3.126   0.684  0.00  0.00    -0.247 OA
ENDROOT
BRANCH  13  15
HETATM   15  C   UNK N   1       1.715  -1.591   0.904  0.00  0.00     0.167 C 
BRANCH  15  16
HETATM   16  C   UNK N   1       2.513  -2.277  -0.207  0.00  0.00     0.167 C 
BRANCH  16  17
HETATM   17  C   UNK N   1       3.933  -2.684   0.254  0.00  0.00     0.179 C 
BRANCH  17  18
HETATM   18  C   UNK N   1       4.992  -1.566   0.100  0.00  0.00     0.173 C 
BRANCH  18  19
HETATM   19  C   UNK N   1       6.366  -2.074   0.530  0.00  0.00     0.198 C 
BRANCH  19  20
HETATM   20  O   UNK N   1       7.358  -1.155   0.184  0.00  0.00    -0.398 OA
HETATM   21  H   UNK N   1       8.256  -1.432  -0.057  0.00  0.00     0.209 HD
ENDBRANCH  19  20
ENDBRANCH  18  19
BRANCH  18  22
HETATM   22  O   UNK N   1       4.653  -0.439   0.850  0.00  0.00    -0.391 OA
HETATM   23  H   UNK N   1       5.214   0.157   1.371  0.00  0.00     0.210 HD
ENDBRANCH  18  22
ENDBRANCH  17  18
BRANCH  17  24
HETATM   24  O   UNK N   1       4.343  -3.772  -0.520  0.00  0.00    -0.390 OA
HETATM   25  H   UNK N   1       3.831  -4.397  -1.058  0.00  0.00     0.210 HD
ENDBRANCH  17  24
ENDBRANCH  16  17
BRANCH  16  26
HETATM   26  O   UNK N   1       2.580  -1.460  -1.342  0.00  0.00    -0.391 OA
HETATM   27  H   UNK N   1       3.094  -1.217  -2.128  0.00  0.00     0.210 HD
ENDBRANCH  16  26
ENDBRANCH  15  16
ENDBRANCH  13  15
BRANCH   5  28
HETATM   28  O   UNK N   1      -0.580  -3.103   0.199  0.00  0.00    -0.344 OA
HETATM   29  H   UNK N   1      -1.376  -3.583   0.318  0.00  0.00     0.219 HD
ENDBRANCH   5  28
BRANCH   1  30
HETATM   30  C   UNK N   1      -2.950  -1.944  -0.927  0.00  0.00     0.072 C 
BRANCH  30  31
HETATM   31  C   UNK N   1      -3.670  -2.507   0.289  0.00  0.00     0.116 C 
BRANCH  31  32
HETATM   32  C   UNK N   1      -3.993  -3.952   0.088  0.00  0.00     0.139 C 
HETATM   33  O   UNK N   1      -3.095  -4.767  -0.043  0.00  0.00    -0.650 OA
BRANCH  32  34
HETATM   34  O   UNK N   1      -5.275  -4.360   0.079  0.00  0.00    -0.776 OA
HETATM   35  H   UNK N   1      -5.967  -3.729   0.073  0.00  0.00     0.167 HD
ENDBRANCH  32  34
ENDBRANCH  31  32
ENDBRANCH  30  31
ENDBRANCH   1  30
BRANCH   4  36
HETATM   36  O   UNK N   1      -1.748   2.962  -1.074  0.00  0.00    -0.344 OA
HETATM   37  H   UNK N   1      -1.747   3.821  -1.449  0.00  0.00     0.219 HD
ENDBRANCH   4  36
TORSDOF 15
