REMARK  12 active torsions:
REMARK  status: ('A' for Active; 'I' for Inactive)
REMARK    1  A    between atoms: C_3  and  C_1 
REMARK    2  A    between atoms: O_13  and  C_1 
REMARK    3  A    between atoms: C_4  and  C_2 
REMARK    4  A    between atoms: O_21  and  C_2 
REMARK    5  A    between atoms: C_5  and  O_14 
REMARK    6  A    between atoms: C_6  and  O_15 
REMARK    7  A    between atoms: C_7  and  O_16 
REMARK    8  A    between atoms: C_8  and  O_17 
REMARK    9  A    between atoms: C_9  and  O_18 
REMARK   10  A    between atoms: C_10  and  O_19 
REMARK   11  A    between atoms: O_20  and  C_11 
REMARK   12  A    between atoms: C_12  and  O_21 
ROOT
HETATM    1  O   UNK N   1      -2.304  -2.812   0.608  0.00  0.00    -0.356 OA
ENDROOT
BRANCH   1   2
HETATM    2  C   UNK N   1      -3.477  -3.573   0.743  0.00  0.00     0.205 C 
BRANCH   2   3
HETATM    3  C   UNK N   1      -3.891  -4.267  -0.566  0.00  0.00     0.180 C 
HETATM    4  C   UNK N   1      -5.291  -4.930  -0.438  0.00  0.00     0.180 C 
HETATM    5  C   UNK N   1      -5.231  -6.366   0.148  0.00  0.00     0.183 C 
HETATM    6  C   UNK N   1      -3.897  -6.572   0.864  0.00  0.00     0.204 C 
HETATM    7  C   UNK N   1      -2.741  -6.325  -0.154  0.00  0.00     0.288 C 
HETATM    8  O   UNK N   1      -2.894  -5.177  -0.996  0.00  0.00    -0.349 OA
BRANCH   4   9
HETATM    9  O   UNK N   1      -5.929  -4.957  -1.683  0.00  0.00    -0.390 OA
HETATM   10  H   UNK N   1      -6.167  -4.583  -2.546  0.00  0.00     0.210 HD
ENDBRANCH   4   9
BRANCH   5  11
HETATM   11  O   UNK N   1      -5.343  -7.314  -0.876  0.00  0.00    -0.390 OA
HETATM   12  H   UNK N   1      -5.951  -7.576  -1.586  0.00  0.00     0.210 HD
ENDBRANCH   5  11
BRANCH   6  13
HETATM   13  O   UNK N   1      -3.810  -7.858   1.405  0.00  0.00    -0.388 OA
HETATM   14  H   UNK N   1      -4.552  -8.357   1.780  0.00  0.00     0.210 HD
ENDBRANCH   6  13
BRANCH   7  15
HETATM   15  O   UNK N   1      -2.619  -7.439  -0.989  0.00  0.00    -0.369 OA
HETATM   16  H   UNK N   1      -3.246  -7.899  -1.568  0.00  0.00     0.212 HD
ENDBRANCH   7  15
ENDBRANCH   2   3
ENDBRANCH   1   2
BRANCH   1  17
HETATM   17  C   UNK N   1      -2.542  -1.509   0.083  0.00  0.00     0.291 C 
HETATM   18  C   UNK N   1      -3.856  -0.804   0.573  0.00  0.00     0.204 C 
HETATM   19  C   UNK N   1      -3.915   0.605  -0.021  0.00  0.00     0.183 C 
HETATM   20  C   UNK N   1      -2.644   1.368   0.341  0.00  0.00     0.180 C 
HETATM   21  C   UNK N   1      -1.427   0.551  -0.143  0.00  0.00     0.179 C 
HETATM   22  O   UNK N   1      -1.428  -0.723   0.479  0.00  0.00    -0.348 OA
BRANCH  18  23
HETATM   23  O   UNK N   1      -5.006  -1.484   0.160  0.00  0.00    -0.388 OA
HETATM   24  H   UNK N   1      -5.813  -1.029  -0.127  0.00  0.00     0.210 HD
ENDBRANCH  18  23
BRANCH  19  25
HETATM   25  O   UNK N   1      -5.039   1.282   0.459  0.00  0.00    -0.390 OA
HETATM   26  H   UNK N   1      -5.022   2.193   0.792  0.00  0.00     0.210 HD
ENDBRANCH  19  25
BRANCH  20  27
HETATM   27  O   UNK N   1      -2.673   2.628  -0.265  0.00  0.00    -0.390 OA
HETATM   28  H   UNK N   1      -1.926   3.082  -0.684  0.00  0.00     0.210 HD
ENDBRANCH  20  27
BRANCH  21  29
HETATM   29  C   UNK N   1      -0.118   1.241   0.235  0.00  0.00     0.198 C 
BRANCH  29  30
HETATM   30  O   UNK N   1       0.043   2.438  -0.465  0.00  0.00    -0.398 OA
HETATM   31  H   UNK N   1       0.819   2.757  -0.951  0.00  0.00     0.209 HD
ENDBRANCH  29  30
ENDBRANCH  21  29
ENDBRANCH   1  17
TORSDOF 12
