REMARK  1 active torsions:
REMARK  status: ('A' for Active; 'I' for Inactive)
REMARK    1  A    between atoms: C_5  and  O_6 
ROOT
HETATM    1  C   UNK N   1       3.272   1.560   0.000  0.00  0.00     0.049 C 
HETATM    2  C   UNK N   1       1.922   0.924  -0.000  0.00  0.00    -0.056 A 
HETATM    3  C   UNK N   1       1.837  -0.472  -0.000  0.00  0.00     0.010 A 
HETATM    4  C   UNK N   1       0.589  -1.101  -0.000  0.00  0.00     0.037 A 
HETATM    5  C   UNK N   1      -0.578  -0.334  -0.000  0.00  0.00     0.066 A 
HETATM    6  C   UNK N   1      -0.502   1.059  -0.000  0.00  0.00     0.043 A 
HETATM    7  C   UNK N   1       0.742   1.697   0.000  0.00  0.00    -0.053 A 
HETATM    8  C   UNK N   1       0.781   3.187   0.000  0.00  0.00     0.049 C 
ENDROOT
BRANCH   5   9
HETATM    9  O   UNK N   1      -1.778  -0.939   0.000  0.00  0.00    -0.361 OA
HETATM   10  H   UNK N   1      -2.562  -0.425   0.000  0.00  0.00     0.217 HD
ENDBRANCH   5   9
TORSDOF 1
