REMARK  5 active torsions:
REMARK  status: ('A' for Active; 'I' for Inactive)
REMARK    1  A    between atoms: C_3  and  C_1 
REMARK    2  A    between atoms: O_17  and  C_1 
REMARK    3  A    between atoms: C_9  and  C_5 
REMARK    4  A    between atoms: C_7  and  O_18 
REMARK    5  A    between atoms: C_8  and  O_19 
ROOT
HETATM    1  C   UNK N   1       5.099   0.725   0.429  0.00  0.00     0.184 A 
HETATM    2  C   UNK N   1       2.861   0.414  -0.170  0.00  0.00     0.094 A 
HETATM    3  C   UNK N   1       1.564   0.653  -0.552  0.00  0.00     0.086 A 
HETATM    4  C   UNK N   1       2.971  -0.923  -0.036  0.00  0.00     0.145 A 
HETATM    5  C   UNK N   1       4.178  -1.483   0.352  0.00  0.00     0.276 A 
HETATM    6  N   UNK N   1       3.896   1.259   0.054  0.00  0.00    -0.349 N 
ATOM      7  HN  UNK N   1       3.782   2.267  -0.053  1.00  0.00     0.167 HD
HETATM    8  N   UNK N   1       5.240  -0.633   0.579  0.00  0.00    -0.318 N 
HETATM    9  N   UNK N   1       0.930  -0.543  -0.647  0.00  0.00    -0.299 N 
HETATM   10  N   UNK N   1       1.793  -1.508  -0.326  0.00  0.00    -0.293 N 
ATOM     11  HN  UNK N   1       1.597  -2.509  -0.304  1.00  0.00     0.187 HD
HETATM   12  O   UNK N   1       4.304  -2.686   0.490  0.00  0.00    -0.266 OA
HETATM   13  H   UNK N   1       6.109  -1.004   0.853  0.00  0.00     0.169 HD
HETATM   14  H   UNK N   1      -0.010  -0.675  -0.909  0.00  0.00     0.186 HD
ENDROOT
BRANCH   3  15
HETATM   15  C   UNK N   1       0.926   1.994  -0.801  0.00  0.00     0.207 C 
HETATM   16  C   UNK N   1      -0.323   2.222   0.067  0.00  0.00     0.184 C 
HETATM   17  C   UNK N   1      -0.298   3.723   0.115  0.00  0.00     0.180 C 
HETATM   18  C   UNK N   1       1.189   3.925   0.360  0.00  0.00     0.177 C 
HETATM   19  O   UNK N   1       1.846   3.046  -0.527  0.00  0.00    -0.367 OA
BRANCH  16  20
HETATM   20  O   UNK N   1      -0.136   1.705   1.358  0.00  0.00    -0.390 OA
HETATM   21  H   UNK N   1      -0.382   1.414   2.250  0.00  0.00     0.210 HD
ENDBRANCH  16  20
BRANCH  17  22
HETATM   22  O   UNK N   1      -1.097   4.255   1.130  0.00  0.00    -0.390 OA
HETATM   23  H   UNK N   1      -1.055   4.920   1.835  0.00  0.00     0.210 HD
ENDBRANCH  17  22
BRANCH  18  24
HETATM   24  C   UNK N   1       1.648   5.366   0.171  0.00  0.00     0.198 C 
BRANCH  24  25
HETATM   25  O   UNK N   1       1.459   5.786  -1.146  0.00  0.00    -0.398 OA
HETATM   26  H   UNK N   1       1.646   6.046  -2.061  0.00  0.00     0.209 HD
ENDBRANCH  24  25
ENDBRANCH  18  24
ENDBRANCH   3  15
TORSDOF 5
