REMARK  18 active torsions:
REMARK  status: ('A' for Active; 'I' for Inactive)
REMARK    1  A    between atoms: C_3  and  C_1 
REMARK    2  A    between atoms: O_31  and  C_1 
REMARK    3  A    between atoms: C_5  and  O_19 
REMARK    4  A    between atoms: C_6  and  O_33 
REMARK    5  A    between atoms: O_20  and  C_8 
REMARK    6  A    between atoms: C_9  and  N_18 
REMARK       I    between atoms: N_11  and  C_10 
REMARK    7  A    between atoms: P_36  and  O_21 
REMARK    8  A    between atoms: P_36  and  O_22 
REMARK    9  A    between atoms: P_37  and  O_24 
REMARK   10  A    between atoms: P_37  and  O_25 
REMARK   11  A    between atoms: P_38  and  O_27 
REMARK   12  A    between atoms: P_39  and  O_29 
REMARK   13  A    between atoms: P_38  and  O_31 
REMARK   14  A    between atoms: P_39  and  O_33 
REMARK   15  A    between atoms: P_36  and  O_34 
REMARK   16  A    between atoms: P_38  and  O_34 
REMARK   17  A    between atoms: P_37  and  O_35 
REMARK   18  A    between atoms: P_39  and  O_35 
ROOT
HETATM    1  C   UNK N   1      -1.766  -3.094  -0.457  0.00  0.00     0.180 C 
HETATM    2  C   UNK N   1       0.436  -2.496  -0.737  0.00  0.00     0.199 C 
HETATM    3  C   UNK N   1      -0.371  -3.756  -0.563  0.00  0.00     0.197 C 
HETATM    4  C   UNK N   1      -0.228  -1.615   0.309  0.00  0.00     0.262 C 
HETATM    5  O   UNK N   1      -1.617  -1.851   0.215  0.00  0.00    -0.353 OA
ENDROOT
BRANCH   4   6
HETATM    6  N   UNK N   1       0.119  -0.212   0.080  0.00  0.00    -0.297 N 
HETATM    7  C   UNK N   1      -0.705   0.825  -0.226  0.00  0.00     0.188 A 
HETATM    8  N   UNK N   1       0.001   1.978  -0.409  0.00  0.00    -0.346 N 
HETATM    9  C   UNK N   1       1.285   1.620  -0.205  0.00  0.00     0.130 A 
ATOM     10  HN  UNK N   1      -0.361   2.902  -0.646  1.00  0.00     0.167 HD
HETATM   11  C   UNK N   1       1.348   0.312   0.094  0.00  0.00     0.157 A 
HETATM   12  C   UNK N   1       2.446   2.371  -0.277  0.00  0.00     0.186 A 
HETATM   13  N   UNK N   1       2.517  -0.327   0.343  0.00  0.00    -0.174 N 
HETATM   14  C   UNK N   1       3.672   0.401   0.281  0.00  0.00     0.679 A 
HETATM   15  H   UNK N   1       2.534  -1.287   0.561  0.00  0.00     0.186 HD
HETATM   16  N   UNK N   1       4.794  -0.170   0.507  0.00  0.00    -0.234 N 
HETATM   17  N   UNK N   1       3.635   1.739  -0.029  0.00  0.00    -0.168 N 
HETATM   18  H   UNK N   1       4.846  -1.137   0.682  0.00  0.00     0.174 HD
ATOM     19  HN  UNK N   1       5.649   0.386   0.507  1.00  0.00     0.174 HD
ATOM     20  HN  UNK N   1       4.505   2.269  -0.075  1.00  0.00     0.186 HD
BRANCH  12  21
HETATM   21  O   UNK N   1       2.417   3.677  -0.589  0.00  0.00    -0.344 OA
HETATM   22  H   UNK N   1       3.196   4.150  -0.806  0.00  0.00     0.219 HD
ENDBRANCH  12  21
ENDBRANCH   4   6
BRANCH   2  23
HETATM   23  O   UNK N   1       0.219  -1.973  -2.020  0.00  0.00    -0.388 OA
HETATM   24  H   UNK N   1       0.457  -1.662  -2.907  0.00  0.00     0.210 HD
ENDBRANCH   2  23
BRANCH   3  25
HETATM   25  O   UNK N   1      -0.050  -4.409   0.655  0.00  0.00    -0.286 OA
BRANCH  25  26
HETATM   26  P   UNK N   1       1.450  -5.334   0.511  0.00  0.00     0.402 P 
HETATM   27  O   UNK N   1       2.026  -5.352   1.951  0.00  0.00    -0.631 OA
BRANCH  26  28
HETATM   28  O   UNK N   1       2.697  -4.552  -0.409  0.00  0.00    -0.307 OA
HETATM   29  H   UNK N   1       3.423  -4.937  -0.924  0.00  0.00     0.222 HD
ENDBRANCH  26  28
BRANCH  26  30
HETATM   30  O   UNK N   1       1.370  -7.022   0.058  0.00  0.00    -0.195 OA
BRANCH  30  31
HETATM   31  P   UNK N   1      -0.287  -7.458  -0.223  0.00  0.00     0.399 P 
HETATM   32  O   UNK N   1      -0.730  -6.866  -1.588  0.00  0.00    -0.631 OA
BRANCH  31  33
HETATM   33  O   UNK N   1      -1.340  -6.865   1.020  0.00  0.00    -0.307 OA
HETATM   34  H   UNK N   1      -1.347  -6.190   1.715  0.00  0.00     0.222 HD
ENDBRANCH  31  33
BRANCH  31  35
HETATM   35  O   UNK N   1      -0.426  -9.181  -0.370  0.00  0.00    -0.307 OA
HETATM   36  H   UNK N   1      -1.299  -9.596  -0.452  0.00  0.00     0.222 HD
ENDBRANCH  31  35
ENDBRANCH  30  31
ENDBRANCH  26  30
ENDBRANCH  25  26
ENDBRANCH   3  25
BRANCH   1  37
HETATM   37  C   UNK N   1      -2.795  -3.941   0.282  0.00  0.00     0.215 C 
BRANCH  37  38
HETATM   38  O   UNK N   1      -3.161  -5.086  -0.428  0.00  0.00    -0.294 OA
BRANCH  38  39
HETATM   39  P   UNK N   1      -4.628  -5.610   0.356  0.00  0.00     0.401 P 
HETATM   40  O   UNK N   1      -4.301  -6.037   1.814  0.00  0.00    -0.631 OA
BRANCH  39  41
HETATM   41  O   UNK N   1      -5.735  -4.279   0.499  0.00  0.00    -0.307 OA
HETATM   42  H   UNK N   1      -5.401  -3.372   0.579  0.00  0.00     0.222 HD
ENDBRANCH  39  41
BRANCH  39  43
HETATM   43  O   UNK N   1      -5.434  -6.913  -0.494  0.00  0.00    -0.195 OA
BRANCH  43  44
HETATM   44  P   UNK N   1      -4.750  -8.476  -0.079  0.00  0.00     0.399 P 
HETATM   45  O   UNK N   1      -3.584  -8.362   0.937  0.00  0.00    -0.631 OA
BRANCH  44  46
HETATM   46  O   UNK N   1      -4.104  -9.261  -1.485  0.00  0.00    -0.307 OA
HETATM   47  H   UNK N   1      -4.303  -9.793  -2.271  0.00  0.00     0.222 HD
ENDBRANCH  44  46
BRANCH  44  48
HETATM   48  O   UNK N   1      -5.948  -9.491   0.658  0.00  0.00    -0.307 OA
HETATM   49  H   UNK N   1      -6.775  -9.194   1.070  0.00  0.00     0.222 HD
ENDBRANCH  44  48
ENDBRANCH  43  44
ENDBRANCH  39  43
ENDBRANCH  38  39
ENDBRANCH  37  38
ENDBRANCH   1  37
TORSDOF 18
