REMARK  3 active torsions:
REMARK  status: ('A' for Active; 'I' for Inactive)
REMARK    1  A    between atoms: N_1  and  C_2 
REMARK    2  A    between atoms: C_5  and  S_9 
REMARK    3  A    between atoms: S_9  and  N_10 
ROOT
HETATM    1  C   UNK N   1       2.149   1.548   0.105  0.00  0.00     0.025 A 
HETATM    2  C   UNK N   1       2.307   0.159   0.080  0.00  0.00     0.030 A 
HETATM    3  C   UNK N   1       1.182  -0.671   0.042  0.00  0.00     0.027 A 
HETATM    4  C   UNK N   1      -0.101  -0.112   0.033  0.00  0.00     0.079 A 
HETATM    5  C   UNK N   1      -0.257   1.277   0.065  0.00  0.00     0.027 A 
HETATM    6  C   UNK N   1       0.867   2.107   0.104  0.00  0.00    -0.056 A 
HETATM    7 Hg   UNK N   1       0.632   4.158   0.136  0.00  0.00     0.086 Hg
ENDROOT
BRANCH   4   8
HETATM    8  S   UNK N   1      -1.540  -1.164  -0.101  0.00  0.00     0.256 S 
HETATM    9  O   UNK N   1      -2.259  -0.976  -1.444  0.00  0.00    -0.201 OA
HETATM   10  O   UNK N   1      -1.191  -2.660  -0.137  0.00  0.00    -0.201 OA
BRANCH   8  11
HETATM   11  N   UNK N   1      -2.806  -1.016   1.119  0.00  0.00    -0.324 N 
HETATM   12  H   UNK N   1      -3.098  -0.340   1.825  0.00  0.00     0.169 HD
HETATM   13  H   UNK N   1      -3.415  -1.834   1.119  0.00  0.00     0.169 HD
ENDBRANCH   8  11
ENDBRANCH   4   8
BRANCH   1  14
HETATM   14  N   UNK N   1       3.282   2.385   0.124  0.00  0.00    -0.399 N 
HETATM   15  H   UNK N   1       4.184   1.992   0.136  0.00  0.00     0.156 HD
HETATM   16  H   UNK N   1       3.171   3.363   0.124  0.00  0.00     0.156 HD
ENDBRANCH   1  14
TORSDOF 3
