REMARK  10 active torsions:
REMARK  status: ('A' for Active; 'I' for Inactive)
REMARK    1  A    between atoms: O_2  and  C_3 
REMARK    2  A    between atoms: C_3  and  C_5 
REMARK    3  A    between atoms: C_5  and  C_6 
REMARK    4  A    between atoms: C_6  and  C_7 
REMARK    5  A    between atoms: C_13  and  C_14 
REMARK    6  A    between atoms: C_27  and  C_28 
REMARK    7  A    between atoms: C_28  and  C_29 
REMARK    8  A    between atoms: C_29  and  C_30 
REMARK    9  A    between atoms: C_30  and  O_32 
REMARK   10  A    between atoms: C_43  and  C_44 
ROOT
HETATM    1  C   UNK N   1      -3.328  -0.431   0.628  0.00  0.00     0.048 C 
HETATM    2  C   UNK N   1      -3.446   0.906   0.317  0.00  0.00     0.043 C 
HETATM    3  C   UNK N   1      -4.043   1.950   1.256  0.00  0.00     0.017 C 
HETATM    4  C   UNK N   1      -2.259   1.242  -0.201  0.00  0.00     0.041 C 
HETATM    5  C   UNK N   1      -1.966   2.489  -0.420  0.00  0.00     0.060 C 
HETATM    6  C   UNK N   1      -0.610   2.906  -0.340  0.00  0.00     0.070 A 
HETATM    7  C   UNK N   1      -0.226   4.205  -0.490  0.00  0.00     0.000 A 
HETATM    8  C   UNK N   1       1.128   4.189  -0.317  0.00  0.00    -0.021 A 
HETATM    9  C   UNK N   1       2.036   5.313  -0.145  0.00  0.00     0.052 C 
HETATM   10  C   UNK N   1       1.522   2.890  -0.170  0.00  0.00     0.066 A 
HETATM   11  C   UNK N   1       2.890   2.426  -0.061  0.00  0.00     0.064 A 
HETATM   12  C   UNK N   1       3.271   1.140  -0.007  0.00  0.00     0.070 A 
HETATM   13  N   UNK N   1       2.455   0.075  -0.055  0.00  0.00    -0.248 N 
HETATM   14  C   UNK N   1       3.253  -1.039   0.040  0.00  0.00     0.066 A 
HETATM   15  C   UNK N   1       2.902  -2.331   0.008  0.00  0.00     0.064 C 
HETATM   16  C   UNK N   1       1.557  -2.706  -0.041  0.00  0.00     0.066 C 
HETATM   17  C   UNK N   1       1.088  -3.960  -0.345  0.00  0.00    -0.025 C 
HETATM   18  C   UNK N   1       1.893  -5.207  -0.363  0.00  0.00     0.051 C 
HETATM   19  C   UNK N   1      -0.235  -3.804  -0.575  0.00  0.00    -0.021 C 
HETATM   20  C   UNK N   1      -0.516  -2.550  -0.087  0.00  0.00     0.066 C 
HETATM   21  C   UNK N   1      -1.739  -2.095   0.328  0.00  0.00     0.059 C 
HETATM   22  C   UNK N   1      -2.101  -0.815   0.332  0.00  0.00     0.042 C 
HETATM   23  N   UNK N   1      -1.401   0.206  -0.074  0.00  0.00    -0.257 N 
HETATM   24 Fe   UNK N   1       0.496   0.116  -0.062  0.00  0.00     0.000 Fe
HETATM   25  N   UNK N   1       0.557  -1.838   0.034  0.00  0.00    -0.248 N 
HETATM   26  N   UNK N   1       0.467   2.096  -0.156  0.00  0.00    -0.248 N 
HETATM   27  C   UNK N   1       4.536  -0.681   0.228  0.00  0.00    -0.021 A 
HETATM   28  C   UNK N   1       5.650  -1.654   0.330  0.00  0.00     0.052 C 
HETATM   29  C   UNK N   1       4.571   0.701   0.178  0.00  0.00     0.000 A 
ENDROOT
BRANCH   1  30
HETATM   30  C   UNK N   1      -4.116  -1.399  -0.011  0.00  0.00     0.021 C 
BRANCH  30  31
HETATM   31  C   UNK N   1      -5.095  -0.942  -1.018  0.00  0.00     0.112 C 
BRANCH  31  32
HETATM   32  C   UNK N   1      -6.203  -1.052  -0.038  0.00  0.00     0.258 C 
HETATM   33  O   UNK N   1      -6.267  -2.068   0.655  0.00  0.00    -0.265 OA
BRANCH  32  34
HETATM   34  O   UNK N   1      -7.130  -0.107   0.168  0.00  0.00    -0.326 OA
HETATM   35  C   UNK N   1      -8.394  -0.614   0.417  0.00  0.00     0.213 C 
ENDBRANCH  32  34
ENDBRANCH  31  32
ENDBRANCH  30  31
ENDBRANCH   1  30
BRANCH  19  36
HETATM   36  C   UNK N   1      -1.088  -4.723  -1.451  0.00  0.00     0.051 C 
BRANCH  36  37
HETATM   37  C   UNK N   1      -2.551  -4.387  -1.467  0.00  0.00     0.116 C 
BRANCH  37  38
HETATM   38  C   UNK N   1      -3.134  -4.670  -0.111  0.00  0.00     0.258 C 
HETATM   39  O   UNK N   1      -4.123  -4.050   0.224  0.00  0.00    -0.265 OA
BRANCH  38  40
HETATM   40  O   UNK N   1      -2.582  -5.537   0.785  0.00  0.00    -0.326 OA
HETATM   41  C   UNK N   1      -1.596  -6.467   0.525  0.00  0.00     0.213 C 
ENDBRANCH  38  40
ENDBRANCH  37  38
ENDBRANCH  36  37
ENDBRANCH  19  36
BRANCH   7  42
HETATM   42  C   UNK N   1      -1.079   5.391  -0.660  0.00  0.00     0.004 C 
HETATM   43  C   UNK N   1      -2.023   5.659   0.253  0.00  0.00     0.012 C 
ENDBRANCH   7  42
BRANCH  29  44
HETATM   44  C   UNK N   1       5.762   1.538   0.210  0.00  0.00     0.004 C 
HETATM   45  C   UNK N   1       5.680   2.865   0.086  0.00  0.00     0.012 C 
ENDBRANCH  29  44
TORSDOF 10
