REMARK  8 active torsions:
REMARK  status: ('A' for Active; 'I' for Inactive)
REMARK    1  A    between atoms: C_2  and  C_3 
REMARK    2  A    between atoms: C_3  and  C_4 
REMARK    3  A    between atoms: C_4  and  C_5 
REMARK    4  A    between atoms: C_5  and  C_6 
REMARK    5  A    between atoms: C_6  and  P_7 
REMARK    6  A    between atoms: P_7  and  O_8 
REMARK    7  A    between atoms: P_7  and  O_10 
REMARK    8  A    between atoms: O_10  and  C_11 
ROOT
HETATM    1  P   UNK N   1       6.939   2.071   0.354  0.00  0.00     0.237 P 
HETATM    2  O   UNK N   1       6.275   3.457   0.518  0.00  0.00    -0.653 OA
ENDROOT
BRANCH   1   3
HETATM    3  C   UNK N   1       6.047   0.835  -0.742  0.00  0.00     0.125 C 
BRANCH   3   4
HETATM    4  C   UNK N   1       4.661   1.334  -1.139  0.00  0.00     0.012 C 
BRANCH   4   5
HETATM    5  C   UNK N   1       3.564   1.009  -0.139  0.00  0.00     0.001 C 
BRANCH   5   6
HETATM    6  C   UNK N   1       2.397   1.942  -0.426  0.00  0.00    -0.000 C 
BRANCH   6   7
HETATM    7  C   UNK N   1       1.171   1.557   0.376  0.00  0.00    -0.005 C 
HETATM    8  C   UNK N   1       0.104   2.619   0.191  0.00  0.00     0.005 C 
ENDBRANCH   6   7
ENDBRANCH   5   6
ENDBRANCH   4   5
ENDBRANCH   3   4
ENDBRANCH   1   3
BRANCH   1   9
HETATM    9  O   UNK N   1       6.692   1.426   1.933  0.00  0.00    -0.329 OA
HETATM   10  H   UNK N   1       6.309   1.365   2.822  0.00  0.00     0.220 HD
ENDBRANCH   1   9
BRANCH   1  11
HETATM   11  O   UNK N   1       8.684   2.257   0.391  0.00  0.00    -0.319 OA
BRANCH  11  12
HETATM   12  C   UNK N   1       9.083   2.856  -0.803  0.00  0.00     0.173 C 
HETATM   13  C   UNK N   1      10.229   3.813  -0.514  0.00  0.00     0.034 C 
ENDBRANCH  11  12
ENDBRANCH   1  11
TORSDOF 8
