REMARK  4 active torsions:
REMARK  status: ('A' for Active; 'I' for Inactive)
REMARK    1  A    between atoms: C_2  and  C_15 
REMARK    2  A    between atoms: C_8  and  C_18 
REMARK    3  A    between atoms: C_15  and  O_16 
REMARK    4  A    between atoms: O_17  and  C_18 
ROOT
HETATM    1  C   UNK N   1       3.212  -0.515   0.000  0.00  0.00     0.021 A 
HETATM    2  C   UNK N   1       2.235   0.505   0.000  0.00  0.00     0.072 A 
HETATM    3  C   UNK N   1       0.901   0.109   0.000  0.00  0.00     0.104 A 
HETATM    4  C   UNK N   1       0.526  -1.216   0.000  0.00  0.00     0.012 A 
HETATM    5  C   UNK N   1       1.466  -2.243   0.000  0.00  0.00     0.015 A 
HETATM    6  C   UNK N   1       2.828  -1.878   0.000  0.00  0.00     0.002 A 
HETATM    7  O   UNK N   1      -0.162   0.884   0.000  0.00  0.00    -0.307 OA
HETATM    8  C   UNK N   1      -2.560   0.506  -0.000  0.00  0.00     0.072 A 
HETATM    9  C   UNK N   1      -1.223   0.110  -0.000  0.00  0.00     0.104 A 
HETATM   10  C   UNK N   1      -0.850  -1.216  -0.000  0.00  0.00     0.012 A 
HETATM   11  C   UNK N   1      -1.791  -2.241  -0.000  0.00  0.00     0.015 A 
HETATM   12  C   UNK N   1      -3.152  -1.876  -0.000  0.00  0.00     0.002 A 
HETATM   13  C   UNK N   1      -3.535  -0.512  -0.000  0.00  0.00     0.021 A 
ENDROOT
BRANCH   2  14
HETATM   14  C   UNK N   1       2.611   1.937   0.000  0.00  0.00     0.179 C 
HETATM   15  O   UNK N   1       3.785   2.266   0.000  0.00  0.00    -0.646 OA
BRANCH  14  16
HETATM   16  O   UNK N   1       1.658   2.892   0.000  0.00  0.00    -0.773 OA
HETATM   17  H   UNK N   1       1.901   3.796   0.000  0.00  0.00     0.167 HD
ENDBRANCH  14  16
ENDBRANCH   2  14
BRANCH   8  18
HETATM   18  C   UNK N   1      -2.939   1.937  -0.000  0.00  0.00     0.179 C 
HETATM   19  O   UNK N   1      -2.081   2.806  -0.000  0.00  0.00    -0.646 OA
BRANCH  18  20
HETATM   20  O   UNK N   1      -4.238   2.292  -0.000  0.00  0.00    -0.773 OA
HETATM   21  H   UNK N   1      -4.476   3.199  -0.000  0.00  0.00     0.167 HD
ENDBRANCH  18  20
ENDBRANCH   8  18
TORSDOF 4
