REMARK  3 active torsions:
REMARK  status: ('A' for Active; 'I' for Inactive)
REMARK    1  A    between atoms: C_2  and  O_3 
REMARK    2  A    between atoms: C_2  and  C_6 
REMARK    3  A    between atoms: O_3  and  C_4 
ROOT
HETATM    1  C   UNK N   1      -0.420  -0.661   0.000  0.00  0.00     0.086 A 
HETATM    2  C   UNK N   1      -0.970  -1.926  -0.000  0.00  0.00     0.040 A 
HETATM    3  C   UNK N   1      -0.239  -3.224  -0.000  0.00  0.00     0.071 C 
HETATM    4  C   UNK N   1      -1.507   0.190   0.000  0.00  0.00     0.040 A 
HETATM    5  C   UNK N   1      -1.486   1.680   0.000  0.00  0.00     0.071 C 
HETATM    6  N   UNK N   1      -2.639  -0.539   0.000  0.00  0.00    -0.304 N 
HETATM    7  N   UNK N   1      -2.313  -1.825   0.000  0.00  0.00    -0.304 N 
ATOM      8  HN  UNK N   1      -2.969  -2.606   0.000  1.00  0.00     0.186 HD
HETATM    9  H   UNK N   1      -3.555  -0.179   0.000  0.00  0.00     0.186 HD
ENDROOT
BRANCH   1  10
HETATM   10  C   UNK N   1       1.009  -0.288  -0.000  0.00  0.00     0.297 C 
HETATM   11  O   UNK N   1       1.871  -1.156  -0.000  0.00  0.00    -0.259 OA
BRANCH  10  12
HETATM   12  O   UNK N   1       1.350   1.022  -0.000  0.00  0.00    -0.318 OA
BRANCH  12  13
HETATM   13  C   UNK N   1       2.651   1.458  -0.000  0.00  0.00     0.174 C 
HETATM   14  C   UNK N   1       2.659   2.971   0.000  0.00  0.00     0.034 C 
ENDBRANCH  12  13
ENDBRANCH  10  12
ENDBRANCH   1  10
TORSDOF 3
