REMARK  9 active torsions:
REMARK  status: ('A' for Active; 'I' for Inactive)
REMARK    1  A    between atoms: C_1  and  C_3 
REMARK    2  A    between atoms: C_1  and  O_12 
REMARK    3  A    between atoms: C_3  and  C_4 
REMARK    4  A    between atoms: C_4  and  C_5 
REMARK    5  A    between atoms: C_5  and  C_6 
REMARK    6  A    between atoms: C_6  and  C_7 
REMARK    7  A    between atoms: C_7  and  C_8 
REMARK    8  A    between atoms: C_8  and  C_9 
REMARK    9  A    between atoms: C_9  and  C_10 
ROOT
HETATM    1  C   UNK N   1      -1.198   0.655  -0.000  0.00  0.00     0.001 C 
ENDROOT
BRANCH   1   2
HETATM    2  C   UNK N   1      -2.434  -0.211   0.002  0.00  0.00     0.010 C 
BRANCH   2   3
HETATM    3  C   UNK N   1      -3.685   0.644   0.000  0.00  0.00     0.110 C 
BRANCH   3   4
HETATM    4  C   UNK N   1      -4.917  -0.210  -0.000  0.00  0.00     0.139 C 
HETATM    5  O   UNK N   1      -6.014   0.319  -0.001  0.00  0.00    -0.650 OA
BRANCH   4   6
HETATM    6  O   UNK N   1      -4.826  -1.556   0.000  0.00  0.00    -0.776 OA
HETATM    7  H   UNK N   1      -5.604  -2.078   0.001  0.00  0.00     0.167 HD
ENDBRANCH   4   6
ENDBRANCH   3   4
ENDBRANCH   2   3
ENDBRANCH   1   2
BRANCH   1   8
HETATM    8  C   UNK N   1       0.003  -0.260  -0.001  0.00  0.00     0.000 C 
BRANCH   8   9
HETATM    9  C   UNK N   1       1.265   0.565  -0.001  0.00  0.00     0.000 C 
BRANCH   9  10
HETATM   10  C   UNK N   1       2.462  -0.357  -0.000  0.00  0.00     0.000 C 
BRANCH  10  11
HETATM   11  C   UNK N   1       3.714   0.487   0.000  0.00  0.00    -0.000 C 
BRANCH  11  12
HETATM   12  C   UNK N   1       4.935  -0.404  -0.000  0.00  0.00    -0.005 C 
HETATM   13  C   UNK N   1       6.174   0.465   0.000  0.00  0.00     0.005 C 
ENDBRANCH  11  12
ENDBRANCH  10  11
ENDBRANCH   9  10
ENDBRANCH   8   9
ENDBRANCH   1   8
TORSDOF 9
