REMARK  10 active torsions:
REMARK  status: ('A' for Active; 'I' for Inactive)
REMARK    1  A    between atoms: C_1  and  O_7 
REMARK    2  A    between atoms: C_2  and  O_8 
REMARK    3  A    between atoms: C_4  and  O_9 
REMARK    4  A    between atoms: C_5  and  C_6 
REMARK    5  A    between atoms: C_6  and  O_11 
REMARK    6  A    between atoms: O_7  and  C_12 
REMARK    7  A    between atoms: C_12  and  C_13 
REMARK    8  A    between atoms: C_13  and  C_14 
REMARK    9  A    between atoms: C_14  and  C_15 
REMARK   10  A    between atoms: C_15  and  C_16 
ROOT
HETATM    1  C   UNK N   1      -0.804   0.343  -0.160  0.00  0.00     0.288 C 
HETATM    2  C   UNK N   1      -0.753  -1.217  -0.274  0.00  0.00     0.175 C 
HETATM    3  C   UNK N   1      -1.874  -1.829   0.555  0.00  0.00     0.071 C 
HETATM    4  C   UNK N   1      -3.207  -1.228   0.156  0.00  0.00     0.151 C 
HETATM    5  C   UNK N   1      -3.113   0.297   0.297  0.00  0.00     0.177 C 
HETATM    6  O   UNK N   1      -2.090   0.802  -0.551  0.00  0.00    -0.349 OA
ENDROOT
BRANCH   1   7
HETATM    7  O   UNK N   1       0.127   1.016  -1.005  0.00  0.00    -0.359 OA
BRANCH   7   8
HETATM    8  C   UNK N   1       1.426   0.492  -0.893  0.00  0.00     0.171 C 
BRANCH   8   9
HETATM    9  C   UNK N   1       2.193   1.123   0.254  0.00  0.00     0.026 C 
BRANCH   9  10
HETATM   10  C   UNK N   1       2.865   0.011   1.043  0.00  0.00     0.002 C 
BRANCH  10  11
HETATM   11  C   UNK N   1       4.365   0.229   1.160  0.00  0.00    -0.000 C 
BRANCH  11  12
HETATM   12  C   UNK N   1       5.076  -0.155  -0.126  0.00  0.00    -0.005 C 
HETATM   13  C   UNK N   1       5.364   1.087  -0.945  0.00  0.00     0.005 C 
ENDBRANCH  11  12
ENDBRANCH  10  11
ENDBRANCH   9  10
ENDBRANCH   8   9
ENDBRANCH   7   8
ENDBRANCH   1   7
BRANCH   2  14
HETATM   14  O   UNK N   1       0.447  -1.738   0.209  0.00  0.00    -0.391 OA
HETATM   15  H   UNK N   1       0.551  -2.642   0.545  0.00  0.00     0.210 HD
ENDBRANCH   2  14
BRANCH   5  16
HETATM   16  C   UNK N   1      -4.442   0.920  -0.112  0.00  0.00     0.198 C 
BRANCH  16  17
HETATM   17  O   UNK N   1      -4.411   2.303   0.070  0.00  0.00    -0.398 OA
HETATM   18  H   UNK N   1      -3.568   2.765   0.196  0.00  0.00     0.209 HD
ENDBRANCH  16  17
ENDBRANCH   5  16
BRANCH   4  19
HETATM   19  O   UNK N   1      -4.205  -1.737   0.991  0.00  0.00    -0.393 OA
HETATM   20  H   UNK N   1      -4.858  -1.314   1.571  0.00  0.00     0.210 HD
ENDBRANCH   4  19
TORSDOF 10
