REMARK  2 active torsions:
REMARK  status: ('A' for Active; 'I' for Inactive)
REMARK    1  A    between atoms: C_1  and  N_2 
REMARK       I    between atoms: C_8  and  N_9 
REMARK    2  A    between atoms: C_12  and  O_13 
ROOT
HETATM    1  C   UNK N   1      -2.109  -0.510   0.000  0.00  0.00     0.026 A 
HETATM    2  C   UNK N   1      -2.137   0.890  -0.000  0.00  0.00     0.031 A 
HETATM    3  C   UNK N   1      -0.941   1.617  -0.000  0.00  0.00     0.033 A 
HETATM    4  C   UNK N   1       0.284   0.943  -0.000  0.00  0.00     0.063 A 
HETATM    5  N   UNK N   1       1.452   1.637  -0.000  0.00  0.00    -0.191 N 
ATOM      6  HN  UNK N   1       1.432   2.657  -0.000  1.00  0.00     0.184 HD
HETATM    7  C   UNK N   1       2.647   0.986  -0.000  0.00  0.00     0.678 A 
HETATM    8  N   UNK N   1       3.847   1.722   0.000  0.00  0.00    -0.234 N 
HETATM    9  N   UNK N   1       2.687  -0.374  -0.000  0.00  0.00    -0.170 N 
ATOM     10  HN  UNK N   1       3.590  -0.849   0.000  1.00  0.00     0.186 HD
HETATM   11  C   UNK N   1       1.546  -1.111  -0.000  0.00  0.00     0.168 A 
HETATM   12  C   UNK N   1       0.309  -0.465  -0.000  0.00  0.00     0.045 A 
HETATM   13  C   UNK N   1      -0.889  -1.186   0.000  0.00  0.00     0.047 A 
HETATM   14  H   UNK N   1       4.712   1.252   0.000  0.00  0.00     0.174 HD
HETATM   15  H   UNK N   1       3.821   2.706   0.000  0.00  0.00     0.174 HD
ENDROOT
BRANCH   1  16
HETATM   16  N   UNK N   1      -3.312  -1.242   0.000  0.00  0.00    -0.399 N 
HETATM   17  H   UNK N   1      -4.176  -0.769   0.000  0.00  0.00     0.156 HD
HETATM   18  H   UNK N   1      -3.290  -2.226   0.000  0.00  0.00     0.156 HD
ENDBRANCH   1  16
BRANCH  11  19
HETATM   19  O   UNK N   1       1.617  -2.454  -0.000  0.00  0.00    -0.345 OA
HETATM   20  H   UNK N   1       0.832  -2.965   0.000  0.00  0.00     0.219 HD
ENDBRANCH  11  19
TORSDOF 2
