REMARK  1 active torsions:
REMARK  status: ('A' for Active; 'I' for Inactive)
REMARK    1  A    between atoms: C_16  and  N_17 
ROOT
HETATM    1  C   UNK N   1      -2.733   0.553  -0.000  0.00  0.00     0.058 A 
HETATM    2  C   UNK N   1      -1.342   0.606  -0.000  0.00  0.00    -0.025 A 
HETATM    3  C   UNK N   1      -0.669   1.948  -0.000  0.00  0.00     0.045 A 
HETATM    4  C   UNK N   1       0.866   1.957  -0.000  0.00  0.00     0.044 A 
HETATM    5  C   UNK N   1       1.558   0.623   0.000  0.00  0.00    -0.045 A 
HETATM    6  C   UNK N   1       2.957   0.599   0.000  0.00  0.00     0.008 A 
HETATM    7  C   UNK N   1       3.644  -0.617   0.000  0.00  0.00     0.001 A 
HETATM    8  C   UNK N   1       2.936  -1.820   0.000  0.00  0.00     0.001 A 
HETATM    9  C   UNK N   1       1.542  -1.806   0.000  0.00  0.00     0.014 A 
HETATM   10  C   UNK N   1       0.845  -0.589  -0.000  0.00  0.00    -0.001 A 
HETATM   11  C   UNK N   1      -0.621  -0.595  -0.000  0.00  0.00     0.065 A 
HETATM   12  N   UNK N   1      -1.295  -1.778  -0.000  0.00  0.00    -0.298 N 
ATOM     13  HN  UNK N   1      -0.767  -2.651  -0.000  1.00  0.00     0.187 HD
HETATM   14  N   UNK N   1      -2.628  -1.823  -0.000  0.00  0.00    -0.285 N 
ATOM     15  HN  UNK N   1      -3.099  -2.727  -0.000  1.00  0.00     0.188 HD
HETATM   16  C   UNK N   1      -3.368  -0.686  -0.000  0.00  0.00     0.113 A 
ENDROOT
BRANCH  16  17
HETATM   17  N   UNK N   1      -4.774  -0.760   0.000  0.00  0.00    -0.384 N 
HETATM   18  H   UNK N   1      -5.310   0.066   0.000  0.00  0.00     0.157 HD
HETATM   19  H   UNK N   1      -5.220  -1.637   0.000  0.00  0.00     0.157 HD
ENDBRANCH  16  17
TORSDOF 1
