REMARK  12 active torsions:
REMARK  status: ('A' for Active; 'I' for Inactive)
REMARK    1  A    between atoms: C_3  and  O_1 
REMARK    2  A    between atoms: C_2  and  C_3 
REMARK    3  A    between atoms: C_2  and  C_16 
REMARK    4  A    between atoms: C_3  and  C_4 
REMARK       I    between atoms: C_4  and  N_6 
REMARK    5  A    between atoms: C_7  and  N_6 
REMARK    6  A    between atoms: C_7  and  C_8 
REMARK    7  A    between atoms: C_7  and  C_19 
REMARK       I    between atoms: C_8  and  N_10 
REMARK    8  A    between atoms: N_10  and  C_11 
REMARK    9  A    between atoms: C_11  and  C_12 
REMARK   10  A    between atoms: C_12  and  C_13 
REMARK   11  A    between atoms: C_16  and  O_18 
REMARK   12  A    between atoms: C_19  and  C_20 
ROOT
HETATM    1  C   UNK N   1       0.132  -0.093   0.046  0.00  0.00     0.177 C 
ENDROOT
BRANCH   1   2
HETATM    2  N   UNK N   1       1.488  -0.351  -0.381  0.00  0.00    -0.346 N 
HETATM    3  C   UNK N   1       2.596  -0.032   0.325  0.00  0.00     0.247 C 
HETATM    4  O   UNK N   1       2.531   0.747   1.270  0.00  0.00    -0.271 OA
HETATM    5  H   UNK N   1       1.615  -0.792  -1.252  0.00  0.00     0.163 HD
BRANCH   3   6
HETATM    6  C   UNK N   1       3.893  -0.676  -0.060  0.00  0.00     0.219 C 
BRANCH   6   7
HETATM    7  O   UNK N   1       3.783  -2.055   0.147  0.00  0.00    -0.386 OA
HETATM    8  H   UNK N   1       2.917  -2.467   0.291  0.00  0.00     0.210 HD
ENDBRANCH   6   7
BRANCH   6   9
HETATM    9  C   UNK N   1       5.067  -0.142   0.754  0.00  0.00     0.151 C 
BRANCH   9  10
HETATM   10  C   UNK N   1       6.334  -0.165  -0.040  0.00  0.00     0.142 C 
HETATM   11  O   UNK N   1       6.938   0.876  -0.236  0.00  0.00    -0.650 OA
BRANCH  10  12
HETATM   12  O   UNK N   1       6.790  -1.316  -0.571  0.00  0.00    -0.776 OA
HETATM   13  H   UNK N   1       6.255  -1.991  -0.940  0.00  0.00     0.167 HD
ENDBRANCH  10  12
ENDBRANCH   9  10
ENDBRANCH   6   9
ENDBRANCH   3   6
ENDBRANCH   1   2
BRANCH   1  14
HETATM   14  C   UNK N   1      -0.650  -1.384  -0.111  0.00  0.00     0.240 C 
HETATM   15  O   UNK N   1      -0.111  -2.357  -0.630  0.00  0.00    -0.271 OA
HETATM   16  N   UNK N   1      -1.926  -1.506   0.317  0.00  0.00    -0.359 N 
HETATM   17  H   UNK N   1      -2.401  -2.354   0.159  0.00  0.00     0.162 HD
BRANCH  16  18
HETATM   18  C   UNK N   1      -2.616  -0.440   0.996  0.00  0.00     0.123 C 
BRANCH  18  19
HETATM   19  C   UNK N   1      -3.706   0.112   0.098  0.00  0.00     0.023 C 
BRANCH  19  20
HETATM   20  C   UNK N   1      -5.039  -0.569   0.346  0.00  0.00    -0.021 C 
HETATM   21  C   UNK N   1      -6.110   0.189  -0.405  0.00  0.00     0.009 C 
HETATM   22  C   UNK N   1      -5.018  -2.007  -0.140  0.00  0.00     0.009 C 
ENDBRANCH  19  20
ENDBRANCH  18  19
ENDBRANCH  16  18
ENDBRANCH   1  14
BRANCH   1  23
HETATM   23  C   UNK N   1      -0.490   1.015  -0.814  0.00  0.00     0.038 C 
BRANCH  23  24
HETATM   24  C   UNK N   1      -0.358   2.388  -0.162  0.00  0.00    -0.020 C 
HETATM   25  C   UNK N   1      -1.603   2.681   0.656  0.00  0.00     0.009 C 
HETATM   26  C   UNK N   1      -0.213   3.459  -1.221  0.00  0.00     0.009 C 
ENDBRANCH  23  24
ENDBRANCH   1  23
TORSDOF 12
