REMARK  2 active torsions:
REMARK  status: ('A' for Active; 'I' for Inactive)
REMARK    1  A    between atoms: C_1  and  C_2 
REMARK    2  A    between atoms: C_1  and  N_3 
ROOT
HETATM    1  C   UNK N   1      -1.506  -0.293   0.000  0.00  0.00     0.051 A 
HETATM    2  S   UNK N   1      -0.639  -1.726  -0.000  0.00  0.00    -0.068 SA
HETATM    3  C   UNK N   1       0.876  -1.074  -0.000  0.00  0.00     0.085 A 
HETATM    4  C   UNK N   1       0.755   0.307  -0.000  0.00  0.00    -0.001 A 
HETATM    5  C   UNK N   1      -0.585   0.769   0.000  0.00  0.00     0.037 A 
HETATM    6  N   UNK N   1       2.074  -1.706  -0.000  0.00  0.00    -0.360 N 
ATOM      7  HN  UNK N   1       2.125  -2.724  -0.000  1.00  0.00     0.166 HD
HETATM    8  C   UNK N   1       3.215  -0.953  -0.000  0.00  0.00     0.089 A 
HETATM    9  C   UNK N   1       3.146   0.457  -0.000  0.00  0.00     0.018 A 
HETATM   10  C   UNK N   1       1.896   1.098   0.000  0.00  0.00     0.015 A 
ENDROOT
BRANCH   1  11
HETATM   11  C   UNK N   1      -2.965  -0.142   0.000  0.00  0.00     0.109 C 
HETATM   12  N   UNK N   1      -3.725  -1.174   0.000  0.00  0.00    -0.385 N 
HETATM   13  H   UNK N   1      -4.704  -1.064  -0.000  0.00  0.00     0.157 HD
HETATM   14  H   UNK N   1      -3.331  -2.076   0.000  0.00  0.00     0.157 HD
BRANCH  11  15
HETATM   15  N   UNK N   1      -3.537   1.150   0.000  0.00  0.00    -0.385 N 
HETATM   16  H   UNK N   1      -2.957   1.945   0.000  0.00  0.00     0.157 HD
HETATM   17  H   UNK N   1      -4.516   1.255   0.000  0.00  0.00     0.157 HD
ENDBRANCH  11  15
ENDBRANCH   1  11
TORSDOF 2
