REMARK  13 active torsions:
REMARK  status: ('A' for Active; 'I' for Inactive)
REMARK    1  A    between atoms: C_1  and  C_2 
REMARK    2  A    between atoms: C_1  and  C_6 
REMARK    3  A    between atoms: C_2  and  C_3 
REMARK    4  A    between atoms: C_3  and  C_4 
REMARK    5  A    between atoms: C_4  and  C_13 
REMARK    6  A    between atoms: C_5  and  C_9 
REMARK    7  A    between atoms: C_5  and  P_21 
REMARK    8  A    between atoms: C_12  and  C_16 
REMARK    9  A    between atoms: C_12  and  P_27 
REMARK   10  A    between atoms: P_21  and  O_23 
REMARK   11  A    between atoms: P_21  and  O_24 
REMARK   12  A    between atoms: P_27  and  O_29 
REMARK   13  A    between atoms: P_27  and  O_30 
ROOT
HETATM    1  C   UNK N   1      -0.244  -0.910  -0.278  0.00  0.00     0.005 C 
ENDROOT
BRANCH   1   2
HETATM    2  C   UNK N   1      -1.316  -0.955  -1.363  0.00  0.00     0.038 C 
BRANCH   2   3
HETATM    3  C   UNK N   1      -2.527  -0.237  -0.878  0.00  0.00    -0.058 A 
HETATM    4  C   UNK N   1      -3.408  -0.854   0.014  0.00  0.00     0.008 A 
HETATM    5  C   UNK N   1      -4.456  -0.118   0.578  0.00  0.00     0.014 A 
HETATM    6  C   UNK N   1      -4.605   1.243   0.269  0.00  0.00     0.025 A 
HETATM    7  C   UNK N   1      -3.721   1.848  -0.633  0.00  0.00     0.014 A 
HETATM    8  C   UNK N   1      -2.689   1.109  -1.208  0.00  0.00     0.008 A 
BRANCH   6   9
HETATM    9  C   UNK N   1      -5.668   2.071   0.934  0.00  0.00     0.364 C 
HETATM   10  F   UNK N   1      -6.445   1.293   1.777  0.00  0.00    -0.187 F 
HETATM   11  F   UNK N   1      -5.058   3.061   1.682  0.00  0.00    -0.187 F 
BRANCH   9  12
HETATM   12  P   UNK N   1      -6.768   2.872  -0.337  0.00  0.00     0.315 P 
HETATM   13  O   UNK N   1      -7.839   3.753   0.360  0.00  0.00    -0.649 OA
BRANCH  12  14
HETATM   14  O   UNK N   1      -7.685   1.778  -1.323  0.00  0.00    -0.325 OA
HETATM   15  H   UNK N   1      -8.471   1.916  -1.874  0.00  0.00     0.220 HD
ENDBRANCH  12  14
BRANCH  12  16
HETATM   16  O   UNK N   1      -5.956   3.970  -1.410  0.00  0.00    -0.325 OA
HETATM   17  H   UNK N   1      -5.198   3.883  -2.009  0.00  0.00     0.220 HD
ENDBRANCH  12  16
ENDBRANCH   9  12
ENDBRANCH   6   9
ENDBRANCH   2   3
ENDBRANCH   1   2
BRANCH   1  18
HETATM   18  C   UNK N   1       0.117   0.538   0.067  0.00  0.00     0.005 C 
BRANCH  18  19
HETATM   19  C   UNK N   1       1.090   0.602   1.231  0.00  0.00     0.038 C 
BRANCH  19  20
HETATM   20  C   UNK N   1       2.414   0.095   0.790  0.00  0.00    -0.058 A 
HETATM   21  C   UNK N   1       3.154   0.788  -0.175  0.00  0.00     0.008 A 
HETATM   22  C   UNK N   1       4.356   0.257  -0.644  0.00  0.00     0.014 A 
HETATM   23  C   UNK N   1       4.822  -0.974  -0.161  0.00  0.00     0.025 A 
HETATM   24  C   UNK N   1       4.079  -1.651   0.820  0.00  0.00     0.014 A 
HETATM   25  C   UNK N   1       2.882  -1.118   1.294  0.00  0.00     0.008 A 
BRANCH  23  26
HETATM   26  C   UNK N   1       6.092  -1.552  -0.733  0.00  0.00     0.364 C 
HETATM   27  F   UNK N   1       5.938  -1.685  -2.101  0.00  0.00    -0.187 F 
HETATM   28  F   UNK N   1       7.139  -0.685  -0.483  0.00  0.00    -0.187 F 
BRANCH  26  29
HETATM   29  P   UNK N   1       6.526  -3.236  -0.037  0.00  0.00     0.315 P 
HETATM   30  O   UNK N   1       6.757  -3.157   1.496  0.00  0.00    -0.649 OA
BRANCH  29  31
HETATM   31  O   UNK N   1       5.284  -4.435  -0.220  0.00  0.00    -0.325 OA
HETATM   32  H   UNK N   1       4.357  -4.170  -0.323  0.00  0.00     0.220 HD
ENDBRANCH  29  31
BRANCH  29  33
HETATM   33  O   UNK N   1       7.990  -3.928  -0.656  0.00  0.00    -0.325 OA
HETATM   34  H   UNK N   1       8.065  -4.831  -1.003  0.00  0.00     0.220 HD
ENDBRANCH  29  33
ENDBRANCH  26  29
ENDBRANCH  23  26
ENDBRANCH  19  20
ENDBRANCH  18  19
ENDBRANCH   1  18
TORSDOF 13
