REMARK  9 active torsions:
REMARK  status: ('A' for Active; 'I' for Inactive)
REMARK    1  A    between atoms: C_3  and  C_4 
REMARK    2  A    between atoms: C_5  and  C_6 
REMARK    3  A    between atoms: C_6  and  O_7 
REMARK    4  A    between atoms: C_6  and  C_8 
REMARK    5  A    between atoms: C_8  and  N_9 
REMARK    6  A    between atoms: C_8  and  C_10 
REMARK    7  A    between atoms: C_10  and  O_11 
REMARK    8  A    between atoms: C_21  and  C_22 
REMARK    9  A    between atoms: C_23  and  O_24 
ROOT
HETATM    1  F   UNK N   1       4.010   2.159  -0.316  0.00  0.00    -0.205 F 
HETATM    2  C   UNK N   1       2.846   2.836  -0.139  0.00  0.00     0.136 A 
HETATM    3  C   UNK N   1       1.618   2.151  -0.123  0.00  0.00     0.070 A 
HETATM    4  C   UNK N   1       0.449   2.867   0.063  0.00  0.00     0.028 A 
HETATM    5  C   UNK N   1       0.462   4.222   0.256  0.00  0.00     0.048 A 
HETATM    6  N   UNK N   1      -0.844   4.714   0.475  0.00  0.00    -0.322 N 
HETATM    7  C   UNK N   1      -1.686   3.652   0.404  0.00  0.00     0.257 A 
HETATM    8  O   UNK N   1      -2.885   3.736   0.607  0.00  0.00    -0.267 OA
HETATM    9  C   UNK N   1       1.659   4.944   0.259  0.00  0.00     0.033 A 
HETATM   10  C   UNK N   1       2.863   4.236   0.049  0.00  0.00     0.046 A 
HETATM   11  C   UNK N   1      -0.941   2.418   0.127  0.00  0.00     0.048 A 
HETATM   12  C   UNK N   1      -1.338   1.138  -0.004  0.00  0.00     0.050 C 
HETATM   13  H   UNK N   1      -1.096   5.650   0.646  0.00  0.00     0.169 HD
ENDROOT
BRANCH   3  14
HETATM   14  C   UNK N   1       1.534   0.745  -0.248  0.00  0.00    -0.060 C 
HETATM   15  C   UNK N   1       1.374  -0.431  -0.347  0.00  0.00    -0.067 C 
BRANCH  15  16
HETATM   16  C   UNK N   1       1.333  -1.867  -0.473  0.00  0.00     0.221 C 
BRANCH  16  17
HETATM   17  O   UNK N   1       1.042  -2.139  -1.810  0.00  0.00    -0.381 OA
HETATM   18  H   UNK N   1       0.777  -2.058  -2.740  0.00  0.00     0.211 HD
ENDBRANCH  16  17
BRANCH  16  19
HETATM   19  C   UNK N   1       2.712  -2.413  -0.084  0.00  0.00     0.143 C 
BRANCH  19  20
HETATM   20  N   UNK N   1       3.770  -1.645  -0.735  0.00  0.00    -0.421 N 
HETATM   21  H   UNK N   1       4.604  -2.016  -1.190  0.00  0.00     0.150 HD
HETATM   22  H   UNK N   1       3.664  -0.630  -0.735  0.00  0.00     0.150 HD
ENDBRANCH  19  20
BRANCH  19  23
HETATM   23  C   UNK N   1       2.869  -3.878  -0.472  0.00  0.00     0.139 C 
HETATM   24  C   UNK N   1       1.822  -4.755   0.194  0.00  0.00     0.041 C 
BRANCH  23  25
HETATM   25  O   UNK N   1       4.138  -4.322  -0.102  0.00  0.00    -0.394 OA
HETATM   26  H   UNK N   1       4.312  -5.241   0.156  0.00  0.00     0.210 HD
ENDBRANCH  23  25
ENDBRANCH  19  23
ENDBRANCH  16  19
ENDBRANCH  15  16
ENDBRANCH   3  14
BRANCH  12  27
HETATM   27  C   UNK N   1      -2.701   0.584  -0.018  0.00  0.00     0.066 A 
HETATM   28  C   UNK N   1      -3.017  -0.740   0.199  0.00  0.00     0.096 A 
HETATM   29  C   UNK N   1      -4.369  -0.882   0.029  0.00  0.00     0.056 A 
HETATM   30  C   UNK N   1      -4.838   0.388  -0.274  0.00  0.00     0.091 A 
HETATM   31  N   UNK N   1      -3.815   1.274  -0.306  0.00  0.00    -0.364 N 
HETATM   32  H   UNK N   1      -3.877   2.236  -0.503  0.00  0.00     0.165 HD
BRANCH  28  33
HETATM   33  O   UNK N   1      -2.194  -1.739   0.575  0.00  0.00    -0.354 OA
HETATM   34  C   UNK N   1      -1.327  -1.565   1.627  0.00  0.00     0.210 C 
ENDBRANCH  28  33
ENDBRANCH  12  27
TORSDOF 9
