REMARK  7 active torsions:
REMARK  status: ('A' for Active; 'I' for Inactive)
REMARK    1  A    between atoms: C_10  and  N_2 
REMARK    2  A    between atoms: C_6  and  C_7 
REMARK       I    between atoms: C_7  and  N_9 
REMARK    3  A    between atoms: C_10  and  C_11 
REMARK    4  A    between atoms: C_10  and  C_13 
REMARK    5  A    between atoms: C_11  and  O_12 
REMARK    6  A    between atoms: C_13  and  C_14 
REMARK    7  A    between atoms: C_14  and  C_15 
ROOT
HETATM    1  C   UNK N   1      -0.909   0.632   0.236  0.00  0.00     0.114 C 
ENDROOT
BRANCH   1   2
HETATM    2  N   UNK N   1      -2.125  -0.178   0.064  0.00  0.00    -0.344 N 
HETATM    3  C   UNK N   1      -3.394   0.244   0.200  0.00  0.00     0.127 A 
HETATM    4  C   UNK N   1      -4.209  -0.827  -0.078  0.00  0.00     0.117 A 
HETATM    5  N   UNK N   1      -3.460  -1.904  -0.381  0.00  0.00    -0.347 N 
HETATM    6  C   UNK N   1      -2.182  -1.480  -0.292  0.00  0.00     0.183 A 
ATOM      7  HN  UNK N   1      -3.788  -2.839  -0.624  1.00  0.00     0.167 HD
BRANCH   4   8
HETATM    8  C   UNK N   1      -5.677  -0.802  -0.074  0.00  0.00     0.267 C 
HETATM    9  O   UNK N   1      -6.308  -1.815  -0.334  0.00  0.00    -0.266 OA
HETATM   10  N   UNK N   1      -6.334   0.343   0.198  0.00  0.00    -0.365 N 
HETATM   11  H   UNK N   1      -5.850   1.176   0.398  0.00  0.00     0.159 HD
HETATM   12  H   UNK N   1      -7.318   0.345   0.198  0.00  0.00     0.159 HD
ENDBRANCH   4   8
ENDBRANCH   1   2
BRANCH   1  13
HETATM   13  C   UNK N   1      -1.273   2.071   0.619  0.00  0.00     0.189 C 
BRANCH  13  14
HETATM   14  O   UNK N   1      -0.140   2.884   0.663  0.00  0.00    -0.399 OA
HETATM   15  H   UNK N   1       0.743   2.484   0.694  0.00  0.00     0.209 HD
ENDBRANCH  13  14
ENDBRANCH   1  13
BRANCH   1  16
HETATM   16  C   UNK N   1      -0.015   0.042   1.330  0.00  0.00     0.032 C 
BRANCH  16  17
HETATM   17  C   UNK N   1       0.575  -1.306   0.925  0.00  0.00     0.041 C 
BRANCH  17  18
HETATM   18  C   UNK N   1       1.951  -1.351   0.292  0.00  0.00    -0.047 A 
HETATM   19  C   UNK N   1       2.393  -2.623  -0.092  0.00  0.00     0.008 A 
HETATM   20  C   UNK N   1       3.651  -2.812  -0.663  0.00  0.00     0.001 A 
HETATM   21  C   UNK N   1       4.501  -1.727  -0.857  0.00  0.00     0.012 A 
HETATM   22  C   UNK N   1       4.096  -0.445  -0.489  0.00  0.00    -0.025 A 
HETATM   23  C   UNK N   1       2.814  -0.235   0.087  0.00  0.00    -0.020 A 
HETATM   24  C   UNK N   1       4.966   0.631  -0.687  0.00  0.00     0.012 A 
HETATM   25  C   UNK N   1       2.450   1.072   0.442  0.00  0.00     0.013 A 
HETATM   26  C   UNK N   1       3.322   2.143   0.236  0.00  0.00     0.001 A 
HETATM   27  C   UNK N   1       4.580   1.923  -0.325  0.00  0.00     0.001 A 
ENDBRANCH  17  18
ENDBRANCH  16  17
ENDBRANCH   1  16
TORSDOF 7
