REMARK  7 active torsions:
REMARK  status: ('A' for Active; 'I' for Inactive)
REMARK    1  A    between atoms: C_10  and  N_2 
REMARK    2  A    between atoms: C_6  and  C_7 
REMARK       I    between atoms: C_7  and  N_9 
REMARK    3  A    between atoms: C_10  and  C_11 
REMARK    4  A    between atoms: C_10  and  C_13 
REMARK    5  A    between atoms: C_11  and  O_12 
REMARK    6  A    between atoms: C_13  and  C_14 
REMARK    7  A    between atoms: C_14  and  C_15 
ROOT
HETATM    1  C   UNK N   1      -0.278   1.104   0.728  0.00  0.00     0.118 C 
ENDROOT
BRANCH   1   2
HETATM    2  N   UNK N   1      -1.267   0.098   0.298  0.00  0.00    -0.343 N 
HETATM    3  C   UNK N   1      -2.594   0.304   0.201  0.00  0.00     0.127 A 
HETATM    4  C   UNK N   1      -3.168  -0.891  -0.163  0.00  0.00     0.117 A 
HETATM    5  N   UNK N   1      -2.214  -1.835  -0.287  0.00  0.00    -0.347 N 
HETATM    6  C   UNK N   1      -1.056  -1.205   0.001  0.00  0.00     0.183 A 
ATOM      7  HN  UNK N   1      -2.339  -2.815  -0.543  1.00  0.00     0.167 HD
BRANCH   4   8
HETATM    8  C   UNK N   1      -4.605  -1.129  -0.375  0.00  0.00     0.267 C 
HETATM    9  O   UNK N   1      -5.009  -2.249  -0.638  0.00  0.00    -0.266 OA
HETATM   10  N   UNK N   1      -5.482  -0.109  -0.276  0.00  0.00    -0.365 N 
HETATM   11  H   UNK N   1      -5.158   0.818  -0.204  0.00  0.00     0.159 HD
HETATM   12  H   UNK N   1      -6.450  -0.292  -0.276  0.00  0.00     0.159 HD
ENDBRANCH   4   8
ENDBRANCH   1   2
BRANCH   1  13
HETATM   13  C   UNK N   1      -0.298   2.360  -0.174  0.00  0.00     0.137 C 
HETATM   14  C   UNK N   1       0.688   3.403   0.331  0.00  0.00     0.041 C 
BRANCH  13  15
HETATM   15  O   UNK N   1      -1.570   2.937  -0.175  0.00  0.00    -0.394 OA
HETATM   16  H   UNK N   1      -1.665   3.902  -0.175  0.00  0.00     0.210 HD
ENDBRANCH  13  15
ENDBRANCH   1  13
BRANCH   1  17
HETATM   17  C   UNK N   1       1.140   0.517   0.838  0.00  0.00     0.033 C 
BRANCH  17  18
HETATM   18  C   UNK N   1       1.762   0.102  -0.491  0.00  0.00     0.042 C 
BRANCH  18  19
HETATM   19  C   UNK N   1       3.114  -0.472  -0.220  0.00  0.00    -0.035 A 
HETATM   20  C   UNK N   1       4.167   0.381   0.135  0.00  0.00     0.009 A 
HETATM   21  C   UNK N   1       5.427  -0.142   0.432  0.00  0.00     0.002 A 
HETATM   22  C   UNK N   1       5.637  -1.522   0.387  0.00  0.00     0.026 A 
HETATM   23  C   UNK N   1       4.595  -2.383   0.034  0.00  0.00     0.056 A 
HETATM   24  C   UNK N   1       3.326  -1.861  -0.280  0.00  0.00     0.062 A 
HETATM   25 Cl   UNK N   1       4.897  -4.113   0.012  0.00  0.00    -0.083 Cl
HETATM   26 Cl   UNK N   1       2.003  -2.943  -0.719  0.00  0.00    -0.082 Cl
ENDBRANCH  18  19
ENDBRANCH  17  18
ENDBRANCH   1  17
TORSDOF 7
