REMARK  8 active torsions:
REMARK  status: ('A' for Active; 'I' for Inactive)
REMARK    1  A    between atoms: N_1  and  C_2 
REMARK    2  A    between atoms: C_2  and  C_3 
REMARK    3  A    between atoms: C_3  and  C_4 
REMARK    4  A    between atoms: C_4  and  C_5 
REMARK    5  A    between atoms: C_5  and  C_6 
REMARK    6  A    between atoms: C_6  and  C_7 
REMARK    7  A    between atoms: C_7  and  C_8 
REMARK    8  A    between atoms: C_8  and  N_9 
REMARK       I    between atoms: N_9  and  C_10 
REMARK       I    between atoms: C_10  and  N_11 
REMARK       I    between atoms: C_10  and  N_12 
ROOT
HETATM    1  C   UNK N   1       2.224  -0.318  -0.225  0.00  0.00     0.117 C 
ENDROOT
BRANCH   1   2
HETATM    2  C   UNK N   1       1.020   0.538   0.105  0.00  0.00     0.019 C 
BRANCH   2   3
HETATM    3  C   UNK N   1      -0.236  -0.286  -0.083  0.00  0.00     0.002 C 
BRANCH   3   4
HETATM    4  C   UNK N   1      -1.453   0.602   0.054  0.00  0.00     0.000 C 
BRANCH   4   5
HETATM    5  C   UNK N   1      -2.705  -0.244  -0.025  0.00  0.00     0.002 C 
BRANCH   5   6
HETATM    6  C   UNK N   1      -3.921   0.657   0.019  0.00  0.00     0.019 C 
BRANCH   6   7
HETATM    7  C   UNK N   1      -5.178  -0.186  -0.012  0.00  0.00     0.111 C 
BRANCH   7   8
HETATM    8  N   UNK N   1      -6.341   0.683   0.003  0.00  0.00    -0.430 N 
HETATM    9  H   UNK N   1      -6.220   1.696   0.014  0.00  0.00     0.149 HD
HETATM   10  H   UNK N   1      -7.278   0.281   0.003  0.00  0.00     0.149 HD
ENDBRANCH   7   8
ENDBRANCH   6   7
ENDBRANCH   5   6
ENDBRANCH   4   5
ENDBRANCH   3   4
ENDBRANCH   2   3
ENDBRANCH   1   2
BRANCH   1  11
HETATM   11  N   UNK N   1       3.437   0.335   0.246  0.00  0.00    -0.387 N 
HETATM   12  C   UNK N   1       4.579  -0.374  -0.318  0.00  0.00     0.270 C 
HETATM   13  N   UNK N   1       5.795   0.358  -0.007  0.00  0.00    -0.396 N 
HETATM   14  N   UNK N   1       4.672  -1.711   0.243  0.00  0.00    -0.396 N 
HETATM   15  H   UNK N   1       6.667  -0.124   0.210  0.00  0.00     0.153 HD
HETATM   16  H   UNK N   1       5.777   1.378  -0.007  0.00  0.00     0.153 HD
HETATM   17  H   UNK N   1       3.892  -2.237   0.636  0.00  0.00     0.153 HD
HETATM   18  H   UNK N   1       5.589  -2.158   0.243  0.00  0.00     0.153 HD
HETATM   19  H   UNK N   1       3.480   1.146   0.862  0.00  0.00     0.157 HD
ENDBRANCH   1  11
TORSDOF 8
