REMARK  4 active torsions:
REMARK  status: ('A' for Active; 'I' for Inactive)
REMARK    1  A    between atoms: N_3  and  C_4 
REMARK    2  A    between atoms: C_4  and  C_5 
REMARK    3  A    between atoms: C_8  and  N_11 
REMARK       I    between atoms: N_11  and  C_12 
REMARK       I    between atoms: C_12  and  N_14 
REMARK    4  A    between atoms: N_14  and  C_15 
ROOT
HETATM    1  C   UNK N   1       1.596   3.688  -0.000  0.00  0.00     0.007 A 
HETATM    2  C   UNK N   1       2.726   2.853  -0.000  0.00  0.00     0.017 A 
HETATM    3  C   UNK N   1       2.577   1.458  -0.000  0.00  0.00     0.030 A 
HETATM    4  C   UNK N   1       1.298   0.886  -0.000  0.00  0.00     0.036 A 
HETATM    5  C   UNK N   1       0.178   1.732  -0.000  0.00  0.00     0.030 A 
HETATM    6  C   UNK N   1       0.322   3.114  -0.000  0.00  0.00     0.017 A 
ENDROOT
BRANCH   4   7
HETATM    7  N   UNK N   1       1.160  -0.539  -0.000  0.00  0.00    -0.309 N 
HETATM    8  C   UNK N   1      -0.034  -1.198   0.000  0.00  0.00     0.325 C 
HETATM    9  O   UNK N   1      -1.083  -0.571   0.000  0.00  0.00    -0.247 OA
HETATM   10  N   UNK N   1      -0.052  -2.561  -0.000  0.00  0.00    -0.309 N 
HETATM   11  H   UNK N   1       0.813  -3.030  -0.000  0.00  0.00     0.170 HD
HETATM   12  H   UNK N   1       1.983  -1.079  -0.000  0.00  0.00     0.170 HD
BRANCH  10  13
HETATM   13  C   UNK N   1      -1.241  -3.357  -0.000  0.00  0.00     0.036 A 
HETATM   14  C   UNK N   1      -1.132  -4.753  -0.000  0.00  0.00     0.031 A 
HETATM   15  C   UNK N   1      -2.284  -5.551  -0.000  0.00  0.00     0.026 A 
HETATM   16  C   UNK N   1      -3.551  -4.956  -0.000  0.00  0.00     0.034 A 
HETATM   17  C   UNK N   1      -3.668  -3.568  -0.000  0.00  0.00     0.026 A 
HETATM   18 Cl   UNK N   1      -4.995  -5.945  -0.000  0.00  0.00    -0.084 Cl
HETATM   19  C   UNK N   1      -2.522  -2.776  -0.000  0.00  0.00     0.031 A 
ENDBRANCH  10  13
ENDBRANCH   4   7
BRANCH   1  20
HETATM   20  C   UNK N   1       1.738   5.160  -0.000  0.00  0.00     0.102 C 
HETATM   21  N   UNK N   1       0.697   5.911  -0.000  0.00  0.00    -0.385 N 
HETATM   22  H   UNK N   1       0.796   6.891  -0.000  0.00  0.00     0.157 HD
ATOM     23  HN  UNK N   1      -0.234   5.493  -0.000  1.00  0.00     0.157 HD
BRANCH  20  24
HETATM   24  N   UNK N   1       3.020   5.753   0.000  0.00  0.00    -0.385 N 
HETATM   25  H   UNK N   1       3.825   5.186   0.000  0.00  0.00     0.157 HD
HETATM   26  H   UNK N   1       3.108   6.734   0.000  0.00  0.00     0.157 HD
ENDBRANCH  20  24
ENDBRANCH   1  20
TORSDOF 4
