REMARK  6 active torsions:
REMARK  status: ('A' for Active; 'I' for Inactive)
REMARK    1  A    between atoms: C_1  and  N_2 
REMARK       I    between atoms: C_6  and  N_22 
REMARK    2  A    between atoms: C_7  and  N_14 
REMARK    3  A    between atoms: N_14  and  C_15 
REMARK    4  A    between atoms: C_15  and  C_21 
REMARK    5  A    between atoms: C_23  and  N_22 
REMARK    6  A    between atoms: C_24  and  N_29 
ROOT
HETATM    1  N   UNK N   1      -2.785   1.803  -0.162  0.00  0.00    -0.322 N 
HETATM    2  C   UNK N   1      -1.526   1.385   0.051  0.00  0.00     0.155 A 
HETATM    3  N   UNK N   1      -0.396   2.132   0.126  0.00  0.00    -0.174 N 
ATOM      4  HN  UNK N   1      -0.441   3.150   0.095  1.00  0.00     0.186 HD
HETATM    5  C   UNK N   1       0.805   1.486   0.245  0.00  0.00     0.681 A 
HETATM    6  C   UNK N   1      -0.295  -0.639   0.229  0.00  0.00     0.148 A 
HETATM    7  N   UNK N   1       0.846   0.111   0.304  0.00  0.00    -0.175 N 
ATOM      8  HN  UNK N   1       1.746  -0.358   0.406  1.00  0.00     0.186 HD
HETATM    9  C   UNK N   1      -1.500   0.041   0.094  0.00  0.00     0.123 A 
HETATM   10  N   UNK N   1      -2.749  -0.442  -0.062  0.00  0.00    -0.346 N 
ATOM     11  HN  UNK N   1      -3.046  -1.417  -0.056  1.00  0.00     0.167 HD
HETATM   12  C   UNK N   1      -3.522   0.664  -0.228  0.00  0.00     0.185 A 
HETATM   13  N   UNK N   1       2.000   2.254   0.161  0.00  0.00    -0.221 N 
HETATM   14  H   UNK N   1       1.966   3.168   0.526  0.00  0.00     0.178 HD
ENDROOT
BRANCH  13  15
HETATM   15  C   UNK N   1       3.269   1.823  -0.410  0.00  0.00     0.099 C 
HETATM   16  C   UNK N   1       4.401   2.036   0.606  0.00  0.00     0.028 C 
HETATM   17  C   UNK N   1       5.627   1.240   0.173  0.00  0.00     0.026 C 
HETATM   18  C   UNK N   1       5.334  -0.265   0.291  0.00  0.00     0.074 C 
HETATM   19  C   UNK N   1       3.866  -0.611  -0.019  0.00  0.00     0.026 C 
HETATM   20  C   UNK N   1       3.263   0.391  -1.002  0.00  0.00     0.028 C 
BRANCH  18  21
HETATM   21  N   UNK N   1       6.210  -0.994  -0.608  0.00  0.00    -0.426 N 
HETATM   22  H   UNK N   1       6.073  -1.783  -1.240  0.00  0.00     0.150 HD
HETATM   23  H   UNK N   1       7.167  -0.642  -0.608  0.00  0.00     0.150 HD
ENDBRANCH  18  21
ENDBRANCH  13  15
BRANCH   6  24
HETATM   24  N   UNK N   1      -0.215  -2.053   0.167  0.00  0.00    -0.370 N 
HETATM   25  H   UNK N   1       0.481  -2.531   0.674  0.00  0.00     0.161 HD
BRANCH  24  26
HETATM   26  C   UNK N   1      -1.158  -2.792  -0.640  0.00  0.00     0.160 C 
BRANCH  26  27
HETATM   27  C   UNK N   1      -1.266  -4.220  -0.246  0.00  0.00    -0.041 A 
HETATM   28  C   UNK N   1      -0.141  -5.053  -0.223  0.00  0.00     0.009 A 
HETATM   29  C   UNK N   1      -0.284  -6.408   0.093  0.00  0.00     0.001 A 
HETATM   30  C   UNK N   1      -1.551  -6.933   0.369  0.00  0.00     0.000 A 
HETATM   31  C   UNK N   1      -2.675  -6.103   0.336  0.00  0.00     0.001 A 
HETATM   32  C   UNK N   1      -2.532  -4.749   0.027  0.00  0.00     0.009 A 
ENDBRANCH  26  27
ENDBRANCH  24  26
ENDBRANCH   6  24
BRANCH   1  33
HETATM   33  C   UNK N   1      -3.312   3.150  -0.401  0.00  0.00     0.092 C 
HETATM   34  C   UNK N   1      -4.490   3.487   0.474  0.00  0.00     0.026 C 
HETATM   35  C   UNK N   1      -4.614   4.988   0.314  0.00  0.00     0.002 C 
HETATM   36  C   UNK N   1      -3.205   5.498   0.031  0.00  0.00     0.002 C 
HETATM   37  C   UNK N   1      -2.329   4.270  -0.147  0.00  0.00     0.026 C 
ENDBRANCH   1  33
TORSDOF 6
