REMARK  0 active torsions:
REMARK  status: ('A' for Active; 'I' for Inactive)
ROOT
HETATM    1  I   UNK N   1      -3.992  -1.804  -0.000  0.00  0.00    -0.045 I 
HETATM    2  C   UNK N   1      -1.045   1.427   0.000  0.00  0.00     0.009 A 
HETATM    3  C   UNK N   1      -2.241   0.704   0.000  0.00  0.00     0.019 A 
HETATM    4  C   UNK N   1      -2.208  -0.691  -0.000  0.00  0.00     0.007 A 
HETATM    5  C   UNK N   1      -0.984  -1.358  -0.000  0.00  0.00     0.027 A 
HETATM    6  C   UNK N   1       0.218  -0.639  -0.000  0.00  0.00    -0.033 A 
HETATM    7  C   UNK N   1       0.185   0.757   0.000  0.00  0.00    -0.049 A 
HETATM    8  C   UNK N   1       1.489  -1.414  -0.000  0.00  0.00     0.153 A 
HETATM    9  C   UNK N   1       2.757   0.807  -0.000  0.00  0.00     0.118 A 
HETATM   10  C   UNK N   1       1.430   1.564   0.000  0.00  0.00     0.058 A 
HETATM   11  N   UNK N   1       2.750  -0.663   0.000  0.00  0.00    -0.417 N 
HETATM   12  H   UNK N   1       3.636  -1.169   0.000  0.00  0.00     0.153 HD
ENDROOT
TORSDOF 0
