REMARK  5 active torsions:
REMARK  status: ('A' for Active; 'I' for Inactive)
REMARK    1  A    between atoms: C_2  and  N_1 
REMARK       I    between atoms: N_1  and  C_13 
REMARK    2  A    between atoms: C_2  and  C_3 
REMARK    3  A    between atoms: C_2  and  C_6 
REMARK    4  A    between atoms: C_3  and  O_12 
REMARK    5  A    between atoms: C_5  and  C_6 
REMARK       I    between atoms: C_13  and  N_14 
ROOT
HETATM    1  C   UNK N   1       1.009   0.369  -0.038  0.00  0.00     0.188 C 
ENDROOT
BRANCH   1   2
HETATM    2  N   UNK N   1       2.179   1.139   0.344  0.00  0.00    -0.329 N 
HETATM    3  C   UNK N   1       3.429   0.948  -0.152  0.00  0.00     0.314 C 
HETATM    4  N   UNK N   1       4.441   1.723   0.279  0.00  0.00    -0.352 N 
HETATM    5  O   UNK N   1       3.647   0.075  -0.981  0.00  0.00    -0.248 OA
HETATM    6  H   UNK N   1       5.302   1.365   0.594  0.00  0.00     0.160 HD
HETATM    7  H   UNK N   1       4.313   2.699   0.279  0.00  0.00     0.160 HD
HETATM    8  H   UNK N   1       2.058   1.853   1.011  0.00  0.00     0.165 HD
ENDBRANCH   1   2
BRANCH   1   9
HETATM    9  C   UNK N   1       1.182  -1.093   0.337  0.00  0.00     0.163 C 
HETATM   10  O   UNK N   1       0.341  -1.915   0.017  0.00  0.00    -0.648 OA
BRANCH   9  11
HETATM   11  O   UNK N   1       2.274  -1.503   1.013  0.00  0.00    -0.775 OA
HETATM   12  H   UNK N   1       2.407  -2.303   1.483  0.00  0.00     0.167 HD
ENDBRANCH   9  11
ENDBRANCH   1   9
BRANCH   1  13
HETATM   13  C   UNK N   1      -0.174   0.992   0.720  0.00  0.00     0.074 C 
BRANCH  13  14
HETATM   14  C   UNK N   1      -1.577   0.712   0.260  0.00  0.00    -0.056 A 
HETATM   15  C   UNK N   1      -2.092  -0.590   0.218  0.00  0.00     0.007 A 
HETATM   16  C   UNK N   1      -3.430  -0.811  -0.121  0.00  0.00     0.001 A 
HETATM   17  C   UNK N   1      -4.269   0.272  -0.398  0.00  0.00     0.000 A 
HETATM   18  C   UNK N   1      -3.766   1.575  -0.345  0.00  0.00     0.001 A 
HETATM   19  C   UNK N   1      -2.424   1.793  -0.014  0.00  0.00     0.007 A 
ENDBRANCH  13  14
ENDBRANCH   1  13
TORSDOF 5
