REMARK  5 active torsions:
REMARK  status: ('A' for Active; 'I' for Inactive)
REMARK    1  A    between atoms: P_1  and  O_2 
REMARK    2  A    between atoms: P_1  and  C_4 
REMARK    3  A    between atoms: C_4  and  N_5 
REMARK       I    between atoms: N_5  and  C_6 
REMARK    4  A    between atoms: C_6  and  C_8 
REMARK    5  A    between atoms: C_8  and  C_9 
ROOT
HETATM    1  N   UNK N   1      -1.824  -0.322  -0.801  0.00  0.00    -0.352 N 
HETATM    2  C   UNK N   1      -0.836  -0.728   0.035  0.00  0.00     0.222 C 
HETATM    3  O   UNK N   1      -1.007  -1.679   0.781  0.00  0.00    -0.273 OA
HETATM    4  H   UNK N   1      -1.666   0.436  -1.409  0.00  0.00     0.163 HD
ENDROOT
BRANCH   2   5
HETATM    5  C   UNK N   1       0.430   0.075   0.118  0.00  0.00     0.141 C 
BRANCH   5   6
HETATM    6  C   UNK N   1       1.727  -0.680   0.022  0.00  0.00    -0.049 A 
HETATM    7  C   UNK N   1       2.917   0.050   0.113  0.00  0.00     0.009 A 
HETATM    8  C   UNK N   1       4.153  -0.600   0.065  0.00  0.00     0.019 A 
HETATM    9  C   UNK N   1       4.207  -1.988  -0.072  0.00  0.00     0.006 A 
HETATM   10  I   UNK N   1       6.074  -2.957  -0.128  0.00  0.00    -0.045 I 
HETATM   11  C   UNK N   1       3.024  -2.728  -0.166  0.00  0.00     0.019 A 
HETATM   12  C   UNK N   1       1.785  -2.077  -0.119  0.00  0.00     0.009 A 
ENDBRANCH   5   6
ENDBRANCH   2   5
BRANCH   1  13
HETATM   13  C   UNK N   1      -3.105  -0.987  -0.812  0.00  0.00     0.213 C 
BRANCH  13  14
HETATM   14  P   UNK N   1      -4.440   0.151  -0.164  0.00  0.00     0.107 P 
HETATM   15  O   UNK N   1      -3.607   1.084   0.756  0.00  0.00    -0.675 OA
HETATM   16  H   UNK N   1      -5.446   1.027  -0.743  0.00  0.00     0.122 HD
BRANCH  14  17
HETATM   17  O   UNK N   1      -5.115  -0.807   1.115  0.00  0.00    -0.350 OA
HETATM   18  H   UNK N   1      -5.767  -0.748   1.831  0.00  0.00     0.217 HD
ENDBRANCH  14  17
ENDBRANCH  13  14
ENDBRANCH   1  13
TORSDOF 5
