REMARK  5 active torsions:
REMARK  status: ('A' for Active; 'I' for Inactive)
REMARK    1  A    between atoms: C_2  and  C_7 
REMARK    2  A    between atoms: C_7  and  C_9 
REMARK    3  A    between atoms: C_12  and  C_15 
REMARK    4  A    between atoms: C_15  and  C_17 
REMARK    5  A    between atoms: C_17  and  O_19 
ROOT
HETATM    1  C   UNK N   1       0.842   0.304   0.420  0.00  0.00     0.015 A 
HETATM    2  C   UNK N   1       1.656  -0.829   0.268  0.00  0.00     0.016 A 
HETATM    3  C   UNK N   1       1.081  -2.096   0.105  0.00  0.00     0.009 A 
HETATM    4  C   UNK N   1      -0.315  -2.250   0.110  0.00  0.00    -0.044 A 
HETATM    5  C   UNK N   1      -1.121  -1.121   0.308  0.00  0.00     0.009 A 
HETATM    6  C   UNK N   1      -0.548   0.139   0.450  0.00  0.00     0.016 A 
ENDROOT
BRANCH   1   7
HETATM    7  C   UNK N   1       1.450   1.661   0.483  0.00  0.00     0.199 C 
HETATM    8  O   UNK N   1       2.666   1.766   0.582  0.00  0.00    -0.286 OA
BRANCH   7   9
HETATM    9  C   UNK N   1       0.636   2.896   0.340  0.00  0.00     0.057 A 
HETATM   10  S   UNK N   1       1.224   4.444   0.269  0.00  0.00    -0.080 SA
HETATM   11  C   UNK N   1      -0.194   5.257  -0.002  0.00  0.00     0.047 A 
HETATM   12  C   UNK N   1      -1.216   4.308  -0.048  0.00  0.00     0.027 A 
HETATM   13  I   UNK N   1      -0.410   7.329  -0.276  0.00  0.00    -0.036 I 
HETATM   14  C   UNK N   1      -0.750   2.978   0.141  0.00  0.00     0.025 A 
ENDBRANCH   7   9
ENDBRANCH   1   7
BRANCH   4  15
HETATM   15  C   UNK N   1      -0.924  -3.617  -0.121  0.00  0.00     0.112 C 
HETATM   16  C   UNK N   1      -0.534  -4.118  -1.504  0.00  0.00     0.026 C 
BRANCH  15  17
HETATM   17  C   UNK N   1      -2.431  -3.632  -0.014  0.00  0.00     0.148 C 
HETATM   18  O   UNK N   1      -2.977  -4.330   0.826  0.00  0.00    -0.649 OA
BRANCH  17  19
HETATM   19  O   UNK N   1      -3.183  -2.879  -0.842  0.00  0.00    -0.776 OA
HETATM   20  H   UNK N   1      -2.991  -2.165  -1.418  0.00  0.00     0.167 HD
ENDBRANCH  17  19
ENDBRANCH  15  17
ENDBRANCH   4  15
TORSDOF 5
