REMARK  5 active torsions:
REMARK  status: ('A' for Active; 'I' for Inactive)
REMARK    1  A    between atoms: C_1  and  N_2 
REMARK    2  A    between atoms: C_1  and  C_3 
REMARK    3  A    between atoms: C_5  and  C_16 
REMARK       I    between atoms: C_9  and  N_10 
REMARK    4  A    between atoms: C_16  and  S_17 
REMARK    5  A    between atoms: S_17  and  C_18 
ROOT
HETATM    1  C   UNK N   1      -1.215  -2.895  -0.120  0.00  0.00    -0.039 A 
HETATM    2  C   UNK N   1      -1.493  -1.541  -0.297  0.00  0.00     0.019 A 
HETATM    3  C   UNK N   1      -0.462  -0.600  -0.342  0.00  0.00    -0.020 A 
HETATM    4  C   UNK N   1       0.873  -1.013  -0.207  0.00  0.00     0.072 A 
HETATM    5  N   UNK N   1       1.889  -0.107  -0.238  0.00  0.00    -0.190 N 
ATOM      6  HN  UNK N   1       1.675   0.882  -0.370  1.00  0.00     0.184 HD
HETATM    7  C   UNK N   1       3.183  -0.497  -0.096  0.00  0.00     0.679 A 
HETATM    8  N   UNK N   1       4.213   0.463  -0.126  0.00  0.00    -0.234 N 
HETATM    9  N   UNK N   1       3.486  -1.810   0.079  0.00  0.00    -0.156 N 
HETATM   10  C   UNK N   1       2.502  -2.763   0.118  0.00  0.00     0.272 A 
HETATM   11  O   UNK N   1       2.802  -3.934   0.278  0.00  0.00    -0.267 OA
HETATM   12  C   UNK N   1       1.163  -2.380  -0.024  0.00  0.00     0.061 A 
HETATM   13  C   UNK N   1       0.117  -3.316   0.017  0.00  0.00     0.028 A 
HETATM   14  H   UNK N   1       5.154   0.175  -0.147  0.00  0.00     0.174 HD
HETATM   15  H   UNK N   1       3.992   1.422  -0.126  0.00  0.00     0.174 HD
HETATM   16  H   UNK N   1       4.427  -2.081   0.180  0.00  0.00     0.187 HD
ENDROOT
BRANCH   3  17
HETATM   17  C   UNK N   1      -0.809   0.831  -0.528  0.00  0.00     0.120 C 
BRANCH  17  18
HETATM   18  S   UNK N   1      -1.555   1.482   0.995  0.00  0.00    -0.125 SA
BRANCH  18  19
HETATM   19  C   UNK N   1      -1.122   3.138   0.508  0.00  0.00     0.000 A 
HETATM   20  C   UNK N   1      -2.112   3.992   0.016  0.00  0.00     0.018 A 
HETATM   21  C   UNK N   1      -1.772   5.276  -0.415  0.00  0.00     0.001 A 
HETATM   22  C   UNK N   1      -0.441   5.702  -0.363  0.00  0.00     0.000 A 
HETATM   23  C   UNK N   1       0.550   4.846   0.129  0.00  0.00     0.001 A 
HETATM   24  C   UNK N   1       0.210   3.563   0.565  0.00  0.00     0.018 A 
ENDBRANCH  18  19
ENDBRANCH  17  18
ENDBRANCH   3  17
BRANCH   1  25
HETATM   25  C   UNK N   1      -2.365  -3.855  -0.076  0.00  0.00     0.150 C 
BRANCH  25  26
HETATM   26  N   UNK N   1      -1.927  -5.227   0.128  0.00  0.00    -0.426 N 
HETATM   27  H   UNK N   1      -2.607  -5.973   0.272  0.00  0.00     0.150 HD
HETATM   28  H   UNK N   1      -0.931  -5.444   0.128  0.00  0.00     0.150 HD
ENDBRANCH  25  26
ENDBRANCH   1  25
TORSDOF 5
