REMARK  3 active torsions:
REMARK  status: ('A' for Active; 'I' for Inactive)
REMARK    1  A    between atoms: C_3  and  C_7 
REMARK       I    between atoms: N_10  and  C_14 
REMARK    2  A    between atoms: C_11  and  C_13 
REMARK    3  A    between atoms: C_20  and  O_23 
ROOT
HETATM    1  C   UNK N   1       1.575  -0.430   0.072  0.00  0.00     0.040 A 
HETATM    2  N   UNK N   1       1.165  -1.558  -0.346  0.00  0.00    -0.298 N 
ATOM      3  HN  UNK N   1       1.749  -2.229  -0.845  1.00  0.00     0.187 HD
HETATM    4  N   UNK N   1      -0.147  -1.763  -0.048  0.00  0.00    -0.252 N 
HETATM    5  C   UNK N   1      -0.708  -0.655   0.722  0.00  0.00     0.150 A 
HETATM    6  C   UNK N   1       0.486   0.343   0.758  0.00  0.00     0.091 A 
HETATM    7  C   UNK N   1      -0.742  -2.960  -0.334  0.00  0.00     0.234 C 
HETATM    8  C   UNK N   1      -2.122  -3.293   0.116  0.00  0.00     0.119 C 
HETATM    9  O   UNK N   1      -0.118  -3.812  -0.950  0.00  0.00    -0.272 OA
ENDROOT
BRANCH   5  10
HETATM   10  C   UNK N   1      -1.971   0.011   0.180  0.00  0.00    -0.030 A 
HETATM   11  C   UNK N   1      -3.198  -0.665   0.216  0.00  0.00     0.009 A 
HETATM   12  C   UNK N   1      -4.382  -0.029  -0.167  0.00  0.00     0.003 A 
HETATM   13  C   UNK N   1      -4.357   1.304  -0.577  0.00  0.00     0.036 A 
HETATM   14  C   UNK N   1      -3.147   1.998  -0.610  0.00  0.00     0.066 A 
HETATM   15  C   UNK N   1      -1.962   1.359  -0.230  0.00  0.00     0.045 A 
BRANCH  14  16
HETATM   16  O   UNK N   1      -3.123   3.284  -0.995  0.00  0.00    -0.361 OA
HETATM   17  H   UNK N   1      -2.338   3.719  -1.263  0.00  0.00     0.217 HD
ENDBRANCH  14  16
ENDBRANCH   5  10
BRANCH   1  18
HETATM   18  C   UNK N   1       3.004  -0.022  -0.007  0.00  0.00     0.010 A 
HETATM   19  C   UNK N   1       3.969  -1.026  -0.197  0.00  0.00     0.015 A 
HETATM   20  C   UNK N   1       5.331  -0.719  -0.209  0.00  0.00     0.001 A 
HETATM   21  C   UNK N   1       5.749   0.601  -0.046  0.00  0.00     0.002 A 
HETATM   22  C   UNK N   1       4.806   1.615   0.116  0.00  0.00     0.025 A 
HETATM   23  C   UNK N   1       3.438   1.321   0.144  0.00  0.00     0.046 A 
HETATM   24 Cl   UNK N   1       2.326   2.672   0.312  0.00  0.00    -0.083 Cl
ENDBRANCH   1  18
TORSDOF 3
