REMARK  2 active torsions:
REMARK  status: ('A' for Active; 'I' for Inactive)
REMARK    1  A    between atoms: N_13  and  C_15 
REMARK    2  A    between atoms: C_17  and  O_18 
ROOT
HETATM    1  C   UNK N   1       2.981  -0.205   0.000  0.00  0.00     0.016 A 
HETATM    2  C   UNK N   1       1.892   0.661   0.000  0.00  0.00     0.023 A 
HETATM    3  C   UNK N   1       2.051   2.028   0.000  0.00  0.00     0.047 A 
HETATM    4  C   UNK N   1      -0.152   1.743   0.000  0.00  0.00     0.273 A 
HETATM    5  O   UNK N   1      -1.339   2.021   0.000  0.00  0.00    -0.266 OA
HETATM    6  C   UNK N   1       0.467   0.389   0.000  0.00  0.00     0.114 A 
HETATM    7  N   UNK N   1       0.807   2.693   0.000  0.00  0.00    -0.321 N 
HETATM    8  C   UNK N   1       4.267   0.361   0.000  0.00  0.00     0.001 A 
HETATM    9  C   UNK N   1       4.432   1.764  -0.000  0.00  0.00     0.002 A 
HETATM   10  C   UNK N   1       3.311   2.615  -0.000  0.00  0.00     0.030 A 
HETATM   11  N   UNK N   1      -0.023  -0.811   0.000  0.00  0.00    -0.351 N 
ATOM     12  HN  UNK N   1       0.666  -1.563   0.000  1.00  0.00     0.166 HD
HETATM   13  H   UNK N   1       0.665   3.667   0.000  0.00  0.00     0.169 HD
ENDROOT
BRANCH  11  14
HETATM   14  C   UNK N   1      -1.382  -1.234  -0.000  0.00  0.00     0.032 A 
HETATM   15  C   UNK N   1      -2.453  -0.336  -0.001  0.00  0.00     0.032 A 
HETATM   16  C   UNK N   1      -3.769  -0.792  -0.001  0.00  0.00     0.039 A 
HETATM   17  C   UNK N   1      -4.028  -2.162  -0.000  0.00  0.00     0.065 A 
HETATM   18  C   UNK N   1      -2.968  -3.073   0.001  0.00  0.00     0.039 A 
HETATM   19  C   UNK N   1      -1.650  -2.608   0.001  0.00  0.00     0.032 A 
BRANCH  17  20
HETATM   20  O   UNK N   1      -5.295  -2.602  -0.000  0.00  0.00    -0.361 OA
HETATM   21  H   UNK N   1      -6.004  -1.989  -0.000  0.00  0.00     0.217 HD
ENDBRANCH  17  20
ENDBRANCH  11  14
TORSDOF 2
