REMARK  1 active torsions:
REMARK  status: ('A' for Active; 'I' for Inactive)
REMARK    1  A    between atoms: C_6  and  C_7 
ROOT
HETATM    1  N   UNK N   1       1.775  -1.666  -0.034  0.00  0.00    -0.299 N 
HETATM    2  N   UNK N   1       0.676  -2.421  -0.013  0.00  0.00    -0.299 N 
ATOM      3  HN  UNK N   1       0.638  -3.439   0.037  1.00  0.00     0.187 HD
HETATM    4  C   UNK N   1      -0.373  -1.582  -0.072  0.00  0.00     0.067 A 
HETATM    5  C   UNK N   1       0.028  -0.316  -0.138  0.00  0.00     0.004 A 
HETATM    6  C   UNK N   1       1.396  -0.359  -0.104  0.00  0.00     0.067 A 
HETATM    7  C   UNK N   1      -1.105   0.673  -0.179  0.00  0.00     0.083 A 
HETATM    8  C   UNK N   1      -2.246  -0.330  -0.092  0.00  0.00    -0.041 A 
HETATM    9  C   UNK N   1      -1.794  -1.641  -0.033  0.00  0.00    -0.001 A 
HETATM   10  C   UNK N   1      -2.666  -2.718   0.083  0.00  0.00     0.014 A 
HETATM   11  C   UNK N   1      -4.044  -2.442   0.133  0.00  0.00     0.001 A 
HETATM   12  C   UNK N   1      -4.512  -1.112   0.070  0.00  0.00     0.001 A 
HETATM   13  C   UNK N   1      -3.607  -0.043  -0.043  0.00  0.00     0.008 A 
HETATM   14  H   UNK N   1       2.702  -1.996  -0.003  0.00  0.00     0.187 HD
ENDROOT
BRANCH   6  15
HETATM   15  C   UNK N   1       2.298   0.803  -0.080  0.00  0.00    -0.005 A 
HETATM   16  C   UNK N   1       1.768   2.097  -0.147  0.00  0.00     0.030 A 
HETATM   17  C   UNK N   1       2.619   3.198  -0.075  0.00  0.00     0.088 A 
HETATM   18  N   UNK N   1       3.958   3.014   0.067  0.00  0.00    -0.375 N 
HETATM   19  C   UNK N   1       4.500   1.767   0.134  0.00  0.00     0.088 A 
ATOM     20  HN  UNK N   1       4.570   3.828   0.125  1.00  0.00     0.164 HD
HETATM   21  C   UNK N   1       3.679   0.637   0.062  0.00  0.00     0.030 A 
ENDBRANCH   6  15
TORSDOF 1
