REMARK  14 active torsions:
REMARK  status: ('A' for Active; 'I' for Inactive)
REMARK    1  A    between atoms: C_1  and  C_2 
REMARK    2  A    between atoms: C_1  and  O_18 
REMARK    3  A    between atoms: C_2  and  C_3 
REMARK    4  A    between atoms: C_3  and  C_4 
REMARK    5  A    between atoms: C_4  and  C_5 
REMARK    6  A    between atoms: C_5  and  C_6 
REMARK    7  A    between atoms: C_6  and  C_7 
REMARK    8  A    between atoms: C_7  and  C_8 
REMARK    9  A    between atoms: C_8  and  C_9 
REMARK   10  A    between atoms: C_9  and  C_10 
REMARK   11  A    between atoms: C_10  and  C_11 
REMARK   12  A    between atoms: C_11  and  C_12 
REMARK   13  A    between atoms: C_12  and  C_13 
REMARK   14  A    between atoms: C_13  and  C_14 
ROOT
HETATM    1  C   UNK N   1      -1.759  -1.000  -0.000  0.00  0.00     0.000 C 
ENDROOT
BRANCH   1   2
HETATM    2  C   UNK N   1      -2.982  -0.125   0.000  0.00  0.00     0.007 C 
BRANCH   2   3
HETATM    3  C   UNK N   1      -4.265  -0.931   0.000  0.00  0.00     0.079 C 
BRANCH   3   4
HETATM    4  C   UNK N   1      -5.454  -0.014   0.000  0.00  0.00     0.136 C 
HETATM    5  O   UNK N   1      -5.296   1.199   0.000  0.00  0.00    -0.297 OA
BRANCH   4   6
HETATM    6  C   UNK N   1      -6.833  -0.617  -0.000  0.00  0.00     0.188 C 
BRANCH   6   7
HETATM    7  C   UNK N   1      -7.994   0.347  -0.000  0.00  0.00     0.146 C 
HETATM    8  O   UNK N   1      -9.130  -0.098  -0.000  0.00  0.00    -0.650 OA
BRANCH   7   9
HETATM    9  O   UNK N   1      -7.809   1.681   0.000  0.00  0.00    -0.776 OA
HETATM   10  H   UNK N   1      -6.941   2.034   0.000  0.00  0.00     0.167 HD
ENDBRANCH   7   9
ENDBRANCH   6   7
ENDBRANCH   4   6
ENDBRANCH   3   4
ENDBRANCH   2   3
ENDBRANCH   1   2
BRANCH   1  11
HETATM   11  C   UNK N   1      -0.584  -0.056  -0.000  0.00  0.00     0.000 C 
BRANCH  11  12
HETATM   12  C   UNK N   1       0.711  -0.818  -0.000  0.00  0.00     0.000 C 
BRANCH  12  13
HETATM   13  C   UNK N   1       1.834   0.189  -0.000  0.00  0.00     0.000 C 
BRANCH  13  14
HETATM   14  C   UNK N   1       3.145  -0.550   0.000  0.00  0.00     0.000 C 
BRANCH  14  15
HETATM   15  C   UNK N   1       4.280   0.443   0.000  0.00  0.00     0.000 C 
BRANCH  15  16
HETATM   16  C   UNK N   1       5.573  -0.335   0.000  0.00  0.00     0.000 C 
BRANCH  16  17
HETATM   17  C   UNK N   1       6.745   0.616  -0.000  0.00  0.00    -0.000 C 
BRANCH  17  18
HETATM   18  C   UNK N   1       8.020  -0.197  -0.000  0.00  0.00    -0.005 C 
HETATM   19  C   UNK N   1       9.211   0.734  -0.000  0.00  0.00     0.005 C 
ENDBRANCH  17  18
ENDBRANCH  16  17
ENDBRANCH  15  16
ENDBRANCH  14  15
ENDBRANCH  13  14
ENDBRANCH  12  13
ENDBRANCH  11  12
ENDBRANCH   1  11
TORSDOF 14
