REMARK  8 active torsions:
REMARK  status: ('A' for Active; 'I' for Inactive)
REMARK    1  A    between atoms: C_2  and  O_25 
REMARK    2  A    between atoms: C_3  and  O_24 
REMARK    3  A    between atoms: C_6  and  C_7 
REMARK    4  A    between atoms: C_8  and  C_7 
REMARK    5  A    between atoms: C_12  and  C_14 
REMARK    6  A    between atoms: C_14  and  C_15 
REMARK    7  A    between atoms: C_18  and  O_23 
REMARK    8  A    between atoms: C_19  and  O_21 
ROOT
HETATM    1  C   UNK N   1       1.401  -0.574   0.238  0.00  0.00     0.028 C 
HETATM    2  C   UNK N   1       2.444  -1.659  -0.110  0.00  0.00     0.184 C 
HETATM    3  O   UNK N   1       1.771  -2.501  -0.971  0.00  0.00    -0.321 OA
HETATM    4  C   UNK N   1       0.451  -2.337  -0.861  0.00  0.00     0.263 C 
HETATM    5  C   UNK N   1       0.090  -1.372   0.202  0.00  0.00     0.096 C 
HETATM    6  O   UNK N   1      -0.341  -2.834  -1.650  0.00  0.00    -0.265 OA
ENDROOT
BRANCH   1   7
HETATM    7  C   UNK N   1       1.468   0.499  -0.864  0.00  0.00     0.046 C 
BRANCH   7   8
HETATM    8  C   UNK N   1       2.516   1.524  -0.558  0.00  0.00    -0.055 A 
HETATM    9  C   UNK N   1       2.137   2.860  -0.421  0.00  0.00     0.046 A 
HETATM   10  C   UNK N   1       3.070   3.842  -0.075  0.00  0.00     0.101 A 
HETATM   11  C   UNK N   1       4.419   3.459   0.147  0.00  0.00     0.099 A 
HETATM   12  C   UNK N   1       4.795   2.121  -0.002  0.00  0.00     0.040 A 
HETATM   13  C   UNK N   1       3.851   1.157  -0.355  0.00  0.00     0.010 A 
BRANCH  10  14
HETATM   14  O   UNK N   1       2.624   5.121   0.037  0.00  0.00    -0.353 OA
HETATM   15  C   UNK N   1       3.401   6.211   0.352  0.00  0.00     0.210 C 
ENDBRANCH  10  14
BRANCH  11  16
HETATM   16  O   UNK N   1       5.355   4.356   0.502  0.00  0.00    -0.358 OA
HETATM   17  H   UNK N   1       6.223   4.103   0.749  0.00  0.00     0.217 HD
ENDBRANCH  11  16
ENDBRANCH   7   8
ENDBRANCH   1   7
BRANCH   5  18
HETATM   18  C   UNK N   1      -1.205  -0.564   0.011  0.00  0.00     0.053 C 
BRANCH  18  19
HETATM   19  C   UNK N   1      -2.466  -1.381   0.160  0.00  0.00    -0.054 A 
HETATM   20  C   UNK N   1      -2.421  -2.735   0.520  0.00  0.00     0.010 A 
HETATM   21  C   UNK N   1      -3.592  -3.477   0.640  0.00  0.00     0.040 A 
HETATM   22  C   UNK N   1      -4.830  -2.880   0.408  0.00  0.00     0.099 A 
HETATM   23  C   UNK N   1      -4.898  -1.507   0.054  0.00  0.00     0.101 A 
HETATM   24  C   UNK N   1      -3.706  -0.776  -0.066  0.00  0.00     0.046 A 
BRANCH  22  25
HETATM   25  O   UNK N   1      -5.936  -3.634   0.529  0.00  0.00    -0.358 OA
HETATM   26  H   UNK N   1      -6.777  -3.228   0.613  0.00  0.00     0.217 HD
ENDBRANCH  22  25
BRANCH  23  27
HETATM   27  O   UNK N   1      -6.067  -0.853  -0.180  0.00  0.00    -0.353 OA
HETATM   28  C   UNK N   1      -7.322  -1.411  -0.088  0.00  0.00     0.210 C 
ENDBRANCH  23  27
ENDBRANCH  18  19
ENDBRANCH   5  18
TORSDOF 8
