REMARK  3 active torsions:
REMARK  status: ('A' for Active; 'I' for Inactive)
REMARK    1  A    between atoms: S_1  and  C_2 
REMARK    2  A    between atoms: C_2  and  C_3 
REMARK    3  A    between atoms: C_3  and  C_4 
REMARK       I    between atoms: C_4  and  N_6 
ROOT
HETATM    1  C   UNK N   1       2.982   0.126   0.000  0.00  0.00     0.220 C 
HETATM    2  O   UNK N   1       3.830   1.011   0.000  0.00  0.00    -0.273 OA
HETATM    3  N   UNK N   1       1.653   0.445   0.000  0.00  0.00    -0.346 N 
HETATM    4  C   UNK N   1       1.268   1.864   0.000  0.00  0.00     0.131 A 
HETATM    5  C   UNK N   1      -0.233   2.227  -0.000  0.00  0.00     0.061 A 
HETATM    6  C   UNK N   1      -1.138   1.053   0.000  0.00  0.00    -0.020 A 
HETATM    7  C   UNK N   1      -0.717  -0.247   0.000  0.00  0.00     0.035 A 
HETATM    8  C   UNK N   1       0.697  -0.660   0.000  0.00  0.00     0.183 A 
HETATM    9  N   UNK N   1      -1.764  -1.105   0.000  0.00  0.00    -0.357 N 
HETATM   10  C   UNK N   1      -2.511   1.007  -0.000  0.00  0.00    -0.001 A 
HETATM   11  C   UNK N   1      -2.857  -0.320   0.000  0.00  0.00     0.043 A 
HETATM   12  C   UNK N   1      -4.183  -0.737  -0.000  0.00  0.00     0.030 A 
HETATM   13  C   UNK N   1      -3.471   2.015  -0.000  0.00  0.00     0.014 A 
HETATM   14  C   UNK N   1      -4.825   1.626  -0.000  0.00  0.00     0.001 A 
HETATM   15  C   UNK N   1      -5.179   0.256  -0.000  0.00  0.00     0.002 A 
HETATM   16  H   UNK N   1      -1.733  -2.089   0.000  0.00  0.00     0.166 HD
ENDROOT
BRANCH   1  17
HETATM   17  C   UNK N   1       3.407  -1.324   0.000  0.00  0.00     0.113 C 
BRANCH  17  18
HETATM   18  C   UNK N   1       4.905  -1.552  -0.000  0.00  0.00     0.080 C 
BRANCH  18  19
HETATM   19  S   UNK N   1       5.200  -3.342  -0.000  0.00  0.00    -0.182 SA
HETATM   20  H   UNK N   1       4.148  -4.205  -0.000  0.00  0.00     0.101 HD
ENDBRANCH  18  19
ENDBRANCH  17  18
ENDBRANCH   1  17
TORSDOF 3
