REMARK  4 active torsions:
REMARK  status: ('A' for Active; 'I' for Inactive)
REMARK    1  A    between atoms: C_1  and  O_17 
REMARK    2  A    between atoms: C_4  and  O_20 
REMARK    3  A    between atoms: C_11  and  N_18 
REMARK    4  A    between atoms: C_14  and  N_19 
ROOT
HETATM    1  C   UNK N   1       2.629  -1.336  -0.000  0.00  0.00     0.081 A 
HETATM    2  C   UNK N   1       1.394  -0.643  -0.000  0.00  0.00     0.065 A 
HETATM    3  C   UNK N   1       1.394   0.772   0.000  0.00  0.00     0.065 A 
HETATM    4  C   UNK N   1       2.629   1.465   0.000  0.00  0.00     0.081 A 
HETATM    5  C   UNK N   1       3.829   0.759   0.000  0.00  0.00     0.040 A 
HETATM    6  C   UNK N   1       3.829  -0.630  -0.000  0.00  0.00     0.040 A 
HETATM    7  C   UNK N   1       0.101   1.511   0.000  0.00  0.00     0.199 A 
HETATM    8  C   UNK N   1      -1.196   0.773   0.000  0.00  0.00     0.058 A 
HETATM    9  C   UNK N   1      -1.196  -0.645  -0.000  0.00  0.00     0.058 A 
HETATM   10  C   UNK N   1       0.101  -1.382  -0.000  0.00  0.00     0.199 A 
HETATM   11  C   UNK N   1      -2.435  -1.337  -0.000  0.00  0.00     0.041 A 
HETATM   12  C   UNK N   1      -3.633  -0.630  -0.000  0.00  0.00     0.032 A 
HETATM   13  C   UNK N   1      -3.633   0.758   0.000  0.00  0.00     0.032 A 
HETATM   14  C   UNK N   1      -2.435   1.466   0.000  0.00  0.00     0.041 A 
HETATM   15  O   UNK N   1       0.106  -2.605  -0.000  0.00  0.00    -0.286 OA
HETATM   16  O   UNK N   1       0.106   2.733   0.000  0.00  0.00    -0.286 OA
ENDROOT
BRANCH  11  17
HETATM   17  N   UNK N   1      -2.491  -2.748  -0.000  0.00  0.00    -0.398 N 
HETATM   18  H   UNK N   1      -3.363  -3.206  -0.000  0.00  0.00     0.156 HD
HETATM   19  H   UNK N   1      -1.659  -3.274  -0.000  0.00  0.00     0.156 HD
ENDBRANCH  11  17
BRANCH  14  20
HETATM   20  N   UNK N   1      -2.491   2.877   0.000  0.00  0.00    -0.398 N 
HETATM   21  H   UNK N   1      -1.659   3.403   0.000  0.00  0.00     0.156 HD
HETATM   22  H   UNK N   1      -3.363   3.334   0.000  0.00  0.00     0.156 HD
ENDBRANCH  14  20
BRANCH   1  23
HETATM   23  O   UNK N   1       2.674  -2.680  -0.000  0.00  0.00    -0.360 OA
HETATM   24  H   UNK N   1       1.878  -3.176  -0.000  0.00  0.00     0.217 HD
ENDBRANCH   1  23
BRANCH   4  25
HETATM   25  O   UNK N   1       2.674   2.809   0.000  0.00  0.00    -0.360 OA
HETATM   26  H   UNK N   1       3.500   3.250   0.000  0.00  0.00     0.217 HD
ENDBRANCH   4  25
TORSDOF 4
