REMARK  6 active torsions:
REMARK  status: ('A' for Active; 'I' for Inactive)
REMARK    1  A    between atoms: C_1  and  C_2 
REMARK    2  A    between atoms: C_1  and  C_5 
REMARK    3  A    between atoms: C_2  and  O_4 
REMARK    4  A    between atoms: C_5  and  C_6 
REMARK    5  A    between atoms: C_9  and  O_10 
REMARK    6  A    between atoms: C_13  and  O_14 
ROOT
HETATM    1  C   UNK N   1       0.692   0.771  -0.000  0.00  0.00    -0.055 A 
HETATM    2  C   UNK N   1       0.647  -0.614  -0.000  0.00  0.00     0.046 A 
HETATM    3  C   UNK N   1      -0.497   1.494   0.000  0.00  0.00     0.010 A 
HETATM    4  C   UNK N   1      -0.551  -1.334  -0.000  0.00  0.00     0.102 A 
HETATM    5  C   UNK N   1      -1.715   0.821   0.000  0.00  0.00     0.040 A 
HETATM    6  C   UNK N   1      -1.795  -0.581   0.000  0.00  0.00     0.101 A 
ENDROOT
BRANCH   1   7
HETATM    7  C   UNK N   1       2.036   1.422  -0.000  0.00  0.00     0.049 C 
BRANCH   7   8
HETATM    8  C   UNK N   1       2.017   2.942  -0.000  0.00  0.00     0.114 C 
BRANCH   8   9
HETATM    9  C   UNK N   1       3.414   3.484   0.000  0.00  0.00     0.139 C 
HETATM   10  O   UNK N   1       3.590   4.690   0.000  0.00  0.00    -0.650 OA
BRANCH   9  11
HETATM   11  O   UNK N   1       4.479   2.656   0.000  0.00  0.00    -0.776 OA
HETATM   12  H   UNK N   1       4.351   1.728   0.000  0.00  0.00     0.167 HD
ENDBRANCH   9  11
ENDBRANCH   8   9
ENDBRANCH   7   8
ENDBRANCH   1   7
BRANCH   4  13
HETATM   13  O   UNK N   1      -0.372  -2.684  -0.000  0.00  0.00    -0.353 OA
HETATM   14  C   UNK N   1      -1.260  -3.723   0.000  0.00  0.00     0.210 C 
ENDBRANCH   4  13
BRANCH   6  15
HETATM   15  O   UNK N   1      -3.069  -1.064   0.000  0.00  0.00    -0.353 OA
HETATM   16  C   UNK N   1      -3.547  -2.344  -0.000  0.00  0.00     0.210 C 
ENDBRANCH   6  15
TORSDOF 6
