REMARK  12 active torsions:
REMARK  status: ('A' for Active; 'I' for Inactive)
REMARK    1  A    between atoms: C_1  and  C_2 
REMARK    2  A    between atoms: C_2  and  C_3 
REMARK    3  A    between atoms: C_3  and  C_4 
REMARK    4  A    between atoms: C_4  and  N_5 
REMARK    5  A    between atoms: C_4  and  C_25 
REMARK       I    between atoms: N_5  and  C_6 
REMARK    6  A    between atoms: C_6  and  C_8 
REMARK    7  A    between atoms: C_8  and  C_9 
REMARK    8  A    between atoms: C_8  and  N_13 
REMARK    9  A    between atoms: C_9  and  C_10 
REMARK       I    between atoms: N_13  and  C_14 
REMARK   10  A    between atoms: C_14  and  O_16 
REMARK   11  A    between atoms: O_16  and  C_17 
REMARK   12  A    between atoms: C_17  and  C_18 
ROOT
HETATM    1  C   UNK N   1      -0.054  -1.092   0.019  0.00  0.00     0.179 C 
ENDROOT
BRANCH   1   2
HETATM    2  C   UNK N   1      -0.821  -2.250  -0.627  0.00  0.00     0.241 C 
HETATM    3  N   UNK N   1      -2.072  -2.685  -0.281  0.00  0.00    -0.349 N 
HETATM    4  H   UNK N   1      -2.428  -3.411  -0.843  0.00  0.00     0.163 HD
HETATM    5  O   UNK N   1      -0.231  -2.882  -1.490  0.00  0.00    -0.271 OA
BRANCH   3   6
HETATM    6  C   UNK N   1      -2.957  -2.248   0.783  0.00  0.00     0.146 C 
BRANCH   6   7
HETATM    7  C   UNK N   1      -3.739  -0.986   0.416  0.00  0.00     0.032 C 
BRANCH   7   8
HETATM    8  C   UNK N   1      -4.586  -1.144  -0.843  0.00  0.00     0.002 C 
BRANCH   8   9
HETATM    9  C   UNK N   1      -6.010  -0.687  -0.577  0.00  0.00    -0.004 C 
HETATM   10  C   UNK N   1      -6.788  -1.779   0.134  0.00  0.00     0.005 C 
ENDBRANCH   8   9
ENDBRANCH   7   8
ENDBRANCH   6   7
BRANCH   6  11
HETATM   11  C   UNK N   1      -3.936  -3.346   1.066  0.00  0.00     0.256 C 
HETATM   12  O   UNK N   1      -3.548  -4.454   1.398  0.00  0.00    -0.305 OA
ENDBRANCH   6  11
ENDBRANCH   3   6
ENDBRANCH   1   2
BRANCH   1  13
HETATM   13  C   UNK N   1      -0.845  -0.189   0.985  0.00  0.00     0.038 C 
BRANCH  13  14
HETATM   14  C   UNK N   1      -1.391   1.155   0.462  0.00  0.00    -0.020 C 
HETATM   15  C   UNK N   1      -1.987   1.102  -0.937  0.00  0.00     0.009 C 
HETATM   16  C   UNK N   1      -0.341   2.244   0.547  0.00  0.00     0.009 C 
ENDBRANCH  13  14
ENDBRANCH   1  13
BRANCH   1  17
HETATM   17  N   UNK N   1       0.523  -0.294  -1.052  0.00  0.00    -0.324 N 
HETATM   18  C   UNK N   1       1.787   0.180  -1.253  0.00  0.00     0.361 C 
HETATM   19  O   UNK N   1       1.999   0.804  -2.281  0.00  0.00    -0.238 OA
HETATM   20  H   UNK N   1      -0.116  -0.051  -1.762  0.00  0.00     0.165 HD
BRANCH  18  21
HETATM   21  O   UNK N   1       2.819   0.060  -0.373  0.00  0.00    -0.299 OA
BRANCH  21  22
HETATM   22  C   UNK N   1       2.933  -0.735   0.741  0.00  0.00     0.219 C 
BRANCH  22  23
HETATM   23  C   UNK N   1       4.126  -1.606   0.553  0.00  0.00    -0.034 A 
HETATM   24  C   UNK N   1       5.385  -1.029   0.338  0.00  0.00     0.011 A 
HETATM   25  C   UNK N   1       6.490  -1.839   0.068  0.00  0.00     0.019 A 
HETATM   26  C   UNK N   1       6.340  -3.227   0.013  0.00  0.00     0.011 A 
HETATM   27 Br   UNK N   1       7.837  -4.326  -0.410  0.00  0.00    -0.051 Br
HETATM   28  C   UNK N   1       5.088  -3.806   0.244  0.00  0.00     0.019 A 
HETATM   29  C   UNK N   1       3.979  -2.996   0.511  0.00  0.00     0.011 A 
ENDBRANCH  22  23
ENDBRANCH  21  22
ENDBRANCH  18  21
ENDBRANCH   1  17
TORSDOF 12
