REMARK  11 active torsions:
REMARK  status: ('A' for Active; 'I' for Inactive)
REMARK    1  A    between atoms: C_2  and  C_1 
REMARK    2  A    between atoms: C_1  and  O_18 
REMARK    3  A    between atoms: C_2  and  O_3 
REMARK    4  A    between atoms: C_5  and  C_6 
REMARK    5  A    between atoms: C_6  and  O_7 
REMARK    6  A    between atoms: C_6  and  C_8 
REMARK    7  A    between atoms: C_8  and  O_9 
REMARK    8  A    between atoms: C_8  and  C_10 
REMARK    9  A    between atoms: C_10  and  O_11 
REMARK   10  A    between atoms: C_12  and  N_13 
REMARK       I    between atoms: N_13  and  C_19 
REMARK   11  A    between atoms: C_14  and  O_15 
ROOT
HETATM    1  C   UNK N   1       1.639   1.501   0.292  0.00  0.00     0.253 C 
HETATM    2  O   UNK N   1       1.537   0.465  -0.679  0.00  0.00    -0.336 OA
HETATM    3  C   UNK N   1       0.554  -0.525  -0.396  0.00  0.00     0.182 C 
HETATM    4  C   UNK N   1      -0.792   0.012   0.133  0.00  0.00     0.145 C 
HETATM    5  C   UNK N   1      -0.852   1.512  -0.120  0.00  0.00     0.149 C 
HETATM    6  C   UNK N   1       0.280   2.105   0.687  0.00  0.00     0.114 C 
ENDROOT
BRANCH   3   7
HETATM    7  C   UNK N   1       1.073  -1.760   0.367  0.00  0.00     0.180 C 
BRANCH   7   8
HETATM    8  O   UNK N   1       0.061  -2.724   0.389  0.00  0.00    -0.390 OA
HETATM    9  H   UNK N   1      -0.870  -2.450   0.405  0.00  0.00     0.210 HD
ENDBRANCH   7   8
BRANCH   7  10
HETATM   10  C   UNK N   1       2.339  -2.382  -0.247  0.00  0.00     0.173 C 
BRANCH  10  11
HETATM   11  O   UNK N   1       2.533  -3.663   0.276  0.00  0.00    -0.391 OA
HETATM   12  H   UNK N   1       1.830  -4.224   0.639  0.00  0.00     0.210 HD
ENDBRANCH  10  11
BRANCH  10  13
HETATM   13  C   UNK N   1       3.580  -1.563   0.072  0.00  0.00     0.198 C 
BRANCH  13  14
HETATM   14  O   UNK N   1       3.930  -0.763  -1.014  0.00  0.00    -0.398 OA
HETATM   15  H   UNK N   1       4.533  -0.695  -1.770  0.00  0.00     0.209 HD
ENDBRANCH  13  14
ENDBRANCH  10  13
ENDBRANCH   7  10
ENDBRANCH   3   7
BRANCH   4  16
HETATM   16  N   UNK N   1      -1.878  -0.693  -0.516  0.00  0.00    -0.352 N 
HETATM   17  C   UNK N   1      -3.147  -0.710  -0.040  0.00  0.00     0.214 C 
HETATM   18  O   UNK N   1      -3.436  -0.133   1.000  0.00  0.00    -0.274 OA
HETATM   19  C   UNK N   1      -4.201  -1.456  -0.778  0.00  0.00     0.117 C 
HETATM   20  H   UNK N   1      -1.684  -1.185  -1.347  0.00  0.00     0.163 HD
ENDBRANCH   4  16
BRANCH   1  21
HETATM   21  C   UNK N   1       2.492   2.594  -0.306  0.00  0.00     0.205 C 
HETATM   22  O   UNK N   1       3.631   2.346  -0.668  0.00  0.00    -0.646 OA
BRANCH  21  23
HETATM   23  O   UNK N   1       2.008   3.845  -0.463  0.00  0.00    -0.772 OA
HETATM   24  H   UNK N   1       2.592   4.570  -0.571  0.00  0.00     0.167 HD
ENDBRANCH  21  23
ENDBRANCH   1  21
BRANCH   1  25
HETATM   25  O   UNK N   1       2.275   1.018   1.439  0.00  0.00    -0.357 OA
HETATM   26  H   UNK N   1       2.205   0.469   2.235  0.00  0.00     0.213 HD
ENDBRANCH   1  25
BRANCH   5  27
HETATM   27  O   UNK N   1      -2.053   2.066   0.320  0.00  0.00    -0.393 OA
HETATM   28  H   UNK N   1      -2.136   2.983   0.626  0.00  0.00     0.210 HD
ENDBRANCH   5  27
TORSDOF 11
