REMARK  5 active torsions:
REMARK  status: ('A' for Active; 'I' for Inactive)
REMARK    1  A    between atoms: C_7  and  C_2 
REMARK    2  A    between atoms: C_4  and  O_13 
REMARK    3  A    between atoms: C_12  and  C_14 
REMARK    4  A    between atoms: C_14  and  O_15 
REMARK    5  A    between atoms: O_15  and  C_16 
ROOT
HETATM    1  C   UNK N   1       0.056   1.442  -0.666  0.00  0.00     0.158 A 
HETATM    2  N   UNK N   1       0.142   2.772  -0.089  0.00  0.00    -0.354 N 
HETATM    3  C   UNK N   1       1.274   3.233   0.610  0.00  0.00     0.172 A 
HETATM    4  N   UNK N   1       2.403   2.407   0.728  0.00  0.00    -0.337 N 
HETATM    5  C   UNK N   1       2.412   1.090   0.212  0.00  0.00     0.022 A 
HETATM    6  C   UNK N   1       1.316   0.569  -0.429  0.00  0.00     0.066 A 
HETATM    7  C   UNK N   1       3.713   0.359   0.309  0.00  0.00     0.069 C 
HETATM    8  S   UNK N   1       1.310   4.573   1.117  0.00  0.00    -0.041 SA
HETATM    9  H   UNK N   1      -0.626   3.379  -0.191  0.00  0.00     0.163 HD
HETATM   10  H   UNK N   1       3.207   2.752   1.181  0.00  0.00     0.168 HD
ENDROOT
BRANCH   1  11
HETATM   11  C   UNK N   1      -1.270   0.823  -0.248  0.00  0.00    -0.028 A 
HETATM   12  C   UNK N   1      -2.453   1.537  -0.510  0.00  0.00     0.010 A 
HETATM   13  C   UNK N   1      -3.701   0.986  -0.213  0.00  0.00     0.003 A 
HETATM   14  C   UNK N   1      -3.786  -0.298   0.326  0.00  0.00     0.036 A 
HETATM   15  C   UNK N   1      -2.622  -1.024   0.587  0.00  0.00     0.066 A 
HETATM   16  C   UNK N   1      -1.368  -0.464   0.312  0.00  0.00     0.046 A 
BRANCH  15  17
HETATM   17  O   UNK N   1      -2.708  -2.267   1.086  0.00  0.00    -0.361 OA
HETATM   18  H   UNK N   1      -3.490  -2.649   1.435  0.00  0.00     0.217 HD
ENDBRANCH  15  17
ENDBRANCH   1  11
BRANCH   6  19
HETATM   19  C   UNK N   1       1.313  -0.823  -1.026  0.00  0.00     0.293 C 
HETATM   20  O   UNK N   1       0.539  -1.065  -1.936  0.00  0.00    -0.259 OA
BRANCH  19  21
HETATM   21  O   UNK N   1       2.096  -1.838  -0.569  0.00  0.00    -0.318 OA
BRANCH  21  22
HETATM   22  C   UNK N   1       2.369  -2.044   0.765  0.00  0.00     0.174 C 
HETATM   23  C   UNK N   1       3.527  -3.012   0.902  0.00  0.00     0.034 C 
ENDBRANCH  21  22
ENDBRANCH  19  21
ENDBRANCH   6  19
TORSDOF 5
