REMARK  8 active torsions:
REMARK  status: ('A' for Active; 'I' for Inactive)
REMARK    1  A    between atoms: C_2  and  C_4 
REMARK    2  A    between atoms: C_4  and  C_5 
REMARK    3  A    between atoms: C_5  and  N_6 
REMARK    4  A    between atoms: C_5  and  C_17 
REMARK       I    between atoms: N_6  and  C_7 
REMARK    5  A    between atoms: C_7  and  O_9 
REMARK    6  A    between atoms: O_9  and  C_10 
REMARK    7  A    between atoms: C_10  and  C_11 
REMARK       I    between atoms: C_17  and  N_19 
REMARK    8  A    between atoms: C_20  and  N_19 
ROOT
HETATM    1  C   UNK N   1       2.804   1.644  -0.682  0.00  0.00     0.104 C 
HETATM    2  C   UNK N   1       3.258   2.520   0.496  0.00  0.00     0.047 C 
HETATM    3  C   UNK N   1       4.768   2.450   0.528  0.00  0.00     0.136 C 
HETATM    4  N   UNK N   1       5.099   1.281  -0.236  0.00  0.00    -0.318 N 
HETATM    5  C   UNK N   1       4.006   0.770  -1.003  0.00  0.00     0.159 C 
HETATM    6  C   UNK N   1       5.986   0.374   0.326  0.00  0.00     0.179 C 
HETATM    7  N   UNK N   1       6.727  -0.392   0.778  0.00  0.00    -0.172 NA
ENDROOT
BRANCH   1   8
HETATM    8  N   UNK N   1       1.679   0.768  -0.379  0.00  0.00    -0.353 N 
HETATM    9  C   UNK N   1       0.846   0.882   0.691  0.00  0.00     0.240 C 
HETATM   10  O   UNK N   1       0.857   1.886   1.388  0.00  0.00    -0.271 OA
HETATM   11  H   UNK N   1       1.507   0.028  -1.004  0.00  0.00     0.163 HD
BRANCH   9  12
HETATM   12  C   UNK N   1      -0.091  -0.238   1.052  0.00  0.00     0.179 C 
BRANCH  12  13
HETATM   13  C   UNK N   1       0.566  -1.617   1.294  0.00  0.00     0.038 C 
BRANCH  13  14
HETATM   14  C   UNK N   1       1.338  -2.234   0.129  0.00  0.00    -0.020 C 
HETATM   15  C   UNK N   1       1.011  -3.711   0.041  0.00  0.00     0.009 C 
HETATM   16  C   UNK N   1       2.833  -2.065   0.298  0.00  0.00     0.009 C 
ENDBRANCH  13  14
ENDBRANCH  12  13
BRANCH  12  17
HETATM   17  N   UNK N   1      -1.280  -0.225   0.221  0.00  0.00    -0.324 N 
HETATM   18  C   UNK N   1      -1.539  -0.895  -0.931  0.00  0.00     0.361 C 
HETATM   19  O   UNK N   1      -0.732  -1.668  -1.414  0.00  0.00    -0.238 OA
HETATM   20  H   UNK N   1      -2.008   0.357   0.539  0.00  0.00     0.165 HD
BRANCH  18  21
HETATM   21  O   UNK N   1      -2.715  -0.701  -1.559  0.00  0.00    -0.299 OA
BRANCH  21  22
HETATM   22  C   UNK N   1      -3.286   0.550  -1.627  0.00  0.00     0.219 C 
BRANCH  22  23
HETATM   23  C   UNK N   1      -4.256   0.886  -0.539  0.00  0.00    -0.034 A 
HETATM   24  C   UNK N   1      -5.345   0.054  -0.253  0.00  0.00     0.009 A 
HETATM   25  C   UNK N   1      -6.356   0.500   0.608  0.00  0.00     0.001 A 
HETATM   26  C   UNK N   1      -6.295   1.785   1.158  0.00  0.00     0.000 A 
HETATM   27  C   UNK N   1      -5.202   2.611   0.881  0.00  0.00     0.001 A 
HETATM   28  C   UNK N   1      -4.188   2.162   0.031  0.00  0.00     0.009 A 
ENDBRANCH  22  23
ENDBRANCH  21  22
ENDBRANCH  18  21
ENDBRANCH  12  17
ENDBRANCH   9  12
ENDBRANCH   1   8
TORSDOF 8
