REMARK  4 active torsions:
REMARK  status: ('A' for Active; 'I' for Inactive)
REMARK    1  A    between atoms: C_2  and  N_1 
REMARK    2  A    between atoms: C_2  and  C_3 
REMARK    3  A    between atoms: C_2  and  C_5 
REMARK       I    between atoms: C_3  and  N_12 
REMARK    4  A    between atoms: C_5  and  C_6 
ROOT
HETATM    1  C   UNK N   1       0.803   1.385  -0.082  0.00  0.00     0.171 C 
ENDROOT
BRANCH   1   2
HETATM    2  N   UNK N   1      -0.040   2.167   0.807  0.00  0.00    -0.418 N 
HETATM    3  H   UNK N   1       0.140   2.954   1.430  0.00  0.00     0.150 HD
HETATM    4  H   UNK N   1      -1.015   1.867   0.807  0.00  0.00     0.150 HD
ENDBRANCH   1   2
BRANCH   1   5
HETATM    5  C   UNK N   1       2.204   1.949  -0.071  0.00  0.00     0.237 C 
HETATM    6  O   UNK N   1       2.383   3.125  -0.372  0.00  0.00    -0.271 OA
HETATM    7  N   UNK N   1       3.265   1.184   0.248  0.00  0.00    -0.368 N 
HETATM    8  H   UNK N   1       3.168   0.232   0.482  0.00  0.00     0.159 HD
HETATM    9  H   UNK N   1       4.163   1.587   0.248  0.00  0.00     0.159 HD
ENDBRANCH   1   5
BRANCH   1  10
HETATM   10  C   UNK N   1       0.820  -0.082   0.374  0.00  0.00     0.072 C 
BRANCH  10  11
HETATM   11  C   UNK N   1      -0.434  -0.884   0.189  0.00  0.00    -0.056 A 
HETATM   12  C   UNK N   1      -0.311  -2.273   0.077  0.00  0.00     0.007 A 
HETATM   13  C   UNK N   1      -1.444  -3.075  -0.080  0.00  0.00     0.001 A 
HETATM   14  C   UNK N   1      -2.712  -2.490  -0.121  0.00  0.00     0.000 A 
HETATM   15  C   UNK N   1      -2.845  -1.102  -0.004  0.00  0.00     0.001 A 
HETATM   16  C   UNK N   1      -1.709  -0.298   0.153  0.00  0.00     0.007 A 
ENDBRANCH  10  11
ENDBRANCH   1  10
TORSDOF 4
