REMARK  5 active torsions:
REMARK  status: ('A' for Active; 'I' for Inactive)
REMARK    1  A    between atoms: C_3  and  N_10 
REMARK    2  A    between atoms: C_4  and  C_16 
REMARK       I    between atoms: N_10  and  C_11 
REMARK    3  A    between atoms: C_11  and  C_12 
REMARK    4  A    between atoms: C_12  and  O_14 
REMARK    5  A    between atoms: C_16  and  O_18 
ROOT
HETATM    1  C   UNK N   1      -2.242   0.119  -0.032  0.00  0.00     0.044 A 
HETATM    2  C   UNK N   1      -1.062   0.843  -0.019  0.00  0.00     0.061 A 
HETATM    3  C   UNK N   1       0.164   0.139  -0.032  0.00  0.00     0.054 A 
HETATM    4  C   UNK N   1       0.156  -1.294  -0.059  0.00  0.00     0.065 A 
HETATM    5  C   UNK N   1      -1.080  -1.982  -0.078  0.00  0.00     0.034 A 
HETATM    6  C   UNK N   1      -2.254  -1.237  -0.061  0.00  0.00    -0.007 A 
HETATM    7  C   UNK N   1      -3.566  -1.645  -0.065  0.00  0.00     0.030 A 
HETATM    8  C   UNK N   1      -4.312  -0.464  -0.036  0.00  0.00     0.089 A 
HETATM    9  N   UNK N   1      -3.488   0.612  -0.017  0.00  0.00    -0.365 N 
HETATM   10  H   UNK N   1      -3.751   1.561   0.005  0.00  0.00     0.165 HD
ENDROOT
BRANCH   3  11
HETATM   11  N   UNK N   1       1.405   0.842  -0.019  0.00  0.00    -0.317 N 
HETATM   12  C   UNK N   1       1.573   2.192   0.010  0.00  0.00     0.319 C 
HETATM   13  O   UNK N   1       0.613   2.950   0.029  0.00  0.00    -0.261 OA
HETATM   14  H   UNK N   1       2.224   0.295  -0.032  0.00  0.00     0.169 HD
BRANCH  12  15
HETATM   15  C   UNK N   1       2.936   2.745   0.022  0.00  0.00     0.237 C 
HETATM   16  O   UNK N   1       3.111   3.952   0.052  0.00  0.00    -0.643 OA
BRANCH  15  17
HETATM   17  O   UNK N   1       3.999   1.917   0.001  0.00  0.00    -0.769 OA
HETATM   18  H   UNK N   1       3.870   0.989  -0.014  0.00  0.00     0.168 HD
ENDBRANCH  15  17
ENDBRANCH  12  15
ENDBRANCH   3  11
BRANCH   4  19
HETATM   19  C   UNK N   1       1.415  -2.092  -0.062  0.00  0.00     0.178 C 
HETATM   20  O   UNK N   1       1.365  -3.311  -0.123  0.00  0.00    -0.646 OA
BRANCH  19  21
HETATM   21  O   UNK N   1       2.619  -1.492   0.014  0.00  0.00    -0.773 OA
HETATM   22  H   UNK N   1       3.399  -2.009   0.067  0.00  0.00     0.167 HD
ENDBRANCH  19  21
ENDBRANCH   4  19
TORSDOF 5
