REMARK  5 active torsions:
REMARK  status: ('A' for Active; 'I' for Inactive)
REMARK    1  A    between atoms: C_3  and  O_18 
REMARK    2  A    between atoms: C_9  and  C_4 
REMARK    3  A    between atoms: C_4  and  O_21 
REMARK    4  A    between atoms: C_10  and  C_11 
REMARK    5  A    between atoms: C_11  and  C_12 
ROOT
HETATM    1  C   UNK N   1      -2.787   3.357   0.033  0.00  0.00     0.084 C 
HETATM    2  C   UNK N   1      -1.291   3.181   0.084  0.00  0.00     0.158 C 
HETATM    3  C   UNK N   1      -0.672   2.134  -0.797  0.00  0.00     0.230 C 
HETATM    4  C   UNK N   1      -1.317   0.714  -0.560  0.00  0.00     0.154 C 
HETATM    5  C   UNK N   1      -2.824   0.848  -0.075  0.00  0.00     0.091 C 
HETATM    6  C   UNK N   1      -3.457   2.133  -0.634  0.00  0.00     0.048 C 
HETATM    7  O   UNK N   1      -2.904   0.938   1.320  0.00  0.00    -0.387 OA
HETATM    8  C   UNK N   1      -3.656  -0.356  -0.487  0.00  0.00     0.049 C 
HETATM    9  O   UNK N   1      -0.606   3.897   0.799  0.00  0.00    -0.295 OA
HETATM   10  H   UNK N   1      -2.878   1.017   2.286  0.00  0.00     0.210 HD
ENDROOT
BRANCH   4  11
HETATM   11  C   UNK N   1      -0.480  -0.165   0.436  0.00  0.00     0.121 A 
HETATM   12  C   UNK N   1      -0.036  -1.564   0.077  0.00  0.00     0.163 A 
HETATM   13  O   UNK N   1       0.782  -0.433  -0.112  0.00  0.00    -0.366 OA
HETATM   14  C   UNK N   1      -0.286   0.311   1.872  0.00  0.00     0.052 C 
BRANCH  12  15
HETATM   15  C   UNK N   1       0.566  -2.447   1.186  0.00  0.00     0.062 C 
BRANCH  15  16
HETATM   16  C   UNK N   1       2.060  -2.291   1.356  0.00  0.00    -0.022 C 
HETATM   17  C   UNK N   1       2.972  -2.761   0.495  0.00  0.00    -0.091 C 
HETATM   18  C   UNK N   1       4.416  -2.508   0.764  0.00  0.00     0.042 C 
HETATM   19  C   UNK N   1       2.585  -3.531  -0.725  0.00  0.00     0.042 C 
ENDBRANCH  15  16
ENDBRANCH  12  15
ENDBRANCH   4  11
BRANCH   4  20
HETATM   20  O   UNK N   1      -1.308   0.091  -1.817  0.00  0.00    -0.380 OA
HETATM   21  H   UNK N   1      -1.678  -0.130  -2.687  0.00  0.00     0.211 HD
ENDBRANCH   4  20
BRANCH   3  22
HETATM   22  O   UNK N   1       0.739   2.141  -0.686  0.00  0.00    -0.380 OA
HETATM   23  C   UNK N   1       1.297   1.836  -1.938  0.00  0.00     0.202 C 
ENDBRANCH   3  22
TORSDOF 5
