REMARK  8 active torsions:
REMARK  status: ('A' for Active; 'I' for Inactive)
REMARK    1  A    between atoms: C_2  and  C_19 
REMARK    2  A    between atoms: C_4  and  C_6 
REMARK    3  A    between atoms: C_9  and  C_12 
REMARK       I    between atoms: C_19  and  N_21 
REMARK    4  A    between atoms: C_22  and  N_21 
REMARK    5  A    between atoms: C_22  and  C_23 
REMARK    6  A    between atoms: C_22  and  C_27 
REMARK    7  A    between atoms: C_23  and  C_24 
REMARK    8  A    between atoms: C_24  and  O_26 
ROOT
HETATM    1  S   UNK N   1      -2.132   2.542   1.089  0.00  0.00    -0.096 SA
HETATM    2  C   UNK N   1      -0.756   1.823   0.519  0.00  0.00     0.073 A 
HETATM    3  C   UNK N   1      -1.138   0.858  -0.373  0.00  0.00     0.037 A 
HETATM    4  C   UNK N   1      -2.529   0.717  -0.498  0.00  0.00    -0.018 A 
HETATM    5  C   UNK N   1      -3.274   1.621   0.285  0.00  0.00     0.062 A 
ENDROOT
BRANCH   2   6
HETATM    6  C   UNK N   1       0.648   2.000   0.830  0.00  0.00     0.259 C 
HETATM    7  O   UNK N   1       1.011   2.777   1.711  0.00  0.00    -0.267 OA
HETATM    8  N   UNK N   1       1.538   1.362   0.031  0.00  0.00    -0.347 N 
HETATM    9  H   UNK N   1       1.183   0.639  -0.536  0.00  0.00     0.163 HD
BRANCH   8  10
HETATM   10  C   UNK N   1       2.950   1.630  -0.076  0.00  0.00     0.128 C 
BRANCH  10  11
HETATM   11  C   UNK N   1       3.675   1.249   1.219  0.00  0.00     0.140 C 
BRANCH  11  12
HETATM   12  C   UNK N   1       5.126   0.951   0.968  0.00  0.00     0.141 C 
HETATM   13  O   UNK N   1       5.446   0.007   0.261  0.00  0.00    -0.650 OA
BRANCH  12  14
HETATM   14  O   UNK N   1       6.077   1.722   1.523  0.00  0.00    -0.776 OA
HETATM   15  H   UNK N   1       6.874   1.417   1.910  0.00  0.00     0.167 HD
ENDBRANCH  12  14
ENDBRANCH  11  12
ENDBRANCH  10  11
BRANCH  10  16
HETATM   16  C   UNK N   1       3.163   3.076  -0.504  0.00  0.00    -0.035 A 
HETATM   17  C   UNK N   1       2.062   3.934  -0.715  0.00  0.00     0.009 A 
HETATM   18  C   UNK N   1       2.238   5.256  -1.102  0.00  0.00     0.001 A 
HETATM   19  C   UNK N   1       3.526   5.745  -1.300  0.00  0.00     0.000 A 
HETATM   20  C   UNK N   1       4.630   4.906  -1.116  0.00  0.00     0.001 A 
HETATM   21  C   UNK N   1       4.451   3.575  -0.722  0.00  0.00     0.009 A 
ENDBRANCH  10  16
ENDBRANCH   8  10
ENDBRANCH   2   6
BRANCH   4  22
HETATM   22  C   UNK N   1      -3.007  -0.577  -0.986  0.00  0.00    -0.025 A 
HETATM   23  C   UNK N   1      -2.047  -1.462  -1.508  0.00  0.00     0.013 A 
HETATM   24  C   UNK N   1      -2.236  -2.830  -1.432  0.00  0.00     0.013 A 
HETATM   25  C   UNK N   1      -3.386  -3.338  -0.825  0.00  0.00    -0.026 A 
HETATM   26  C   UNK N   1      -4.403  -2.456  -0.417  0.00  0.00     0.013 A 
HETATM   27  C   UNK N   1      -4.212  -1.076  -0.491  0.00  0.00     0.013 A 
BRANCH  25  28
HETATM   28  C   UNK N   1      -3.446  -4.766  -0.463  0.00  0.00    -0.023 A 
HETATM   29  C   UNK N   1      -2.352  -5.608  -0.711  0.00  0.00     0.029 A 
HETATM   30  C   UNK N   1      -2.382  -6.928  -0.263  0.00  0.00     0.088 A 
HETATM   31  N   UNK N   1      -3.464  -7.391   0.419  0.00  0.00    -0.375 N 
HETATM   32  C   UNK N   1      -4.534  -6.594   0.679  0.00  0.00     0.088 A 
ATOM     33  HN  UNK N   1      -3.472  -8.358   0.742  1.00  0.00     0.164 HD
HETATM   34  C   UNK N   1      -4.541  -5.267   0.250  0.00  0.00     0.029 A 
ENDBRANCH  25  28
ENDBRANCH   4  22
TORSDOF 8
