REMARK  15 active torsions:
REMARK  status: ('A' for Active; 'I' for Inactive)
REMARK    1  A    between atoms: C_1  and  C_2 
REMARK    2  A    between atoms: C_1  and  O_22 
REMARK    3  A    between atoms: C_2  and  C_3 
REMARK    4  A    between atoms: C_3  and  C_4 
REMARK    5  A    between atoms: C_4  and  C_5 
REMARK    6  A    between atoms: C_6  and  C_7 
REMARK    7  A    between atoms: C_8  and  C_7 
REMARK    8  A    between atoms: C_12  and  C_13 
REMARK    9  A    between atoms: C_14  and  C_15 
REMARK   10  A    between atoms: C_15  and  C_16 
REMARK   11  A    between atoms: C_15  and  O_25 
REMARK   12  A    between atoms: C_16  and  C_17 
REMARK   13  A    between atoms: C_17  and  C_18 
REMARK   14  A    between atoms: C_18  and  C_19 
REMARK   15  A    between atoms: O_25  and  O_26 
ROOT
HETATM    1  C   UNK N   1      -1.116   0.001  -0.694  0.00  0.00     0.031 C 
HETATM    2  C   UNK N   1      -2.597   0.361  -0.932  0.00  0.00     0.168 C 
HETATM    3  C   UNK N   1      -3.208   0.377   0.421  0.00  0.00     0.071 C 
HETATM    4  C   UNK N   1      -2.228   1.427   0.827  0.00  0.00     0.171 C 
HETATM    5  C   UNK N   1      -0.905   0.675   0.687  0.00  0.00     0.047 C 
HETATM    6  O   UNK N   1      -2.658   1.718  -1.293  0.00  0.00    -0.235 OA
HETATM    7  O   UNK N   1      -2.330   2.396  -0.187  0.00  0.00    -0.234 OA
ENDROOT
BRANCH   5   8
HETATM    8  C   UNK N   1       0.314   1.522   1.010  0.00  0.00    -0.020 C 
HETATM    9  C   UNK N   1       1.558   1.609   0.495  0.00  0.00     0.004 C 
BRANCH   9  10
HETATM   10  C   UNK N   1       2.191   0.906  -0.683  0.00  0.00     0.182 C 
BRANCH  10  11
HETATM   11  C   UNK N   1       2.793   1.947  -1.633  0.00  0.00     0.039 C 
BRANCH  11  12
HETATM   12  C   UNK N   1       1.812   3.032  -2.057  0.00  0.00     0.003 C 
BRANCH  12  13
HETATM   13  C   UNK N   1       1.946   4.214  -1.113  0.00  0.00    -0.000 C 
BRANCH  13  14
HETATM   14  C   UNK N   1       0.580   4.803  -0.833  0.00  0.00    -0.005 C 
HETATM   15  C   UNK N   1       0.699   5.864   0.241  0.00  0.00     0.005 C 
ENDBRANCH  13  14
ENDBRANCH  12  13
ENDBRANCH  11  12
ENDBRANCH  10  11
BRANCH  10  16
HETATM   16  O   UNK N   1       3.256   0.109  -0.230  0.00  0.00    -0.234 OA
BRANCH  16  17
HETATM   17  O   UNK N   1       2.732  -1.030   0.181  0.00  0.00    -0.250 OA
HETATM   18  H   UNK N   1       1.815  -1.115   0.483  0.00  0.00     0.253 HD
ENDBRANCH  16  17
ENDBRANCH  10  16
ENDBRANCH   9  10
ENDBRANCH   5   8
BRANCH   1  19
HETATM   19  C   UNK N   1      -0.986  -1.535  -0.694  0.00  0.00     0.035 C 
BRANCH  19  20
HETATM   20  C   UNK N   1      -0.032  -2.087   0.309  0.00  0.00    -0.030 C 
HETATM   21  C   UNK N   1      -0.536  -2.729   1.362  0.00  0.00    -0.031 C 
BRANCH  21  22
HETATM   22  C   UNK N   1       0.344  -3.284   2.431  0.00  0.00     0.027 C 
BRANCH  22  23
HETATM   23  C   UNK N   1       0.898  -4.630   2.009  0.00  0.00     0.014 C 
BRANCH  23  24
HETATM   24  C   UNK N   1       2.035  -4.433   1.025  0.00  0.00     0.110 C 
BRANCH  24  25
HETATM   25  C   UNK N   1       2.068  -5.566   0.060  0.00  0.00     0.139 C 
HETATM   26  O   UNK N   1       3.053  -6.284   0.001  0.00  0.00    -0.650 OA
BRANCH  25  27
HETATM   27  O   UNK N   1       1.023  -5.789  -0.758  0.00  0.00    -0.776 OA
HETATM   28  H   UNK N   1       0.524  -5.236  -1.327  0.00  0.00     0.167 HD
ENDBRANCH  25  27
ENDBRANCH  24  25
ENDBRANCH  23  24
ENDBRANCH  22  23
ENDBRANCH  21  22
ENDBRANCH  19  20
ENDBRANCH   1  19
TORSDOF 15
