REMARK  5 active torsions:
REMARK  status: ('A' for Active; 'I' for Inactive)
REMARK    1  A    between atoms: C_2  and  N_1 
REMARK    2  A    between atoms: C_2  and  C_3 
REMARK    3  A    between atoms: C_2  and  C_11 
REMARK    4  A    between atoms: C_3  and  C_4 
REMARK    5  A    between atoms: C_11  and  O_13 
ROOT
HETATM    1  C   UNK N   1       1.125   1.339  -0.093  0.00  0.00     0.177 C 
ENDROOT
BRANCH   1   2
HETATM    2  N   UNK N   1       0.207   2.366  -0.568  0.00  0.00    -0.417 N 
HETATM    3  H   UNK N   1       0.509   3.282  -0.900  0.00  0.00     0.150 HD
HETATM    4  H   UNK N   1      -0.791   2.158  -0.568  0.00  0.00     0.150 HD
ENDBRANCH   1   2
BRANCH   1   5
HETATM    5  C   UNK N   1       0.992   0.090  -0.967  0.00  0.00     0.074 C 
BRANCH   5   6
HETATM    6  C   UNK N   1      -0.183  -0.749  -0.570  0.00  0.00    -0.056 A 
HETATM    7  C   UNK N   1       0.027  -2.068  -0.152  0.00  0.00     0.008 A 
HETATM    8  C   UNK N   1      -1.052  -2.854   0.261  0.00  0.00     0.019 A 
HETATM    9  C   UNK N   1      -2.345  -2.322   0.261  0.00  0.00     0.006 A 
HETATM   10  C   UNK N   1      -2.560  -1.007  -0.161  0.00  0.00     0.019 A 
HETATM   11  I   UNK N   1      -3.967  -3.494   0.908  0.00  0.00    -0.045 I 
HETATM   12  C   UNK N   1      -1.482  -0.222  -0.579  0.00  0.00     0.008 A 
ENDBRANCH   5   6
ENDBRANCH   1   5
BRANCH   1  13
HETATM   13  C   UNK N   1       2.543   1.837  -0.116  0.00  0.00     0.163 C 
HETATM   14  O   UNK N   1       2.802   2.976  -0.475  0.00  0.00    -0.648 OA
BRANCH  13  15
HETATM   15  O   UNK N   1       3.539   1.028   0.292  0.00  0.00    -0.775 OA
HETATM   16  H   UNK N   1       3.399   0.146   0.576  0.00  0.00     0.167 HD
ENDBRANCH  13  15
ENDBRANCH   1  13
TORSDOF 5
