REMARK  4 active torsions:
REMARK  status: ('A' for Active; 'I' for Inactive)
REMARK    1  A    between atoms: C_1  and  O_3 
REMARK    2  A    between atoms: C_1  and  C_4 
REMARK    3  A    between atoms: C_4  and  C_6 
REMARK    4  A    between atoms: C_6  and  C_7 
ROOT
HETATM    1  C   UNK N   1       1.022   0.171  -0.000  0.00  0.00     0.129 C 
ENDROOT
BRANCH   1   2
HETATM    2  C   UNK N   1       1.153   1.672  -0.003  0.00  0.00     0.226 C 
HETATM    3  O   UNK N   1       0.174   2.406  -0.008  0.00  0.00    -0.286 OA
BRANCH   2   4
HETATM    4  C   UNK N   1       2.505   2.253   0.001  0.00  0.00     0.213 C 
HETATM    5  O   UNK N   1       2.659   3.462  -0.002  0.00  0.00    -0.644 OA
BRANCH   4   6
HETATM    6  O   UNK N   1       3.582   1.442   0.010  0.00  0.00    -0.771 OA
HETATM    7  H   UNK N   1       3.469   0.512   0.015  0.00  0.00     0.167 HD
ENDBRANCH   4   6
ENDBRANCH   2   4
ENDBRANCH   1   2
BRANCH   1   8
HETATM    8  C   UNK N   1      -0.337  -0.465  -0.000  0.00  0.00    -0.051 A 
HETATM    9  C   UNK N   1      -0.398  -1.861   0.003  0.00  0.00     0.007 A 
HETATM   10  C   UNK N   1      -1.631  -2.516   0.003  0.00  0.00     0.001 A 
HETATM   11  C   UNK N   1      -2.815  -1.774   0.001  0.00  0.00     0.000 A 
HETATM   12  C   UNK N   1      -2.764  -0.377  -0.002  0.00  0.00     0.001 A 
HETATM   13  C   UNK N   1      -1.529   0.276  -0.003  0.00  0.00     0.007 A 
ENDBRANCH   1   8
TORSDOF 4
