REMARK  6 active torsions:
REMARK  status: ('A' for Active; 'I' for Inactive)
REMARK    1  A    between atoms: C_1  and  O_14 
REMARK       I    between atoms: C_6  and  N_10 
REMARK    2  A    between atoms: C_9  and  C_19 
REMARK    3  A    between atoms: C_12  and  C_26 
REMARK    4  A    between atoms: C_12  and  O_27 
REMARK    5  A    between atoms: C_19  and  N_20 
REMARK    6  A    between atoms: N_20  and  C_21 
ROOT
HETATM    1  C   UNK N   1      -4.706  -0.140  -0.000  0.00  0.00     0.186 A 
HETATM    2  C   UNK N   1      -3.494   0.548  -0.000  0.00  0.00     0.129 A 
HETATM    3  C   UNK N   1      -3.507   1.948   0.000  0.00  0.00     0.152 A 
HETATM    4  N   UNK N   1      -2.313  -0.111  -0.000  0.00  0.00    -0.351 N 
ATOM      5  HN  UNK N   1      -2.310  -1.131  -0.000  1.00  0.00     0.166 HD
HETATM    6  C   UNK N   1      -5.871   1.920   0.000  0.00  0.00     0.679 A 
HETATM    7  N   UNK N   1      -4.695   2.609   0.000  0.00  0.00    -0.174 N 
ATOM      8  HN  UNK N   1      -4.706   3.629   0.000  1.00  0.00     0.186 HD
HETATM    9  C   UNK N   1      -1.132   0.557  -0.000  0.00  0.00     0.043 A 
HETATM   10  N   UNK N   1      -7.094   2.617   0.000  0.00  0.00    -0.234 N 
HETATM   11  C   UNK N   1      -1.137   1.961  -0.000  0.00  0.00     0.116 A 
HETATM   12  N   UNK N   1      -5.870   0.558   0.000  0.00  0.00    -0.168 N 
ATOM     13  HN  UNK N   1      -6.757   0.055   0.000  1.00  0.00     0.186 HD
HETATM   14  N   UNK N   1      -2.328   2.628   0.000  0.00  0.00    -0.348 N 
ATOM     15  HN  UNK N   1      -2.334   3.648   0.000  1.00  0.00     0.167 HD
HETATM   16  H   UNK N   1      -7.100   3.602   0.000  0.00  0.00     0.174 HD
HETATM   17  H   UNK N   1      -7.944   2.120   0.000  0.00  0.00     0.174 HD
ENDROOT
BRANCH   9  18
HETATM   18  C   UNK N   1       0.114  -0.263  -0.000  0.00  0.00     0.178 C 
BRANCH  18  19
HETATM   19  N   UNK N   1       1.358   0.471  -0.000  0.00  0.00    -0.384 N 
HETATM   20  H   UNK N   1       1.359   1.456  -0.000  0.00  0.00     0.160 HD
BRANCH  19  21
HETATM   21  C   UNK N   1       2.579  -0.254  -0.000  0.00  0.00     0.028 A 
HETATM   22  C   UNK N   1       3.808   0.416  -0.000  0.00  0.00     0.030 A 
HETATM   23  C   UNK N   1       5.005  -0.316   0.000  0.00  0.00     0.020 A 
HETATM   24  C   UNK N   1       4.977  -1.723   0.000  0.00  0.00     0.037 A 
HETATM   25  C   UNK N   1       3.748  -2.385   0.000  0.00  0.00     0.020 A 
HETATM   26  C   UNK N   1       2.562  -1.659  -0.000  0.00  0.00     0.030 A 
BRANCH  24  27
HETATM   27  C   UNK N   1       6.223  -2.513   0.000  0.00  0.00     0.176 C 
HETATM   28  O   UNK N   1       7.310  -1.957   0.000  0.00  0.00    -0.646 OA
BRANCH  27  29
HETATM   29  O   UNK N   1       6.168  -3.861   0.000  0.00  0.00    -0.773 OA
HETATM   30  H   UNK N   1       5.338  -4.296   0.000  0.00  0.00     0.167 HD
ENDBRANCH  27  29
ENDBRANCH  24  27
ENDBRANCH  19  21
ENDBRANCH  18  19
ENDBRANCH   9  18
BRANCH   1  31
HETATM   31  O   UNK N   1      -4.728  -1.484  -0.000  0.00  0.00    -0.344 OA
HETATM   32  H   UNK N   1      -5.547  -1.939  -0.000  0.00  0.00     0.219 HD
ENDBRANCH   1  31
TORSDOF 6
