REMARK  3 active torsions:
REMARK  status: ('A' for Active; 'I' for Inactive)
REMARK    1  A    between atoms: C_2  and  C_3 
REMARK    2  A    between atoms: C_3  and  C_8 
REMARK    3  A    between atoms: C_13  and  C_15 
ROOT
HETATM    1  C   UNK N   1      -0.027  -0.239  -0.123  0.00  0.00     0.212 A 
HETATM    2  N   UNK N   1       0.661   0.791   0.405  0.00  0.00    -0.275 N 
ATOM      3  HN  UNK N   1       0.276   1.678   0.728  1.00  0.00     0.189 HD
HETATM    4  N   UNK N   1       1.933   0.427   0.423  0.00  0.00    -0.281 N 
ATOM      5  HN  UNK N   1       2.720   0.980   0.761  1.00  0.00     0.189 HD
HETATM    6  C   UNK N   1       1.986  -0.817  -0.094  0.00  0.00     0.148 A 
HETATM    7  O   UNK N   1       0.783  -1.223  -0.433  0.00  0.00    -0.274 OA
ENDROOT
BRANCH   1   8
HETATM    8  C   UNK N   1      -1.488  -0.266  -0.300  0.00  0.00     0.223 C 
HETATM    9  O   UNK N   1      -2.012  -1.239  -0.824  0.00  0.00    -0.286 OA
BRANCH   8  10
HETATM   10  C   UNK N   1      -2.330   0.887   0.189  0.00  0.00     0.155 C 
HETATM   11  N   UNK N   1      -1.940   2.126  -0.465  0.00  0.00    -0.410 N 
HETATM   12  C   UNK N   1      -3.094   3.005  -0.312  0.00  0.00     0.114 C 
HETATM   13  H   UNK N   1      -1.056   2.334  -0.929  0.00  0.00     0.154 HD
HETATM   14  C   UNK N   1      -4.327   2.132  -0.142  0.00  0.00     0.022 C 
HETATM   15  C   UNK N   1      -3.805   0.716  -0.102  0.00  0.00     0.034 C 
ENDBRANCH   8  10
ENDBRANCH   1   8
BRANCH   6  16
HETATM   16  C   UNK N   1       3.242  -1.628  -0.215  0.00  0.00     0.016 C 
HETATM   17  C   UNK N   1       3.835  -1.838   1.165  0.00  0.00     0.023 C 
HETATM   18  C   UNK N   1       2.956  -2.985  -0.831  0.00  0.00     0.023 C 
HETATM   19  C   UNK N   1       4.249  -0.899  -1.083  0.00  0.00     0.023 C 
ENDBRANCH   6  16
TORSDOF 3
