REMARK  4 active torsions:
REMARK  status: ('A' for Active; 'I' for Inactive)
REMARK    1  A    between atoms: N_1  and  C_2 
REMARK    2  A    between atoms: C_2  and  S_3 
REMARK    3  A    between atoms: S_3  and  C_12 
REMARK    4  A    between atoms: N_4  and  C_6 
ROOT
HETATM    1  C   UNK N   1       0.600   1.380   0.000  0.00  0.00     0.138 C 
HETATM    2  N   UNK N   1       0.600   0.082   0.003  0.00  0.00    -0.337 N 
ATOM      3  HN  UNK N   1       1.511  -0.377   0.006  1.00  0.00     0.168 HD
ENDROOT
BRANCH   2   4
HETATM    4  C   UNK N   1      -0.552  -0.772   0.001  0.00  0.00     0.034 A 
HETATM    5  C   UNK N   1      -0.363  -2.160  -0.006  0.00  0.00     0.029 A 
HETATM    6  C   UNK N   1      -1.463  -3.027  -0.008  0.00  0.00     0.002 A 
HETATM    7  C   UNK N   1      -2.762  -2.513  -0.002  0.00  0.00     0.000 A 
HETATM    8  C   UNK N   1      -2.964  -1.132   0.007  0.00  0.00     0.002 A 
HETATM    9  C   UNK N   1      -1.866  -0.268   0.008  0.00  0.00     0.029 A 
ENDBRANCH   2   4
BRANCH   1  10
HETATM   10  N   UNK N   1      -0.605   2.121  -0.007  0.00  0.00    -0.380 N 
HETATM   11  H   UNK N   1      -0.579   3.105  -0.012  0.00  0.00     0.158 HD
HETATM   12  H   UNK N   1      -1.471   1.652  -0.007  0.00  0.00     0.158 HD
ENDBRANCH   1  10
BRANCH   1  13
HETATM   13  S   UNK N   1       2.148   2.314   0.004  0.00  0.00    -0.095 SA
BRANCH  13  14
HETATM   14  C   UNK N   1       3.316   0.923  -0.002  0.00  0.00     0.078 C 
HETATM   15  C   UNK N   1       4.727   1.479   0.000  0.00  0.00     0.016 C 
ENDBRANCH  13  14
ENDBRANCH   1  13
TORSDOF 4
