REMARK  8 active torsions:
REMARK  status: ('A' for Active; 'I' for Inactive)
REMARK    1  A    between atoms: O_3  and  C_4 
REMARK    2  A    between atoms: C_6  and  O_7 
REMARK    3  A    between atoms: C_10  and  C_11 
REMARK    4  A    between atoms: C_11  and  C_12 
REMARK    5  A    between atoms: C_16  and  N_17 
REMARK    6  A    between atoms: N_24  and  C_25 
REMARK    7  A    between atoms: C_25  and  C_26 
REMARK    8  A    between atoms: C_26  and  C_27 
ROOT
HETATM    1  C   UNK N   1       0.551  -0.107  -0.585  0.00  0.00     0.090 A 
HETATM    2  N   UNK N   1       1.446   0.912  -0.498  0.00  0.00    -0.339 N 
ATOM      3  HN  UNK N   1       1.287   1.902  -0.687  1.00  0.00     0.167 HD
HETATM    4  C   UNK N   1       2.585   0.321  -0.105  0.00  0.00     0.122 A 
HETATM    5  C   UNK N   1       3.836   0.873   0.101  0.00  0.00     0.133 A 
HETATM    6  C   UNK N   1       2.391  -1.005   0.038  0.00  0.00     0.143 A 
HETATM    7  N   UNK N   1       3.400  -1.850   0.367  0.00  0.00    -0.302 N 
ATOM      8  HN  UNK N   1       3.235  -2.852   0.463  1.00  0.00     0.171 HD
HETATM    9  C   UNK N   1       4.648  -1.319   0.567  0.00  0.00     0.269 A 
HETATM   10  N   UNK N   1       4.859   0.032   0.436  0.00  0.00    -0.303 N 
ATOM     11  HN  UNK N   1       5.792   0.413   0.592  1.00  0.00     0.171 HD
HETATM   12  N   UNK N   1       1.110  -1.306  -0.250  0.00  0.00    -0.320 N 
HETATM   13  F   UNK N   1       5.685  -2.134   0.877  0.00  0.00    -0.165 F 
ENDROOT
BRANCH   1  14
HETATM   14  C   UNK N   1      -0.834   0.058  -1.163  0.00  0.00     0.118 C 
BRANCH  14  15
HETATM   15  C   UNK N   1      -1.765   1.098  -0.579  0.00  0.00    -0.015 A 
HETATM   16  C   UNK N   1      -1.421   2.469  -0.480  0.00  0.00     0.075 A 
HETATM   17  C   UNK N   1      -2.377   3.389  -0.016  0.00  0.00     0.040 A 
HETATM   18  C   UNK N   1      -3.665   2.972   0.311  0.00  0.00     0.039 A 
HETATM   19  C   UNK N   1      -4.022   1.622   0.191  0.00  0.00     0.068 A 
HETATM   20  C   UNK N   1      -3.066   0.694  -0.243  0.00  0.00     0.047 A 
BRANCH  16  21
HETATM   21  O   UNK N   1      -0.190   2.893  -0.849  0.00  0.00    -0.355 OA
HETATM   22  C   UNK N   1       0.234   4.198  -0.733  0.00  0.00     0.210 C 
ENDBRANCH  16  21
BRANCH  19  23
HETATM   23  O   UNK N   1      -5.281   1.200   0.459  0.00  0.00    -0.356 OA
HETATM   24  C   UNK N   1      -6.307   2.056   0.795  0.00  0.00     0.210 C 
ENDBRANCH  19  23
ENDBRANCH  14  15
ENDBRANCH   1  14
BRANCH  12  25
HETATM   25  C   UNK N   1       0.465  -2.621  -0.312  0.00  0.00     0.132 C 
BRANCH  25  26
HETATM   26  C   UNK N   1       1.158  -3.654   0.571  0.00  0.00     0.020 C 
BRANCH  26  27
HETATM   27  C   UNK N   1       0.874  -5.061   0.079  0.00  0.00    -0.003 C 
HETATM   28  C   UNK N   1       1.810  -5.414  -1.062  0.00  0.00     0.005 C 
ENDBRANCH  26  27
ENDBRANCH  25  26
ENDBRANCH  12  25
BRANCH   5  29
HETATM   29  N   UNK N   1       4.063   2.255  -0.060  0.00  0.00    -0.383 N 
HETATM   30  H   UNK N   1       4.978   2.600  -0.172  0.00  0.00     0.157 HD
HETATM   31  H   UNK N   1       3.301   2.879  -0.060  0.00  0.00     0.157 HD
ENDBRANCH   5  29
TORSDOF 8
