REMARK  7 active torsions:
REMARK  status: ('A' for Active; 'I' for Inactive)
REMARK    1  A    between atoms: C_2  and  C_3 
REMARK    2  A    between atoms: C_3  and  C_4 
REMARK    3  A    between atoms: C_4  and  N_5 
REMARK    4  A    between atoms: C_10  and  C_18 
REMARK    5  A    between atoms: C_10  and  C_20 
REMARK    6  A    between atoms: C_14  and  N_15 
REMARK    7  A    between atoms: C_24  and  O_25 
ROOT
HETATM    1  N   UNK N   1       1.430  -0.485  -0.441  0.00  0.00    -0.320 N 
HETATM    2  C   UNK N   1       2.671  -0.963  -0.283  0.00  0.00     0.141 A 
HETATM    3  N   UNK N   1       3.841  -0.313  -0.490  0.00  0.00    -0.336 N 
ATOM      4  HN  UNK N   1       3.855   0.666  -0.775  1.00  0.00     0.168 HD
HETATM    5  C   UNK N   1       5.004  -1.010  -0.306  0.00  0.00     0.183 A 
HETATM    6  N   UNK N   1       4.972  -2.332   0.068  0.00  0.00    -0.337 N 
ATOM      7  HN  UNK N   1       5.848  -2.840   0.195  1.00  0.00     0.168 HD
HETATM    8  C   UNK N   1       2.613  -2.257   0.092  0.00  0.00     0.122 A 
HETATM    9  C   UNK N   1       3.785  -2.977   0.273  0.00  0.00     0.131 A 
HETATM   10  N   UNK N   1       1.328  -2.649   0.195  0.00  0.00    -0.339 N 
ATOM     11  HN  UNK N   1       0.971  -3.566   0.462  1.00  0.00     0.167 HD
HETATM   12  C   UNK N   1       0.615  -1.536  -0.140  0.00  0.00     0.089 A 
ENDROOT
BRANCH  12  13
HETATM   13  C   UNK N   1      -0.884  -1.580  -0.315  0.00  0.00     0.115 C 
BRANCH  13  14
HETATM   14  C   UNK N   1      -1.762  -0.444   0.132  0.00  0.00    -0.049 A 
HETATM   15  C   UNK N   1      -1.280   0.676   0.820  0.00  0.00     0.007 A 
HETATM   16  C   UNK N   1      -2.137   1.738   1.127  0.00  0.00     0.003 A 
HETATM   17  C   UNK N   1      -3.484   1.682   0.757  0.00  0.00     0.037 A 
HETATM   18  C   UNK N   1      -3.985   0.560   0.091  0.00  0.00     0.068 A 
HETATM   19  C   UNK N   1      -3.114  -0.498  -0.222  0.00  0.00     0.044 A 
BRANCH  18  20
HETATM   20  O   UNK N   1      -5.297   0.519  -0.240  0.00  0.00    -0.356 OA
HETATM   21  C   UNK N   1      -5.887  -0.564  -0.852  0.00  0.00     0.210 C 
ENDBRANCH  18  20
ENDBRANCH  13  14
ENDBRANCH  12  13
BRANCH   1  22
HETATM   22  C   UNK N   1       1.085   0.859  -0.887  0.00  0.00     0.132 C 
BRANCH  22  23
HETATM   23  C   UNK N   1       1.641   1.881   0.094  0.00  0.00     0.020 C 
BRANCH  23  24
HETATM   24  C   UNK N   1       1.368   3.281  -0.404  0.00  0.00    -0.003 C 
HETATM   25  C   UNK N   1       2.367   4.233   0.220  0.00  0.00     0.005 C 
ENDBRANCH  23  24
ENDBRANCH  22  23
ENDBRANCH   1  22
BRANCH   9  26
HETATM   26  N   UNK N   1       3.761  -4.340   0.633  0.00  0.00    -0.383 N 
HETATM   27  H   UNK N   1       2.928  -4.801   0.885  0.00  0.00     0.157 HD
HETATM   28  H   UNK N   1       4.605  -4.847   0.633  0.00  0.00     0.157 HD
ENDBRANCH   9  26
TORSDOF 7
