REMARK  6 active torsions:
REMARK  status: ('A' for Active; 'I' for Inactive)
REMARK    1  A    between atoms: C_2  and  C_3 
REMARK    2  A    between atoms: C_3  and  C_4 
REMARK    3  A    between atoms: C_4  and  N_5 
REMARK    4  A    between atoms: C_13  and  N_14 
REMARK    5  A    between atoms: C_17  and  C_18 
REMARK    6  A    between atoms: C_18  and  C_19 
ROOT
HETATM    1  N   UNK N   1       1.645   0.120  -0.113  0.00  0.00    -0.320 N 
HETATM    2  C   UNK N   1       2.967   0.340  -0.158  0.00  0.00     0.143 A 
HETATM    3  N   UNK N   1       3.610   1.529  -0.203  0.00  0.00    -0.302 N 
ATOM      4  HN  UNK N   1       3.090   2.406  -0.227  1.00  0.00     0.171 HD
HETATM    5  C   UNK N   1       4.979   1.522  -0.216  0.00  0.00     0.269 A 
HETATM    6  N   UNK N   1       5.668   0.331  -0.185  0.00  0.00    -0.303 N 
ATOM      7  HN  UNK N   1       6.688   0.341  -0.195  1.00  0.00     0.171 HD
HETATM    8  C   UNK N   1       3.622  -0.839  -0.124  0.00  0.00     0.122 A 
HETATM    9  C   UNK N   1       5.007  -0.863  -0.140  0.00  0.00     0.133 A 
HETATM   10  N   UNK N   1       2.745  -1.853  -0.052  0.00  0.00    -0.339 N 
ATOM     11  HN  UNK N   1       2.944  -2.853  -0.018  1.00  0.00     0.167 HD
HETATM   12  C   UNK N   1       1.528  -1.242  -0.034  0.00  0.00     0.089 A 
HETATM   13  F   UNK N   1       5.659   2.692  -0.247  0.00  0.00    -0.165 F 
ENDROOT
BRANCH  12  14
HETATM   14  C   UNK N   1       0.267  -2.061   0.130  0.00  0.00     0.115 C 
BRANCH  14  15
HETATM   15  C   UNK N   1      -1.041  -1.362   0.316  0.00  0.00    -0.048 A 
HETATM   16  C   UNK N   1      -2.114  -1.677  -0.539  0.00  0.00     0.047 A 
HETATM   17  C   UNK N   1      -3.333  -1.047  -0.306  0.00  0.00     0.105 A 
HETATM   18  O   UNK N   1      -4.479  -1.192  -0.969  0.00  0.00    -0.323 OA
HETATM   19  C   UNK N   1      -3.504  -0.162   0.682  0.00  0.00     0.105 A 
HETATM   20  C   UNK N   1      -5.435  -0.353  -0.386  0.00  0.00     0.352 A 
HETATM   21  O   UNK N   1      -4.758   0.284   0.660  0.00  0.00    -0.323 OA
HETATM   22  C   UNK N   1      -2.484   0.173   1.567  0.00  0.00     0.040 A 
HETATM   23  C   UNK N   1      -1.239  -0.459   1.391  0.00  0.00     0.010 A 
ENDBRANCH  14  15
ENDBRANCH  12  14
BRANCH   1  24
HETATM   24  C   UNK N   1       0.613   1.152  -0.095  0.00  0.00     0.132 C 
BRANCH  24  25
HETATM   25  C   UNK N   1       0.711   2.083  -1.294  0.00  0.00     0.020 C 
BRANCH  25  26
HETATM   26  C   UNK N   1      -0.348   3.172  -1.197  0.00  0.00    -0.003 C 
HETATM   27  C   UNK N   1      -0.091   4.084  -0.008  0.00  0.00     0.005 C 
ENDBRANCH  25  26
ENDBRANCH  24  25
ENDBRANCH   1  24
BRANCH   9  28
HETATM   28  N   UNK N   1       5.719  -2.079  -0.092  0.00  0.00    -0.383 N 
HETATM   29  H   UNK N   1       5.232  -2.934  -0.058  0.00  0.00     0.157 HD
HETATM   30  H   UNK N   1       6.703  -2.073  -0.092  0.00  0.00     0.157 HD
ENDBRANCH   9  28
TORSDOF 6
