REMARK  6 active torsions:
REMARK  status: ('A' for Active; 'I' for Inactive)
REMARK    1  A    between atoms: C_2  and  O_22 
REMARK    2  A    between atoms: C_6  and  O_21 
REMARK    3  A    between atoms: C_8  and  O_20 
REMARK    4  A    between atoms: C_9  and  C_10 
REMARK    5  A    between atoms: C_13  and  O_19 
REMARK    6  A    between atoms: C_14  and  O_18 
ROOT
HETATM    1  C   UNK N   1      -4.465  -0.960   0.000  0.00  0.00     0.074 A 
HETATM    2  C   UNK N   1      -3.339  -1.787   0.000  0.00  0.00     0.085 A 
HETATM    3  C   UNK N   1      -2.044  -1.214   0.000  0.00  0.00     0.084 A 
HETATM    4  C   UNK N   1      -1.917   0.194   0.000  0.00  0.00     0.096 A 
HETATM    5  C   UNK N   1      -3.054   1.003   0.000  0.00  0.00     0.075 A 
HETATM    6  C   UNK N   1      -4.324   0.429   0.000  0.00  0.00     0.071 A 
HETATM    7  C   UNK N   1      -0.866  -1.984  -0.000  0.00  0.00     0.223 A 
HETATM    8  C   UNK N   1       0.373  -1.342  -0.000  0.00  0.00     0.152 A 
HETATM    9  C   UNK N   1       0.418   0.074  -0.000  0.00  0.00     0.123 A 
HETATM   10  O   UNK N   1      -0.720   0.765  -0.000  0.00  0.00    -0.306 OA
HETATM   11  O   UNK N   1      -0.910  -3.204  -0.000  0.00  0.00    -0.284 OA
ENDROOT
BRANCH   9  12
HETATM   12  C   UNK N   1       1.690   0.835  -0.000  0.00  0.00     0.004 A 
HETATM   13  C   UNK N   1       1.655   2.238  -0.000  0.00  0.00     0.017 A 
HETATM   14  C   UNK N   1       2.842   2.976  -0.000  0.00  0.00     0.040 A 
HETATM   15  C   UNK N   1       4.074   2.317  -0.000  0.00  0.00     0.098 A 
HETATM   16  C   UNK N   1       4.118   0.918   0.000  0.00  0.00     0.099 A 
HETATM   17  C   UNK N   1       2.933   0.188  -0.000  0.00  0.00     0.053 A 
BRANCH  15  18
HETATM   18  O   UNK N   1       5.212   3.031   0.000  0.00  0.00    -0.358 OA
HETATM   19  H   UNK N   1       6.040   2.592   0.000  0.00  0.00     0.217 HD
ENDBRANCH  15  18
BRANCH  16  20
HETATM   20  O   UNK N   1       5.295   0.271   0.000  0.00  0.00    -0.358 OA
HETATM   21  H   UNK N   1       5.315  -0.665   0.000  0.00  0.00     0.217 HD
ENDBRANCH  16  20
ENDBRANCH   9  12
BRANCH   8  22
HETATM   22  O   UNK N   1       1.498  -2.081  -0.000  0.00  0.00    -0.355 OA
HETATM   23  H   UNK N   1       1.444  -3.017  -0.000  0.00  0.00     0.218 HD
ENDBRANCH   8  22
BRANCH   2  24
HETATM   24  O   UNK N   1      -3.512  -3.121   0.000  0.00  0.00    -0.360 OA
HETATM   25  H   UNK N   1      -4.377  -3.481   0.000  0.00  0.00     0.217 HD
ENDBRANCH   2  24
BRANCH   6  26
HETATM   26  O   UNK N   1      -5.412   1.214   0.000  0.00  0.00    -0.361 OA
HETATM   27  H   UNK N   1      -5.317   2.147   0.000  0.00  0.00     0.217 HD
ENDBRANCH   6  26
TORSDOF 6
