REMARK  11 active torsions:
REMARK  status: ('A' for Active; 'I' for Inactive)
REMARK    1  A    between atoms: C_2  and  N_8 
REMARK    2  A    between atoms: C_3  and  N_9 
REMARK    3  A    between atoms: C_5  and  C_7 
REMARK    4  A    between atoms: C_7  and  O_24 
REMARK    5  A    between atoms: N_9  and  C_10 
REMARK    6  A    between atoms: C_10  and  C_11 
REMARK    7  A    between atoms: C_10  and  C_13 
REMARK    8  A    between atoms: C_15  and  C_20 
REMARK    9  A    between atoms: C_15  and  C_22 
REMARK   10  A    between atoms: C_20  and  O_21 
REMARK   11  A    between atoms: C_22  and  O_23 
ROOT
HETATM    1  C   UNK N   1      -0.837  -1.403  -0.117  0.00  0.00     0.033 A 
HETATM    2  C   UNK N   1      -0.273  -0.122   0.076  0.00  0.00     0.064 A 
HETATM    3  C   UNK N   1       1.155  -0.060   0.254  0.00  0.00     0.056 A 
HETATM    4  C   UNK N   1       1.888  -1.260   0.297  0.00  0.00     0.049 A 
HETATM    5  C   UNK N   1       1.284  -2.505   0.138  0.00  0.00     0.040 A 
HETATM    6  C   UNK N   1      -0.082  -2.569  -0.095  0.00  0.00     0.021 A 
ENDROOT
BRANCH   2   7
HETATM    7  N   UNK N   1      -1.203   1.009   0.146  0.00  0.00    -0.302 N 
HETATM    8  C   UNK N   1      -2.643   0.800   0.232  0.00  0.00     0.083 C 
HETATM    9  C   UNK N   1      -3.237   2.192   0.510  0.00  0.00     0.045 C 
HETATM   10  C   UNK N   1      -2.122   3.203   0.274  0.00  0.00     0.106 C 
HETATM   11  C   UNK N   1      -0.932   2.339   0.138  0.00  0.00     0.225 C 
HETATM   12  O   UNK N   1       0.165   2.823  -0.030  0.00  0.00    -0.273 OA
BRANCH   8  13
HETATM   13  C   UNK N   1      -3.033  -0.156   1.369  0.00  0.00     0.198 C 
BRANCH  13  14
HETATM   14  O   UNK N   1      -2.395   0.187   2.562  0.00  0.00    -0.398 OA
HETATM   15  H   UNK N   1      -1.967  -0.077   3.392  0.00  0.00     0.209 HD
ENDBRANCH  13  14
ENDBRANCH   8  13
BRANCH   8  16
HETATM   16  C   UNK N   1      -3.182   0.289  -1.107  0.00  0.00     0.198 C 
BRANCH  16  17
HETATM   17  O   UNK N   1      -4.578   0.216  -1.094  0.00  0.00    -0.398 OA
HETATM   18  H   UNK N   1      -5.106   1.029  -1.085  0.00  0.00     0.209 HD
ENDBRANCH  16  17
ENDBRANCH   8  16
ENDBRANCH   2   7
BRANCH   3  19
HETATM   19  N   UNK N   1       1.846   1.164   0.476  0.00  0.00    -0.383 N 
HETATM   20  H   UNK N   1       1.327   1.882   0.905  0.00  0.00     0.160 HD
BRANCH  19  21
HETATM   21  C   UNK N   1       3.233   1.485   0.144  0.00  0.00     0.081 C 
BRANCH  21  22
HETATM   22  C   UNK N   1       3.269   2.807  -0.603  0.00  0.00     0.020 C 
HETATM   23  C   UNK N   1       3.315   3.968   0.368  0.00  0.00     0.007 C 
ENDBRANCH  21  22
BRANCH  21  24
HETATM   24  C   UNK N   1       3.914   0.463  -0.755  0.00  0.00     0.020 C 
HETATM   25  C   UNK N   1       4.839  -0.411   0.069  0.00  0.00     0.007 C 
ENDBRANCH  21  24
ENDBRANCH  19  21
ENDBRANCH   3  19
BRANCH   5  26
HETATM   26  C   UNK N   1       2.074  -3.746   0.261  0.00  0.00     0.176 C 
HETATM   27  O   UNK N   1       3.261  -3.697   0.541  0.00  0.00    -0.646 OA
BRANCH  26  28
HETATM   28  O   UNK N   1       1.480  -4.946   0.100  0.00  0.00    -0.773 OA
HETATM   29  H   UNK N   1       0.552  -5.005  -0.012  0.00  0.00     0.167 HD
ENDBRANCH  26  28
ENDBRANCH   5  26
TORSDOF 11
