REMARK  10 active torsions:
REMARK  status: ('A' for Active; 'I' for Inactive)
REMARK    1  A    between atoms: C_1  and  O_3 
REMARK    2  A    between atoms: C_1  and  C_4 
REMARK    3  A    between atoms: C_4  and  C_5 
REMARK    4  A    between atoms: C_5  and  C_6 
REMARK    5  A    between atoms: C_6  and  C_7 
REMARK    6  A    between atoms: C_7  and  C_8 
REMARK    7  A    between atoms: C_8  and  C_9 
REMARK    8  A    between atoms: C_8  and  S_12 
REMARK    9  A    between atoms: C_9  and  C_10 
REMARK   10  A    between atoms: C_10  and  S_11 
ROOT
HETATM    1  C   UNK N   1       0.367   1.053  -0.686  0.00  0.00     0.015 C 
ENDROOT
BRANCH   1   2
HETATM    2  C   UNK N   1      -0.976   0.330  -0.771  0.00  0.00     0.002 C 
BRANCH   2   3
HETATM    3  C   UNK N   1      -1.577   0.014   0.586  0.00  0.00     0.010 C 
BRANCH   3   4
HETATM    4  C   UNK N   1      -2.867  -0.769   0.381  0.00  0.00     0.110 C 
BRANCH   4   5
HETATM    5  C   UNK N   1      -4.040   0.113   0.063  0.00  0.00     0.139 C 
HETATM    6  O   UNK N   1      -5.114  -0.394  -0.216  0.00  0.00    -0.650 OA
BRANCH   5   7
HETATM    7  O   UNK N   1      -3.926   1.455   0.092  0.00  0.00    -0.776 OA
HETATM    8  H   UNK N   1      -3.077   1.853   0.112  0.00  0.00     0.167 HD
ENDBRANCH   5   7
ENDBRANCH   4   5
ENDBRANCH   3   4
ENDBRANCH   2   3
ENDBRANCH   1   2
BRANCH   1   9
HETATM    9  C   UNK N   1       1.476   0.297   0.052  0.00  0.00     0.045 C 
BRANCH   9  10
HETATM   10  C   UNK N   1       2.792   0.982  -0.300  0.00  0.00     0.025 C 
BRANCH  10  11
HETATM   11  C   UNK N   1       3.986   0.352   0.397  0.00  0.00     0.072 C 
BRANCH  11  12
HETATM   12  S   UNK N   1       5.512   1.054  -0.289  0.00  0.00    -0.182 SA
HETATM   13  H   UNK N   1       6.539   0.326  -0.803  0.00  0.00     0.101 HD
ENDBRANCH  11  12
ENDBRANCH  10  11
ENDBRANCH   9  10
BRANCH   9  14
HETATM   14  S   UNK N   1       1.537  -1.458  -0.459  0.00  0.00    -0.177 SA
HETATM   15  H   UNK N   1       0.429  -2.149  -0.839  0.00  0.00     0.102 HD
ENDBRANCH   9  14
ENDBRANCH   1   9
TORSDOF 10
