REMARK  3 active torsions:
REMARK  status: ('A' for Active; 'I' for Inactive)
REMARK    1  A    between atoms: C_3  and  N_4 
REMARK    2  A    between atoms: C_5  and  N_4 
REMARK    3  A    between atoms: C_13  and  O_14 
ROOT
HETATM    1  C   UNK N   1      -2.927   4.017  -0.018  0.00  0.00     0.014 C 
HETATM    2  C   UNK N   1      -2.883   2.816  -0.122  0.00  0.00    -0.098 C 
HETATM    3  C   UNK N   1      -2.840   1.357  -0.245  0.00  0.00     0.208 C 
ENDROOT
BRANCH   3   4
HETATM    4  N   UNK N   1      -1.493   0.926  -0.603  0.00  0.00    -0.403 N 
HETATM    5  H   UNK N   1      -0.918   1.330  -1.342  0.00  0.00     0.154 HD
BRANCH   4   6
HETATM    6  C   UNK N   1      -1.102  -0.179   0.272  0.00  0.00     0.111 A 
HETATM    7  C   UNK N   1      -1.814  -1.493  -0.129  0.00  0.00     0.034 A 
HETATM    8  C   UNK N   1      -0.742  -2.582  -0.344  0.00  0.00     0.041 A 
HETATM    9  C   UNK N   1       0.519  -1.829  -0.229  0.00  0.00    -0.050 A 
HETATM   10  C   UNK N   1       0.327  -0.515   0.094  0.00  0.00    -0.027 A 
HETATM   11  C   UNK N   1       1.803  -2.354  -0.392  0.00  0.00     0.010 A 
HETATM   12  C   UNK N   1       1.409   0.351   0.268  0.00  0.00     0.046 A 
HETATM   13  C   UNK N   1       2.710  -0.148   0.094  0.00  0.00     0.066 A 
HETATM   14  C   UNK N   1       2.905  -1.502  -0.232  0.00  0.00     0.037 A 
BRANCH  13  15
HETATM   15  O   UNK N   1       3.766   0.666   0.241  0.00  0.00    -0.361 OA
HETATM   16  H   UNK N   1       4.627   0.312   0.344  0.00  0.00     0.217 HD
ENDBRANCH  13  15
ENDBRANCH   4   6
ENDBRANCH   3   4
TORSDOF 3
