REMARK  21 active torsions:
REMARK  status: ('A' for Active; 'I' for Inactive)
REMARK    1  A    between atoms: C_2  and  N_1 
REMARK    2  A    between atoms: C_2  and  C_3 
REMARK    3  A    between atoms: C_2  and  C_5 
REMARK    4  A    between atoms: C_3  and  O_7 
REMARK    5  A    between atoms: C_5  and  O_6 
REMARK    6  A    between atoms: O_6  and  S_24 
REMARK    7  A    between atoms: C_8  and  C_9 
REMARK    8  A    between atoms: C_8  and  S_24 
REMARK    9  A    between atoms: C_9  and  C_10 
REMARK   10  A    between atoms: C_10  and  C_11 
REMARK   11  A    between atoms: C_11  and  C_12 
REMARK   12  A    between atoms: C_12  and  C_13 
REMARK   13  A    between atoms: C_13  and  C_14 
REMARK   14  A    between atoms: C_14  and  C_15 
REMARK   15  A    between atoms: C_15  and  C_16 
REMARK   16  A    between atoms: C_16  and  C_17 
REMARK   17  A    between atoms: C_17  and  C_18 
REMARK   18  A    between atoms: C_18  and  C_19 
REMARK   19  A    between atoms: C_19  and  C_20 
REMARK   20  A    between atoms: C_20  and  C_21 
REMARK   21  A    between atoms: C_21  and  C_22 
ROOT
HETATM    1  C   UNK N   1      -2.574  -2.725   0.108  0.00  0.00     0.017 C 
ENDROOT
BRANCH   1   2
HETATM    2  C   UNK N   1      -3.873  -2.309  -0.605  0.00  0.00     0.171 C 
BRANCH   2   3
HETATM    3  S   UNK N   1      -4.452  -0.650  -0.069  0.00  0.00     0.265 S 
HETATM    4  O   UNK N   1      -4.777  -1.563   1.122  0.00  0.00    -0.199 OA
HETATM    5  O   UNK N   1      -3.409   0.025   0.830  0.00  0.00    -0.199 OA
BRANCH   3   6
HETATM    6  O   UNK N   1      -5.950  -0.024   0.478  0.00  0.00    -0.273 OA
BRANCH   6   7
HETATM    7  C   UNK N   1      -6.574   0.621  -0.588  0.00  0.00     0.225 C 
BRANCH   7   8
HETATM    8  C   UNK N   1      -7.983   0.999  -0.142  0.00  0.00     0.198 C 
BRANCH   8   9
HETATM    9  N   UNK N   1      -8.599   1.849  -1.148  0.00  0.00    -0.416 N 
HETATM   10  H   UNK N   1      -8.298   2.522  -1.854  0.00  0.00     0.150 HD
HETATM   11  H   UNK N   1      -9.613   1.744  -1.148  0.00  0.00     0.150 HD
ENDBRANCH   8   9
BRANCH   8  12
HETATM   12  C   UNK N   1      -8.812  -0.241   0.094  0.00  0.00     0.165 C 
HETATM   13  O   UNK N   1      -9.848  -0.425  -0.522  0.00  0.00    -0.648 OA
BRANCH  12  14
HETATM   14  O   UNK N   1      -8.410  -1.155   1.002  0.00  0.00    -0.775 OA
HETATM   15  H   UNK N   1      -8.821  -1.714   1.632  0.00  0.00     0.167 HD
ENDBRANCH  12  14
ENDBRANCH   8  12
ENDBRANCH   7   8
ENDBRANCH   6   7
ENDBRANCH   3   6
ENDBRANCH   2   3
ENDBRANCH   1   2
BRANCH   1  16
HETATM   16  C   UNK N   1      -1.334  -2.458  -0.735  0.00  0.00     0.001 C 
BRANCH  16  17
HETATM   17  C   UNK N   1      -1.124  -0.974  -0.991  0.00  0.00     0.000 C 
BRANCH  17  18
HETATM   18  C   UNK N   1      -0.392  -0.310   0.158  0.00  0.00     0.000 C 
BRANCH  18  19
HETATM   19  C   UNK N   1      -0.458   1.193  -0.039  0.00  0.00     0.000 C 
BRANCH  19  20
HETATM   20  C   UNK N   1       0.733   1.870   0.610  0.00  0.00     0.000 C 
BRANCH  20  21
HETATM   21  C   UNK N   1       1.863   2.057  -0.397  0.00  0.00     0.000 C 
BRANCH  21  22
HETATM   22  C   UNK N   1       2.638   0.771  -0.654  0.00  0.00     0.000 C 
BRANCH  22  23
HETATM   23  C   UNK N   1       3.382   0.338   0.598  0.00  0.00     0.000 C 
BRANCH  23  24
HETATM   24  C   UNK N   1       4.629  -0.443   0.233  0.00  0.00     0.000 C 
BRANCH  24  25
HETATM   25  C   UNK N   1       5.796   0.514   0.077  0.00  0.00     0.000 C 
BRANCH  25  26
HETATM   26  C   UNK N   1       7.085  -0.267  -0.065  0.00  0.00     0.000 C 
BRANCH  26  27
HETATM   27  C   UNK N   1       8.256   0.693  -0.033  0.00  0.00    -0.000 C 
BRANCH  27  28
HETATM   28  C   UNK N   1       9.554  -0.082  -0.104  0.00  0.00    -0.005 C 
HETATM   29  C   UNK N   1      10.720   0.881  -0.025  0.00  0.00     0.005 C 
ENDBRANCH  27  28
ENDBRANCH  26  27
ENDBRANCH  25  26
ENDBRANCH  24  25
ENDBRANCH  23  24
ENDBRANCH  22  23
ENDBRANCH  21  22
ENDBRANCH  20  21
ENDBRANCH  19  20
ENDBRANCH  18  19
ENDBRANCH  17  18
ENDBRANCH  16  17
ENDBRANCH   1  16
TORSDOF 21
