REMARK  5 active torsions:
REMARK  status: ('A' for Active; 'I' for Inactive)
REMARK    1  A    between atoms: C_2  and  C_11 
REMARK    2  A    between atoms: C_3  and  C_4 
REMARK    3  A    between atoms: C_5  and  N_17 
REMARK    4  A    between atoms: C_8  and  S_27 
REMARK    5  A    between atoms: N_20  and  S_27 
ROOT
HETATM    1  C   UNK N   1      -2.330   2.502  -0.110  0.00  0.00     0.068 A 
HETATM    2  C   UNK N   1      -1.233   1.654  -0.120  0.00  0.00     0.069 A 
HETATM    3  C   UNK N   1      -3.418   1.651  -0.121  0.00  0.00     0.135 A 
HETATM    4  N   UNK N   1      -1.680   0.361  -0.157  0.00  0.00    -0.255 N 
HETATM    5  N   UNK N   1      -3.005   0.372  -0.139  0.00  0.00    -0.289 N 
ATOM      6  HN  UNK N   1      -3.609  -0.450  -0.139  1.00  0.00     0.187 HD
ENDROOT
BRANCH   4   7
HETATM    7  C   UNK N   1      -0.951  -0.885  -0.233  0.00  0.00     0.057 A 
HETATM    8  C   UNK N   1       0.343  -0.941  -0.760  0.00  0.00     0.033 A 
HETATM    9  C   UNK N   1       1.082  -2.119  -0.726  0.00  0.00     0.027 A 
HETATM   10  C   UNK N   1       0.520  -3.275  -0.195  0.00  0.00     0.079 A 
HETATM   11  C   UNK N   1      -0.802  -3.262   0.265  0.00  0.00     0.027 A 
HETATM   12  C   UNK N   1      -1.545  -2.075   0.222  0.00  0.00     0.033 A 
BRANCH  10  13
HETATM   13  S   UNK N   1       1.598  -4.637   0.203  0.00  0.00     0.256 S 
HETATM   14  O   UNK N   1       2.249  -4.259   1.539  0.00  0.00    -0.201 OA
HETATM   15  O   UNK N   1       0.924  -5.963   0.586  0.00  0.00    -0.201 OA
BRANCH  13  16
HETATM   16  N   UNK N   1       3.001  -5.021  -0.797  0.00  0.00    -0.324 N 
HETATM   17  H   UNK N   1       3.214  -5.834  -1.375  0.00  0.00     0.169 HD
HETATM   18  H   UNK N   1       3.726  -4.303  -0.797  0.00  0.00     0.169 HD
ENDBRANCH  13  16
ENDBRANCH  10  13
ENDBRANCH   4   7
BRANCH   2  19
HETATM   19  C   UNK N   1       0.172   2.166  -0.029  0.00  0.00    -0.007 A 
HETATM   20  C   UNK N   1       0.434   3.522  -0.290  0.00  0.00     0.015 A 
HETATM   21  C   UNK N   1       1.740   4.023  -0.223  0.00  0.00     0.020 A 
HETATM   22  C   UNK N   1       2.796   3.178   0.127  0.00  0.00     0.011 A 
HETATM   23  C   UNK N   1       2.544   1.843   0.432  0.00  0.00     0.020 A 
HETATM   24 Br   UNK N   1       4.583   3.837   0.175  0.00  0.00    -0.051 Br
HETATM   25  C   UNK N   1       1.242   1.350   0.363  0.00  0.00     0.015 A 
ENDBRANCH   2  19
BRANCH   3  26
HETATM   26  C   UNK N   1      -4.853   2.072  -0.127  0.00  0.00     0.434 C 
HETATM   27  F   UNK N   1      -5.136   2.784   1.024  0.00  0.00    -0.165 F 
HETATM   28  F   UNK N   1      -5.677   0.962  -0.186  0.00  0.00    -0.165 F 
HETATM   29  F   UNK N   1      -5.093   2.871  -1.229  0.00  0.00    -0.165 F 
ENDBRANCH   3  26
TORSDOF 5
