REMARK  4 active torsions:
REMARK  status: ('A' for Active; 'I' for Inactive)
REMARK    1  A    between atoms: C_6  and  C_19 
REMARK       I    between atoms: C_11  and  N_16 
REMARK    2  A    between atoms: C_14  and  C_18 
REMARK    3  A    between atoms: N_17  and  C_23 
REMARK    4  A    between atoms: C_23  and  C_24 
ROOT
HETATM    1  N   UNK N   1      -0.104  -1.923  -0.404  0.00  0.00    -0.339 N 
HETATM    2  C   UNK N   1      -0.045  -0.575  -0.304  0.00  0.00     0.090 A 
HETATM    3  C   UNK N   1       1.320  -0.222  -0.321  0.00  0.00     0.072 A 
HETATM    4  N   UNK N   1       2.045  -1.358  -0.433  0.00  0.00    -0.350 N 
ATOM      5  HN  UNK N   1       3.061  -1.432  -0.469  1.00  0.00     0.166 HD
HETATM    6  C   UNK N   1       1.160  -2.372  -0.487  0.00  0.00     0.184 A 
ENDROOT
BRANCH   2   7
HETATM    7  C   UNK N   1      -1.263   0.293  -0.170  0.00  0.00     0.079 A 
HETATM    8  N   UNK N   1      -1.201   1.632  -0.368  0.00  0.00    -0.190 N 
HETATM    9  C   UNK N   1      -2.291   2.432  -0.231  0.00  0.00     0.676 A 
ATOM     10  HN  UNK N   1      -0.309   2.052  -0.630  1.00  0.00     0.184 HD
HETATM   11  N   UNK N   1      -3.486   1.894   0.124  0.00  0.00    -0.202 N 
HETATM   12  N   UNK N   1      -2.179   3.816  -0.454  0.00  0.00    -0.234 N 
HETATM   13  C   UNK N   1      -3.607   0.559   0.331  0.00  0.00     0.108 A 
ATOM     14  HN  UNK N   1      -4.300   2.499   0.237  1.00  0.00     0.183 HD
HETATM   15  C   UNK N   1      -2.497  -0.270   0.180  0.00  0.00     0.050 A 
HETATM   16  H   UNK N   1      -1.301   4.233  -0.611  0.00  0.00     0.174 HD
HETATM   17  H   UNK N   1      -2.989   4.375  -0.454  0.00  0.00     0.174 HD
ENDBRANCH   2   7
BRANCH   1  18
HETATM   18  C   UNK N   1      -1.282  -2.782  -0.460  0.00  0.00     0.134 C 
BRANCH  18  19
HETATM   19  C   UNK N   1      -1.495  -3.480   0.872  0.00  0.00     0.004 A 
HETATM   20  C   UNK N   1      -0.819  -4.833   0.863  0.00  0.00     0.007 A 
HETATM   21  C   UNK N   1      -2.315  -4.730   0.642  0.00  0.00     0.007 A 
ENDBRANCH  18  19
ENDBRANCH   1  18
BRANCH   3  22
HETATM   22  C   UNK N   1       2.011   1.095  -0.181  0.00  0.00    -0.007 A 
HETATM   23  C   UNK N   1       3.414   1.118  -0.097  0.00  0.00     0.017 A 
HETATM   24  C   UNK N   1       4.100   2.326   0.076  0.00  0.00     0.043 A 
HETATM   25  C   UNK N   1       3.391   3.526   0.161  0.00  0.00     0.116 A 
HETATM   26  F   UNK N   1       4.049   4.697   0.333  0.00  0.00    -0.206 F 
HETATM   27  C   UNK N   1       2.000   3.516   0.072  0.00  0.00     0.043 A 
HETATM   28  C   UNK N   1       1.323   2.308  -0.092  0.00  0.00     0.017 A 
ENDBRANCH   3  22
TORSDOF 4
