REMARK  7 active torsions:
REMARK  status: ('A' for Active; 'I' for Inactive)
REMARK    1  A    between atoms: C_3  and  S_14 
REMARK    2  A    between atoms: C_6  and  C_7 
REMARK       I    between atoms: C_7  and  N_9 
REMARK    3  A    between atoms: N_9  and  C_10 
REMARK    4  A    between atoms: C_10  and  C_11 
REMARK    5  A    between atoms: C_11  and  C_12 
REMARK    6  A    between atoms: C_11  and  C_25 
REMARK    7  A    between atoms: S_14  and  N_15 
ROOT
HETATM    1  C   UNK N   1      -1.837  -0.464  -0.841  0.00  0.00     0.251 C 
HETATM    2  O   UNK N   1      -2.399  -1.247  -1.597  0.00  0.00    -0.268 OA
HETATM    3  N   UNK N   1      -0.718  -0.883  -0.196  0.00  0.00    -0.356 N 
HETATM    4  H   UNK N   1      -0.309  -1.724  -0.503  0.00  0.00     0.162 HD
ENDROOT
BRANCH   3   5
HETATM    5  C   UNK N   1      -0.075  -0.194   0.911  0.00  0.00     0.132 C 
BRANCH   5   6
HETATM    6  C   UNK N   1       1.458  -0.208   0.816  0.00  0.00     0.036 C 
BRANCH   6   7
HETATM    7  C   UNK N   1       1.874   0.807  -0.253  0.00  0.00     0.006 C 
HETATM    8  C   UNK N   1       3.314   1.270  -0.069  0.00  0.00     0.006 C 
ENDBRANCH   6   7
BRANCH   6   9
HETATM    9  C   UNK N   1       2.038  -1.596   0.557  0.00  0.00    -0.051 A 
HETATM   10  C   UNK N   1       3.426  -1.757   0.347  0.00  0.00     0.021 A 
HETATM   11  C   UNK N   1       3.903  -3.033   0.060  0.00  0.00    -0.008 A 
HETATM   12  C   UNK N   1       5.178  -3.461  -0.218  0.00  0.00     0.030 A 
HETATM   13  C   UNK N   1       3.080  -4.115  -0.002  0.00  0.00     0.042 A 
HETATM   14  C   UNK N   1       5.057  -4.834  -0.443  0.00  0.00     0.089 A 
HETATM   15  N   UNK N   1       3.766  -5.224  -0.306  0.00  0.00    -0.365 N 
HETATM   16  H   UNK N   1       3.406  -6.135  -0.409  0.00  0.00     0.165 HD
HETATM   17  C   UNK N   1       1.716  -4.016   0.225  0.00  0.00     0.031 A 
HETATM   18  C   UNK N   1       1.198  -2.743   0.504  0.00  0.00     0.010 A 
ENDBRANCH   6   9
ENDBRANCH   5   6
ENDBRANCH   3   5
BRANCH   1  19
HETATM   19  C   UNK N   1      -2.443   0.872  -0.617  0.00  0.00     0.032 A 
HETATM   20  C   UNK N   1      -3.793   1.096  -0.934  0.00  0.00     0.018 A 
HETATM   21  C   UNK N   1      -4.387   2.330  -0.652  0.00  0.00     0.026 A 
HETATM   22  C   UNK N   1      -3.623   3.357  -0.087  0.00  0.00     0.079 A 
HETATM   23  C   UNK N   1      -2.271   3.156   0.181  0.00  0.00     0.026 A 
HETATM   24  C   UNK N   1      -1.687   1.921  -0.078  0.00  0.00     0.018 A 
BRANCH  22  25
HETATM   25  S   UNK N   1      -4.381   4.886   0.428  0.00  0.00     0.256 S 
HETATM   26  O   UNK N   1      -5.916   4.847   0.420  0.00  0.00    -0.201 OA
HETATM   27  O   UNK N   1      -4.088   5.154   1.911  0.00  0.00    -0.201 OA
BRANCH  25  28
HETATM   28  N   UNK N   1      -3.930   6.382  -0.392  0.00  0.00    -0.324 N 
HETATM   29  H   UNK N   1      -3.051   6.589  -0.866  0.00  0.00     0.169 HD
HETATM   30  H   UNK N   1      -4.629   7.125  -0.392  0.00  0.00     0.169 HD
ENDBRANCH  25  28
ENDBRANCH  22  25
ENDBRANCH   1  19
TORSDOF 7
