REMARK  5 active torsions:
REMARK  status: ('A' for Active; 'I' for Inactive)
REMARK    1  A    between atoms: B_1  and  O_2 
REMARK    2  A    between atoms: O_2  and  C_7 
REMARK    3  A    between atoms: C_7  and  C_8 
REMARK    4  A    between atoms: C_13  and  C_14 
REMARK    5  A    between atoms: C_14  and  N_16 
ROOT
HETATM    1  C   UNK N   1       0.509   0.088  -0.000  0.00  0.00    -0.036 A 
HETATM    2  C   UNK N   1       1.898   0.250  -0.000  0.00  0.00     0.010 A 
HETATM    3  C   UNK N   1      -0.038  -1.202   0.000  0.00  0.00     0.010 A 
HETATM    4  C   UNK N   1       2.733  -0.873  -0.000  0.00  0.00     0.016 A 
HETATM    5  C   UNK N   1       0.791  -2.319  -0.000  0.00  0.00     0.016 A 
HETATM    6  C   UNK N   1       2.181  -2.166  -0.000  0.00  0.00     0.007 A 
ENDROOT
BRANCH   1   7
HETATM    7  C   UNK N   1      -0.382   1.287   0.000  0.00  0.00     0.187 C 
BRANCH   7   8
HETATM    8  O   UNK N   1      -1.724   0.887   0.000  0.00  0.00    -0.396 OA
BRANCH   8   9
HETATM    9  B   UNK N   1      -2.576   2.080  -0.000  0.00  0.00     0.679 B 
HETATM   10  O   UNK N   1      -4.016   1.937  -0.000  0.00  0.00    -0.398 OA
HETATM   11  C   UNK N   1      -4.431   3.270   0.000  0.00  0.00     0.172 A 
HETATM   12  C   UNK N   1      -3.211   4.193  -0.000  0.00  0.00     0.172 A 
HETATM   13  O   UNK N   1      -2.041   3.431   0.000  0.00  0.00    -0.398 OA
ENDBRANCH   8   9
ENDBRANCH   7   8
ENDBRANCH   1   7
BRANCH   6  14
HETATM   14  C   UNK N   1       3.046  -3.362  -0.000  0.00  0.00     0.102 C 
HETATM   15  N   UNK N   1       4.322  -3.243  -0.000  0.00  0.00    -0.385 N 
HETATM   16  H   UNK N   1       4.891  -4.046   0.000  0.00  0.00     0.157 HD
HETATM   17  H   UNK N   1       4.732  -2.348  -0.000  0.00  0.00     0.157 HD
BRANCH  14  18
HETATM   18  N   UNK N   1       2.468  -4.653   0.000  0.00  0.00    -0.385 N 
HETATM   19  H   UNK N   1       1.489  -4.754   0.000  0.00  0.00     0.157 HD
HETATM   20  H   UNK N   1       3.045  -5.451   0.000  0.00  0.00     0.157 HD
ENDBRANCH  14  18
ENDBRANCH   6  14
TORSDOF 5
