REMARK  4 active torsions:
REMARK  status: ('A' for Active; 'I' for Inactive)
REMARK    1  A    between atoms: C_1  and  C_7 
REMARK    2  A    between atoms: C_2  and  O_11 
REMARK       I    between atoms: C_7  and  N_10 
REMARK    3  A    between atoms: C_8  and  O_13 
REMARK    4  A    between atoms: N_10  and  O_13 
ROOT
HETATM    1  C   UNK N   1      -1.009   0.487   0.000  0.00  0.00     0.067 A 
HETATM    2  C   UNK N   1      -0.960  -0.948   0.000  0.00  0.00     0.081 A 
HETATM    3  C   UNK N   1      -2.146  -1.690  -0.000  0.00  0.00     0.037 A 
HETATM    4  C   UNK N   1      -3.386  -1.063  -0.000  0.00  0.00     0.003 A 
HETATM    5  C   UNK N   1      -3.457   0.323  -0.000  0.00  0.00     0.001 A 
HETATM    6  C   UNK N   1      -2.288   1.081  -0.000  0.00  0.00     0.020 A 
ENDROOT
BRANCH   1   7
HETATM    7  C   UNK N   1       0.152   1.476   0.000  0.00  0.00     0.278 C 
HETATM    8  N   UNK N   1       1.474   1.154   0.000  0.00  0.00    -0.221 N 
HETATM    9  H   UNK N   1       2.129   1.888   0.000  0.00  0.00     0.198 HD
HETATM   10  O   UNK N   1      -0.127   2.665   0.000  0.00  0.00    -0.265 OA
BRANCH   8  11
HETATM   11  O   UNK N   1       1.924  -0.075  -0.000  0.00  0.00    -0.197 OA
BRANCH  11  12
HETATM   12  C   UNK N   1       3.241  -0.369  -0.000  0.00  0.00     0.277 C 
HETATM   13  C   UNK N   1       4.276   0.708   0.000  0.00  0.00     0.128 C 
HETATM   14  O   UNK N   1       3.590  -1.536  -0.000  0.00  0.00    -0.264 OA
ENDBRANCH  11  12
ENDBRANCH   8  11
ENDBRANCH   1   7
BRANCH   2  15
HETATM   15  O   UNK N   1       0.178  -1.649   0.000  0.00  0.00    -0.360 OA
HETATM   16  H   UNK N   1       0.152  -2.585   0.000  0.00  0.00     0.217 HD
ENDBRANCH   2  15
TORSDOF 4
