REMARK  10 active torsions:
REMARK  status: ('A' for Active; 'I' for Inactive)
REMARK    1  A    between atoms: C_1  and  C_7 
REMARK    2  A    between atoms: C_4  and  S_17 
REMARK       I    between atoms: C_7  and  N_9 
REMARK    3  A    between atoms: N_9  and  C_10 
REMARK    4  A    between atoms: C_10  and  C_11 
REMARK    5  A    between atoms: C_11  and  C_12 
REMARK    6  A    between atoms: C_12  and  C_13 
REMARK    7  A    between atoms: C_13  and  N_14 
REMARK    8  A    between atoms: N_14  and  C_15 
REMARK    9  A    between atoms: C_15  and  S_16 
REMARK   10  A    between atoms: S_17  and  N_20 
ROOT
HETATM    1  C   UNK N   1      -0.362  -1.741   0.023  0.00  0.00     0.251 C 
HETATM    2  O   UNK N   1      -0.459  -2.776   0.668  0.00  0.00    -0.268 OA
HETATM    3  N   UNK N   1       0.755  -1.558  -0.733  0.00  0.00    -0.357 N 
HETATM    4  H   UNK N   1       1.486  -2.209  -0.628  0.00  0.00     0.162 HD
ENDROOT
BRANCH   1   5
HETATM    5  C   UNK N   1      -1.476  -0.749   0.098  0.00  0.00     0.032 A 
HETATM    6  C   UNK N   1      -2.694  -1.118   0.694  0.00  0.00     0.018 A 
HETATM    7  C   UNK N   1      -3.753  -0.207   0.770  0.00  0.00     0.026 A 
HETATM    8  C   UNK N   1      -3.596   1.089   0.270  0.00  0.00     0.079 A 
HETATM    9  C   UNK N   1      -2.384   1.472  -0.303  0.00  0.00     0.026 A 
HETATM   10  C   UNK N   1      -1.334   0.559  -0.390  0.00  0.00     0.018 A 
BRANCH   8  11
HETATM   11  S   UNK N   1      -4.950   2.251   0.329  0.00  0.00     0.256 S 
HETATM   12  O   UNK N   1      -5.404   2.693  -1.070  0.00  0.00    -0.201 OA
HETATM   13  O   UNK N   1      -4.573   3.585   0.992  0.00  0.00    -0.201 OA
BRANCH  11  14
HETATM   14  N   UNK N   1      -6.429   1.737   1.142  0.00  0.00    -0.324 N 
HETATM   15  H   UNK N   1      -7.114   2.329   1.612  0.00  0.00     0.169 HD
HETATM   16  H   UNK N   1      -6.620   0.735   1.142  0.00  0.00     0.169 HD
ENDBRANCH  11  14
ENDBRANCH   8  11
ENDBRANCH   1   5
BRANCH   3  17
HETATM   17  C   UNK N   1       0.950  -0.481  -1.680  0.00  0.00     0.123 C 
BRANCH  17  18
HETATM   18  C   UNK N   1       1.903   0.577  -1.143  0.00  0.00     0.021 C 
BRANCH  18  19
HETATM   19  C   UNK N   1       3.213  -0.035  -0.697  0.00  0.00     0.021 C 
BRANCH  19  20
HETATM   20  C   UNK N   1       3.310   0.088   0.812  0.00  0.00     0.114 C 
BRANCH  20  21
HETATM   21  N   UNK N   1       4.400  -0.731   1.315  0.00  0.00    -0.413 N 
HETATM   22  H   UNK N   1       4.321  -1.680   1.681  0.00  0.00     0.153 HD
BRANCH  21  23
HETATM   23  C   UNK N   1       5.623   0.045   1.201  0.00  0.00     0.185 C 
BRANCH  23  24
HETATM   24  S   UNK N   1       6.724  -0.744  -0.006  0.00  0.00    -0.163 SA
HETATM   25  H   UNK N   1       6.625  -1.754  -0.911  0.00  0.00     0.103 HD
ENDBRANCH  23  24
ENDBRANCH  21  23
ENDBRANCH  20  21
ENDBRANCH  19  20
ENDBRANCH  18  19
ENDBRANCH  17  18
ENDBRANCH   3  17
TORSDOF 10
