REMARK  8 active torsions:
REMARK  status: ('A' for Active; 'I' for Inactive)
REMARK    1  A    between atoms: C_2  and  C_5 
REMARK    2  A    between atoms: C_3  and  C_4 
REMARK    3  A    between atoms: C_3  and  N_10 
REMARK    4  A    between atoms: C_4  and  C_5 
REMARK    5  A    between atoms: C_4  and  C_7 
REMARK    6  A    between atoms: C_7  and  O_13 
REMARK    7  A    between atoms: C_8  and  N_10 
REMARK    8  A    between atoms: O_9  and  N_10 
ROOT
HETATM    1  C   UNK N   1       0.183  -0.206  -0.456  0.00  0.00     0.104 C 
ENDROOT
BRANCH   1   2
HETATM    2  C   UNK N   1       1.046  -0.900   0.610  0.00  0.00     0.173 C 
BRANCH   2   3
HETATM    3  N   UNK N   1       2.463  -0.655   0.428  0.00  0.00    -0.235 N 
BRANCH   3   4
HETATM    4  C   UNK N   1       3.265  -1.672   0.038  0.00  0.00     0.376 C 
HETATM    5  O   UNK N   1       4.467  -1.495  -0.106  0.00  0.00    -0.281 OA
ENDBRANCH   3   4
BRANCH   3   6
HETATM    6  O   UNK N   1       2.987   0.546   0.699  0.00  0.00    -0.285 OA
HETATM    7  H   UNK N   1       3.931   0.653   0.895  0.00  0.00     0.245 HD
ENDBRANCH   3   6
ENDBRANCH   2   3
ENDBRANCH   1   2
BRANCH   1   8
HETATM    8  C   UNK N   1      -1.149  -0.969  -0.621  0.00  0.00     0.020 C 
BRANCH   8   9
HETATM    9  C   UNK N   1      -2.180  -0.818   0.493  0.00  0.00    -0.022 C 
HETATM   10  C   UNK N   1      -2.780  -2.174   0.803  0.00  0.00     0.009 C 
HETATM   11  C   UNK N   1      -3.305   0.072  -0.004  0.00  0.00     0.009 C 
ENDBRANCH   8   9
ENDBRANCH   1   8
BRANCH   1  12
HETATM   12  C   UNK N   1       0.033   1.286  -0.204  0.00  0.00     0.145 C 
HETATM   13  O   UNK N   1      -1.061   1.786  -0.009  0.00  0.00    -0.650 OA
BRANCH  12  14
HETATM   14  O   UNK N   1       1.114   2.086  -0.235  0.00  0.00    -0.776 OA
HETATM   15  H   UNK N   1       1.973   1.713  -0.257  0.00  0.00     0.167 HD
ENDBRANCH  12  14
ENDBRANCH   1  12
TORSDOF 8
