REMARK  6 active torsions:
REMARK  status: ('A' for Active; 'I' for Inactive)
REMARK    1  A    between atoms: P_1  and  O_3 
REMARK    2  A    between atoms: P_1  and  O_6 
REMARK    3  A    between atoms: P_1  and  O_9 
REMARK    4  A    between atoms: O_3  and  C_4 
REMARK    5  A    between atoms: O_6  and  C_7 
REMARK    6  A    between atoms: O_9  and  C_10 
ROOT
HETATM    1  P   UNK N   1      -0.688  -0.739  -0.463  0.00  0.00     0.477 P 
HETATM    2  O   UNK N   1      -1.671  -1.534   0.437  0.00  0.00    -0.227 OA
ENDROOT
BRANCH   1   3
HETATM    3  O   UNK N   1       0.350  -1.854   0.378  0.00  0.00    -0.293 OA
BRANCH   3   4
HETATM    4  C   UNK N   1       0.705  -2.816  -0.572  0.00  0.00     0.176 C 
HETATM    5  C   UNK N   1       1.852  -3.651  -0.044  0.00  0.00     0.034 C 
ENDBRANCH   3   4
ENDBRANCH   1   3
BRANCH   1   6
HETATM    6  O   UNK N   1      -1.543   0.490   0.422  0.00  0.00    -0.293 OA
BRANCH   6   7
HETATM    7  C   UNK N   1      -2.104   1.320  -0.552  0.00  0.00     0.176 C 
HETATM    8  C   UNK N   1      -3.148   2.210   0.086  0.00  0.00     0.034 C 
ENDBRANCH   6   7
ENDBRANCH   1   6
BRANCH   1   9
HETATM    9  O   UNK N   1       0.457   0.169   0.486  0.00  0.00    -0.293 OA
BRANCH   9  10
HETATM   10  C   UNK N   1       1.174   0.939  -0.436  0.00  0.00     0.176 C 
HETATM   11  C   UNK N   1       2.347   1.598   0.257  0.00  0.00     0.034 C 
ENDBRANCH   9  10
ENDBRANCH   1   9
TORSDOF 6
