REMARK  3 active torsions:
REMARK  status: ('A' for Active; 'I' for Inactive)
REMARK    1  A    between atoms: C_4  and  O_12 
REMARK    2  A    between atoms: C_5  and  C_6 
REMARK    3  A    between atoms: C_7  and  C_8 
ROOT
HETATM    1  S   UNK N   1       0.275  -1.112   1.511  0.00  0.00    -0.067 SA
HETATM    2  C   UNK N   1      -0.400  -2.384   0.467  0.00  0.00     0.218 A 
HETATM    3  C   UNK N   1      -1.461  -1.933  -0.401  0.00  0.00     0.026 A 
HETATM    4  C   UNK N   1      -1.707  -0.635  -0.287  0.00  0.00     0.076 A 
HETATM    5  C   UNK N   1      -0.848   0.122   0.701  0.00  0.00     0.079 A 
HETATM    6  O   UNK N   1      -0.004  -3.538   0.497  0.00  0.00    -0.280 OA
HETATM    7  C   UNK N   1      -2.214  -2.842  -1.320  0.00  0.00     0.056 C 
HETATM    8  C   UNK N   1      -1.752   0.695   1.775  0.00  0.00     0.039 C 
ENDROOT
BRANCH   5   9
HETATM    9  C   UNK N   1      -0.164   1.287  -0.002  0.00  0.00     0.007 C 
HETATM   10  C   UNK N   1       1.140   1.557  -0.219  0.00  0.00    -0.065 C 
HETATM   11  C   UNK N   1       2.250   0.636   0.187  0.00  0.00     0.048 C 
BRANCH  10  12
HETATM   12  C   UNK N   1       1.470   2.841  -0.868  0.00  0.00    -0.004 C 
HETATM   13  C   UNK N   1       2.729   3.248  -1.037  0.00  0.00     0.012 C 
ENDBRANCH  10  12
ENDBRANCH   5   9
BRANCH   4  14
HETATM   14  O   UNK N   1      -2.676  -0.029  -1.005  0.00  0.00    -0.362 OA
HETATM   15  H   UNK N   1      -2.648   0.764  -1.504  0.00  0.00     0.217 HD
ENDBRANCH   4  14
TORSDOF 3
