REMARK  8 active torsions:
REMARK  status: ('A' for Active; 'I' for Inactive)
REMARK    1  A    between atoms: N_4  and  S_17 
REMARK    2  A    between atoms: C_5  and  C_7 
REMARK       I    between atoms: C_7  and  N_8 
REMARK    3  A    between atoms: C_10  and  N_8 
REMARK    4  A    between atoms: C_10  and  C_11 
REMARK    5  A    between atoms: C_10  and  C_12 
REMARK    6  A    between atoms: C_11  and  C_15 
REMARK    7  A    between atoms: C_12  and  O_13 
REMARK    8  A    between atoms: S_17  and  C_18 
ROOT
HETATM    1  S   UNK N   1       2.849  -1.332   0.667  0.00  0.00    -0.165 SA
HETATM    2  C   UNK N   1       2.114  -2.786  -0.138  0.00  0.00     0.094 C 
HETATM    3  C   UNK N   1       1.068  -2.321  -1.132  0.00  0.00     0.146 C 
HETATM    4  N   UNK N   1      -0.052  -1.748  -0.395  0.00  0.00    -0.291 N 
HETATM    5  C   UNK N   1       0.195  -0.495   0.376  0.00  0.00     0.197 C 
HETATM    6  C   UNK N   1       1.278  -0.780   1.428  0.00  0.00     0.109 C 
ENDROOT
BRANCH   5   7
HETATM    7  C   UNK N   1       0.515   0.691  -0.519  0.00  0.00     0.242 C 
HETATM    8  N   UNK N   1       1.629   1.443  -0.308  0.00  0.00    -0.345 N 
HETATM    9  H   UNK N   1       2.212   1.211   0.450  0.00  0.00     0.163 HD
HETATM   10  O   UNK N   1      -0.278   1.006  -1.397  0.00  0.00    -0.271 OA
BRANCH   8  11
HETATM   11  C   UNK N   1       2.004   2.573  -1.144  0.00  0.00     0.182 C 
BRANCH  11  12
HETATM   12  C   UNK N   1       3.467   2.442  -1.582  0.00  0.00     0.040 C 
BRANCH  12  13
HETATM   13  C   UNK N   1       4.480   2.641  -0.454  0.00  0.00    -0.020 C 
HETATM   14  C   UNK N   1       4.574   1.421   0.436  0.00  0.00     0.009 C 
HETATM   15  C   UNK N   1       5.843   2.916  -1.050  0.00  0.00     0.009 C 
ENDBRANCH  12  13
ENDBRANCH  11  12
BRANCH  11  16
HETATM   16  C   UNK N   1       1.773   3.885  -0.435  0.00  0.00     0.163 C 
HETATM   17  O   UNK N   1       1.339   3.911   0.707  0.00  0.00    -0.648 OA
BRANCH  16  18
HETATM   18  O   UNK N   1       2.040   5.043  -1.071  0.00  0.00    -0.775 OA
HETATM   19  H   UNK N   1       2.830   5.284  -1.513  0.00  0.00     0.167 HD
ENDBRANCH  16  18
ENDBRANCH  11  16
ENDBRANCH   8  11
ENDBRANCH   5   7
BRANCH   4  20
HETATM   20  S   UNK N   1      -1.657  -2.492  -0.753  0.00  0.00     0.261 S 
HETATM   21  O   UNK N   1      -1.775  -1.140  -1.467  0.00  0.00    -0.200 OA
HETATM   22  O   UNK N   1      -1.706  -2.315   0.774  0.00  0.00    -0.200 OA
BRANCH  20  23
HETATM   23  C   UNK N   1      -3.261  -1.723  -0.211  0.00  0.00     0.079 A 
HETATM   24  C   UNK N   1      -4.412  -2.524  -0.275  0.00  0.00     0.026 A 
HETATM   25  C   UNK N   1      -5.654  -2.028   0.136  0.00  0.00     0.008 A 
HETATM   26  C   UNK N   1      -5.768  -0.720   0.616  0.00  0.00    -0.062 A 
HETATM   27  C   UNK N   1      -4.644   0.099   0.692  0.00  0.00     0.008 A 
HETATM   28  C   UNK N   1      -7.090  -0.199   1.050  0.00  0.00     0.048 C 
HETATM   29  C   UNK N   1      -3.401  -0.388   0.293  0.00  0.00     0.026 A 
ENDBRANCH  20  23
ENDBRANCH   4  20
TORSDOF 8
