REMARK  5 active torsions:
REMARK  status: ('A' for Active; 'I' for Inactive)
REMARK    1  A    between atoms: C_2  and  N_1 
REMARK    2  A    between atoms: C_2  and  C_3 
REMARK    3  A    between atoms: C_2  and  C_5 
REMARK    4  A    between atoms: C_5  and  C_6 
REMARK    5  A    between atoms: C_11  and  O_12 
ROOT
HETATM    1  C   UNK N   1       0.088  -0.733   0.014  0.00  0.00    -0.056 A 
HETATM    2  C   UNK N   1       0.012  -2.124   0.151  0.00  0.00     0.010 A 
HETATM    3  C   UNK N   1      -1.095   0.004  -0.162  0.00  0.00     0.010 A 
HETATM    4  C   UNK N   1      -1.228  -2.770   0.121  0.00  0.00     0.037 A 
HETATM    5  C   UNK N   1      -2.333  -0.640  -0.189  0.00  0.00     0.037 A 
HETATM    6  C   UNK N   1      -2.401  -2.027  -0.043  0.00  0.00     0.065 A 
ENDROOT
BRANCH   1   7
HETATM    7  C   UNK N   1       1.439  -0.069   0.091  0.00  0.00     0.070 C 
BRANCH   7   8
HETATM    8  C   UNK N   1       1.450   1.453  -0.082  0.00  0.00     0.140 C 
BRANCH   8   9
HETATM    9  N   UNK N   1       0.622   2.086   0.934  0.00  0.00    -0.420 N 
HETATM   10  H   UNK N   1       0.716   2.810   1.646  0.00  0.00     0.150 HD
HETATM   11  H   UNK N   1      -0.320   1.694   0.934  0.00  0.00     0.150 HD
ENDBRANCH   8   9
BRANCH   8  12
HETATM   12  C   UNK N   1       2.851   1.947   0.059  0.00  0.00     0.255 C 
HETATM   13  O   UNK N   1       3.098   3.139  -0.043  0.00  0.00    -0.305 OA
ENDBRANCH   8  12
ENDBRANCH   7   8
ENDBRANCH   1   7
BRANCH   6  14
HETATM   14  O   UNK N   1      -3.592  -2.645  -0.057  0.00  0.00    -0.361 OA
HETATM   15  H   UNK N   1      -4.382  -2.141  -0.067  0.00  0.00     0.217 HD
ENDBRANCH   6  14
TORSDOF 5
