REMARK  5 active torsions:
REMARK  status: ('A' for Active; 'I' for Inactive)
REMARK    1  A    between atoms: C_2  and  N_1 
REMARK    2  A    between atoms: C_2  and  C_3 
REMARK    3  A    between atoms: C_2  and  C_5 
REMARK       I    between atoms: C_3  and  N_13 
REMARK    4  A    between atoms: C_5  and  C_6 
REMARK    5  A    between atoms: O_11  and  C_12 
ROOT
HETATM    1  C   UNK N   1       1.147   1.472  -0.106  0.00  0.00     0.171 C 
ENDROOT
BRANCH   1   2
HETATM    2  N   UNK N   1       0.338   2.032   0.966  0.00  0.00    -0.418 N 
HETATM    3  H   UNK N   1       0.394   2.720   1.718  0.00  0.00     0.150 HD
HETATM    4  H   UNK N   1      -0.584   1.596   0.966  0.00  0.00     0.150 HD
ENDBRANCH   1   2
BRANCH   1   5
HETATM    5  C   UNK N   1       2.549   2.012   0.024  0.00  0.00     0.237 C 
HETATM    6  O   UNK N   1       2.736   3.217  -0.005  0.00  0.00    -0.271 OA
HETATM    7  N   UNK N   1       3.603   1.181   0.182  0.00  0.00    -0.368 N 
HETATM    8  H   UNK N   1       3.463   0.214   0.298  0.00  0.00     0.159 HD
HETATM    9  H   UNK N   1       4.517   1.546   0.182  0.00  0.00     0.159 HD
ENDBRANCH   1   5
BRANCH   1  10
HETATM   10  C   UNK N   1       1.128  -0.064  -0.040  0.00  0.00     0.072 C 
BRANCH  10  11
HETATM   11  C   UNK N   1      -0.223  -0.728  -0.071  0.00  0.00    -0.056 A 
HETATM   12  C   UNK N   1      -0.281  -2.124   0.001  0.00  0.00     0.010 A 
HETATM   13  C   UNK N   1      -1.516  -2.779   0.026  0.00  0.00     0.037 A 
HETATM   14  C   UNK N   1      -2.701  -2.038  -0.015  0.00  0.00     0.065 A 
HETATM   15  C   UNK N   1      -2.651  -0.645  -0.098  0.00  0.00     0.037 A 
HETATM   16  C   UNK N   1      -1.417   0.008  -0.128  0.00  0.00     0.010 A 
BRANCH  14  17
HETATM   17  O   UNK N   1      -3.886  -2.666   0.031  0.00  0.00    -0.361 OA
HETATM   18  H   UNK N   1      -4.680  -2.168   0.063  0.00  0.00     0.217 HD
ENDBRANCH  14  17
ENDBRANCH  10  11
ENDBRANCH   1  10
TORSDOF 5
