REMARK  6 active torsions:
REMARK  status: ('A' for Active; 'I' for Inactive)
REMARK    1  A    between atoms: C_2  and  N_1 
REMARK    2  A    between atoms: C_2  and  C_3 
REMARK    3  A    between atoms: C_2  and  C_11 
REMARK    4  A    between atoms: C_3  and  C_4 
REMARK    5  A    between atoms: C_9  and  O_10 
REMARK    6  A    between atoms: C_11  and  O_13 
ROOT
HETATM    1  C   UNK N   1       0.055  -0.589  -0.009  0.00  0.00    -0.053 A 
HETATM    2  C   UNK N   1       0.152  -1.980   0.016  0.00  0.00     0.028 A 
HETATM    3  C   UNK N   1      -0.995  -2.772   0.017  0.00  0.00     0.041 A 
HETATM    4  C   UNK N   1      -1.210   0.015  -0.032  0.00  0.00     0.028 A 
HETATM    5  C   UNK N   1      -2.367  -0.769  -0.024  0.00  0.00     0.041 A 
HETATM    6  C   UNK N   1      -2.262  -2.169   0.001  0.00  0.00     0.098 A 
HETATM    7  I   UNK N   1      -0.769  -4.869   0.050  0.00  0.00    -0.042 I 
HETATM    8  I   UNK N   1      -4.247   0.191  -0.035  0.00  0.00    -0.042 I 
ENDROOT
BRANCH   1   9
HETATM    9  C   UNK N   1       1.329   0.203   0.020  0.00  0.00     0.074 C 
BRANCH   9  10
HETATM   10  C   UNK N   1       1.216   1.727  -0.079  0.00  0.00     0.177 C 
BRANCH  10  11
HETATM   11  N   UNK N   1       0.395   2.247   1.005  0.00  0.00    -0.417 N 
HETATM   12  H   UNK N   1       0.423   2.927   1.764  0.00  0.00     0.150 HD
HETATM   13  H   UNK N   1      -0.508   1.774   1.005  0.00  0.00     0.150 HD
ENDBRANCH  10  11
BRANCH  10  14
HETATM   14  C   UNK N   1       2.584   2.347   0.007  0.00  0.00     0.163 C 
HETATM   15  O   UNK N   1       2.708   3.558  -0.070  0.00  0.00    -0.648 OA
BRANCH  14  16
HETATM   16  O   UNK N   1       3.681   1.579   0.177  0.00  0.00    -0.775 OA
HETATM   17  H   UNK N   1       3.600   0.653   0.296  0.00  0.00     0.167 HD
ENDBRANCH  14  16
ENDBRANCH  10  14
ENDBRANCH   9  10
ENDBRANCH   1   9
BRANCH   6  18
HETATM   18  O   UNK N   1      -3.371  -2.930   0.012  0.00  0.00    -0.358 OA
HETATM   19  H   UNK N   1      -4.216  -2.525   0.020  0.00  0.00     0.217 HD
ENDBRANCH   6  18
TORSDOF 6
