REMARK  6 active torsions:
REMARK  status: ('A' for Active; 'I' for Inactive)
REMARK    1  A    between atoms: C_1  and  C_7 
REMARK    2  A    between atoms: C_2  and  O_8 
REMARK    3  A    between atoms: C_3  and  O_9 
REMARK    4  A    between atoms: C_4  and  N_10 
REMARK    5  A    between atoms: C_5  and  O_11 
REMARK    6  A    between atoms: C_7  and  O_15 
REMARK       I    between atoms: N_10  and  C_12 
ROOT
HETATM    1  C   UNK N   1      -2.177   0.699   0.241  0.00  0.00     0.179 C 
HETATM    2  C   UNK N   1      -2.257  -0.735  -0.297  0.00  0.00     0.180 C 
HETATM    3  C   UNK N   1      -0.994  -1.487   0.123  0.00  0.00     0.177 C 
HETATM    4  C   UNK N   1       0.268  -0.698  -0.236  0.00  0.00     0.170 C 
HETATM    5  C   UNK N   1       0.085   0.720   0.344  0.00  0.00     0.282 C 
HETATM    6  O   UNK N   1      -1.025   1.323  -0.274  0.00  0.00    -0.349 OA
ENDROOT
BRANCH   4   7
HETATM    7  N   UNK N   1       1.412  -1.385   0.333  0.00  0.00    -0.349 N 
HETATM    8  C   UNK N   1       2.699  -1.124  -0.003  0.00  0.00     0.214 C 
HETATM    9  C   UNK N   1       3.793  -1.925   0.612  0.00  0.00     0.117 C 
HETATM   10  O   UNK N   1       2.973  -0.261  -0.824  0.00  0.00    -0.274 OA
HETATM   11  H   UNK N   1       1.243  -2.084   1.005  0.00  0.00     0.163 HD
ENDBRANCH   4   7
BRANCH   3  12
HETATM   12  O   UNK N   1      -0.967  -2.749  -0.472  0.00  0.00    -0.391 OA
HETATM   13  H   UNK N   1      -1.717  -3.204  -0.886  0.00  0.00     0.210 HD
ENDBRANCH   3  12
BRANCH   5  14
HETATM   14  O   UNK N   1       1.209   1.515   0.123  0.00  0.00    -0.369 OA
HETATM   15  H   UNK N   1       2.079   1.115  -0.030  0.00  0.00     0.212 HD
ENDBRANCH   5  14
BRANCH   2  16
HETATM   16  O   UNK N   1      -3.378  -1.385   0.226  0.00  0.00    -0.390 OA
HETATM   17  H   UNK N   1      -4.158  -0.937   0.588  0.00  0.00     0.210 HD
ENDBRANCH   2  16
BRANCH   1  18
HETATM   18  C   UNK N   1      -3.406   1.482  -0.195  0.00  0.00     0.198 C 
BRANCH  18  19
HETATM   19  O   UNK N   1      -3.348   2.784   0.301  0.00  0.00    -0.398 OA
HETATM   20  H   UNK N   1      -2.544   3.202   0.646  0.00  0.00     0.209 HD
ENDBRANCH  18  19
ENDBRANCH   1  18
TORSDOF 6
