REMARK  6 active torsions:
REMARK  status: ('A' for Active; 'I' for Inactive)
REMARK    1  A    between atoms: C_1  and  C_8 
REMARK    2  A    between atoms: C_3  and  N_25 
REMARK       I    between atoms: C_13  and  N_16 
REMARK    3  A    between atoms: N_16  and  C_17 
REMARK    4  A    between atoms: N_28  and  C_31 
REMARK    5  A    between atoms: C_31  and  C_32 
REMARK    6  A    between atoms: C_32  and  N_33 
ROOT
HETATM    1  C   UNK N   1      -2.822  -1.112   0.200  0.00  0.00    -0.004 A 
HETATM    2  C   UNK N   1      -1.611  -1.721   0.312  0.00  0.00     0.062 A 
HETATM    3  C   UNK N   1      -1.440  -3.066   0.245  0.00  0.00     0.103 A 
HETATM    4  N   UNK N   1      -2.541  -3.868   0.128  0.00  0.00    -0.352 N 
ATOM      5  HN  UNK N   1      -2.429  -4.881   0.080  1.00  0.00     0.166 HD
HETATM    6  C   UNK N   1      -3.799  -3.315   0.076  0.00  0.00     0.090 A 
HETATM    7  C   UNK N   1      -3.965  -1.909   0.059  0.00  0.00     0.031 A 
ENDROOT
BRANCH   1   8
HETATM    8  C   UNK N   1      -2.700   0.324  -0.028  0.00  0.00     0.060 A 
HETATM    9  C   UNK N   1      -3.679   1.085  -0.659  0.00  0.00     0.048 A 
HETATM   10  C   UNK N   1      -3.343   2.381  -1.059  0.00  0.00     0.108 A 
HETATM   11  N   UNK N   1      -2.086   2.863  -0.835  0.00  0.00    -0.202 N 
HETATM   12  C   UNK N   1      -1.155   2.102  -0.203  0.00  0.00     0.683 A 
ATOM     13  HN  UNK N   1      -1.843   3.804  -1.145  1.00  0.00     0.183 HD
HETATM   14  N   UNK N   1      -1.460   0.861   0.174  0.00  0.00    -0.191 N 
HETATM   15  N   UNK N   1       0.163   2.587   0.026  0.00  0.00    -0.192 N 
ATOM     16  HN  UNK N   1      -0.745   0.293   0.629  1.00  0.00     0.184 HD
HETATM   17  H   UNK N   1       0.909   1.951   0.117  0.00  0.00     0.184 HD
BRANCH  15  18
HETATM   18  C   UNK N   1       0.406   3.968   0.122  0.00  0.00     0.050 A 
HETATM   19  C   UNK N   1      -0.620   4.814   0.544  0.00  0.00     0.054 A 
HETATM   20  C   UNK N   1      -0.452   6.183   0.561  0.00  0.00     0.042 A 
HETATM   21  C   UNK N   1       0.769   6.733   0.140  0.00  0.00    -0.040 A 
HETATM   22 Cl   UNK N   1      -1.805   7.170   1.079  0.00  0.00    -0.084 Cl
HETATM   23  C   UNK N   1       1.818   5.888  -0.252  0.00  0.00     0.011 A 
HETATM   24  C   UNK N   1       0.960   8.206   0.096  0.00  0.00     0.050 C 
HETATM   25  C   UNK N   1       1.641   4.500  -0.255  0.00  0.00     0.030 A 
ENDBRANCH  15  18
ENDBRANCH   1   8
BRANCH   3  26
HETATM   26  N   UNK N   1      -0.100  -3.531   0.123  0.00  0.00    -0.364 N 
HETATM   27  C   UNK N   1       0.956  -2.508   0.127  0.00  0.00     0.154 C 
HETATM   28  C   UNK N   1       2.273  -2.976  -0.424  0.00  0.00     0.292 C 
HETATM   29  N   UNK N   1       2.551  -4.275   0.133  0.00  0.00     0.093 N 
HETATM   30  C   UNK N   1       1.635  -5.196  -0.533  0.00  0.00     0.292 C 
HETATM   31  C   UNK N   1       0.181  -4.938  -0.109  0.00  0.00     0.154 C 
BRANCH  29  32
HETATM   32  C   UNK N   1       3.902  -4.602  -0.272  0.00  0.00     0.291 C 
BRANCH  32  33
HETATM   33  C   UNK N   1       4.439  -5.708   0.605  0.00  0.00     0.141 C 
BRANCH  33  34
HETATM   34  N   UNK N   1       5.566  -6.329  -0.061  0.00  0.00    -0.428 N 
HETATM   35  H   UNK N   1       5.584  -7.235  -0.530  0.00  0.00     0.149 HD
HETATM   36  H   UNK N   1       6.439  -5.801  -0.061  0.00  0.00     0.149 HD
ENDBRANCH  33  34
ENDBRANCH  32  33
ENDBRANCH  29  32
ENDBRANCH   3  26
TORSDOF 6
