REMARK  6 active torsions:
REMARK  status: ('A' for Active; 'I' for Inactive)
REMARK       I    between atoms: C_4  and  N_22 
REMARK       I    between atoms: C_7  and  N_23 
REMARK    1  A    between atoms: N_8  and  O_9 
REMARK    2  A    between atoms: O_9  and  C_10 
REMARK    3  A    between atoms: C_10  and  C_11 
REMARK    4  A    between atoms: C_11  and  C_12 
REMARK    5  A    between atoms: C_12  and  O_13 
REMARK    6  A    between atoms: O_13  and  C_14 
ROOT
HETATM    1  C   UNK N   1      -2.177  -1.201   0.386  0.00  0.00     0.158 A 
HETATM    2  N   UNK N   1      -3.412  -1.716  -0.181  0.00  0.00    -0.197 N 
ATOM      3  HN  UNK N   1      -3.485  -2.721  -0.339  1.00  0.00     0.180 HD
HETATM    4  C   UNK N   1      -4.421  -0.979  -0.495  0.00  0.00     0.688 A 
HETATM    5  N   UNK N   1      -4.382   0.426  -0.314  0.00  0.00    -0.021 N 
ATOM      6  HN  UNK N   1      -5.182   0.987  -0.606  1.00  0.00     0.203 HD
HETATM    7  C   UNK N   1      -3.363   1.008   0.208  0.00  0.00     0.714 A 
HETATM    8  N   UNK N   1      -2.229   0.250   0.622  0.00  0.00    -0.058 N 
HETATM    9  C   UNK N   1      -1.054  -1.548  -0.581  0.00  0.00     0.066 C 
HETATM   10  C   UNK N   1      -1.925  -1.922   1.697  0.00  0.00     0.066 C 
HETATM   11  N   UNK N   1      -5.586  -1.581  -1.016  0.00  0.00    -0.234 N 
HETATM   12  N   UNK N   1      -3.387   2.408   0.397  0.00  0.00    -0.232 N 
HETATM   13  H   UNK N   1      -6.356  -1.087  -1.379  0.00  0.00     0.174 HD
HETATM   14  H   UNK N   1      -5.633  -2.564  -1.016  0.00  0.00     0.174 HD
HETATM   15  H   UNK N   1      -2.550   2.910   0.529  0.00  0.00     0.174 HD
HETATM   16  H   UNK N   1      -4.247   2.886   0.397  0.00  0.00     0.174 HD
ENDROOT
BRANCH   8  17
HETATM   17  O   UNK N   1      -1.294   0.864   1.388  0.00  0.00    -0.262 OA
BRANCH  17  18
HETATM   18  C   UNK N   1      -0.085   0.862   0.683  0.00  0.00     0.204 C 
BRANCH  18  19
HETATM   19  C   UNK N   1       0.000   2.028  -0.279  0.00  0.00     0.055 C 
BRANCH  19  20
HETATM   20  C   UNK N   1       1.040   1.691  -1.329  0.00  0.00     0.178 C 
BRANCH  20  21
HETATM   21  O   UNK N   1       2.309   1.856  -0.817  0.00  0.00    -0.351 OA
BRANCH  21  22
HETATM   22  C   UNK N   1       3.140   0.825  -0.525  0.00  0.00     0.068 A 
HETATM   23  C   UNK N   1       4.453   1.106  -0.133  0.00  0.00     0.038 A 
HETATM   24  C   UNK N   1       5.335   0.068   0.180  0.00  0.00     0.022 A 
HETATM   25  C   UNK N   1       4.907  -1.260   0.109  0.00  0.00     0.011 A 
HETATM   26  C   UNK N   1       3.596  -1.552  -0.279  0.00  0.00     0.022 A 
HETATM   27 Br   UNK N   1       6.114  -2.671   0.538  0.00  0.00    -0.051 Br
HETATM   28  C   UNK N   1       2.714  -0.515  -0.598  0.00  0.00     0.038 A 
ENDBRANCH  21  22
ENDBRANCH  20  21
ENDBRANCH  19  20
ENDBRANCH  18  19
ENDBRANCH  17  18
ENDBRANCH   8  17
TORSDOF 6
