REMARK  7 active torsions:
REMARK  status: ('A' for Active; 'I' for Inactive)
REMARK    1  A    between atoms: C_1  and  O_3 
REMARK    2  A    between atoms: C_4  and  C_1 
REMARK       I    between atoms: N_8  and  C_9 
REMARK    3  A    between atoms: C_9  and  C_11 
REMARK    4  A    between atoms: C_11  and  N_13 
REMARK       I    between atoms: N_13  and  C_14 
REMARK    5  A    between atoms: C_14  and  O_16 
REMARK    6  A    between atoms: O_16  and  C_17 
REMARK    7  A    between atoms: C_17  and  C_18 
ROOT
HETATM    1  C   UNK N   1      -0.872   1.412   0.454  0.00  0.00     0.175 C 
HETATM    2  C   UNK N   1      -0.362   2.327  -0.657  0.00  0.00     0.042 C 
ENDROOT
BRANCH   1   3
HETATM    3  C   UNK N   1      -1.915   0.499  -0.161  0.00  0.00     0.243 C 
HETATM    4  N   UNK N   1      -3.251   0.650   0.098  0.00  0.00    -0.336 N 
HETATM    5  C   UNK N   1      -4.264  -0.221  -0.460  0.00  0.00     0.185 C 
HETATM    6  C   UNK N   1      -3.768   1.761   0.840  0.00  0.00     0.127 C 
HETATM    7  C   UNK N   1      -5.587   0.451  -0.104  0.00  0.00     0.038 C 
HETATM    8  C   UNK N   1      -5.245   1.807   0.500  0.00  0.00     0.022 C 
HETATM    9  O   UNK N   1      -1.539  -0.375  -0.928  0.00  0.00    -0.271 OA
BRANCH   5  10
HETATM   10  C   UNK N   1      -4.195  -1.618   0.132  0.00  0.00     0.163 C 
HETATM   11  O   UNK N   1      -5.131  -2.068   0.777  0.00  0.00    -0.648 OA
BRANCH  10  12
HETATM   12  O   UNK N   1      -3.104  -2.384  -0.056  0.00  0.00    -0.775 OA
HETATM   13  H   UNK N   1      -3.186  -3.308  -0.187  0.00  0.00     0.167 HD
ENDBRANCH  10  12
ENDBRANCH   5  10
ENDBRANCH   1   3
BRANCH   1  14
HETATM   14  N   UNK N   1       0.150   0.546   1.030  0.00  0.00    -0.324 N 
HETATM   15  C   UNK N   1       1.487   0.587   0.786  0.00  0.00     0.361 C 
HETATM   16  O   UNK N   1       2.001   1.536   0.213  0.00  0.00    -0.238 OA
HETATM   17  H   UNK N   1      -0.161  -0.141   1.663  0.00  0.00     0.165 HD
BRANCH  15  18
HETATM   18  O   UNK N   1       2.221  -0.511   1.043  0.00  0.00    -0.299 OA
BRANCH  18  19
HETATM   19  C   UNK N   1       2.779  -1.180  -0.022  0.00  0.00     0.219 C 
BRANCH  19  20
HETATM   20  C   UNK N   1       4.257  -1.235   0.066  0.00  0.00    -0.034 A 
HETATM   21  C   UNK N   1       5.018  -0.061   0.056  0.00  0.00     0.009 A 
HETATM   22  C   UNK N   1       6.413  -0.137   0.112  0.00  0.00     0.001 A 
HETATM   23  C   UNK N   1       7.043  -1.385   0.171  0.00  0.00     0.000 A 
HETATM   24  C   UNK N   1       6.280  -2.556   0.171  0.00  0.00     0.001 A 
HETATM   25  C   UNK N   1       4.887  -2.480   0.115  0.00  0.00     0.009 A 
ENDBRANCH  19  20
ENDBRANCH  18  19
ENDBRANCH  15  18
ENDBRANCH   1  14
TORSDOF 7
