REMARK  6 active torsions:
REMARK  status: ('A' for Active; 'I' for Inactive)
REMARK    1  A    between atoms: C_1  and  C_7 
REMARK    2  A    between atoms: C_1  and  N_13 
REMARK       I    between atoms: C_2  and  N_13 
REMARK    3  A    between atoms: C_3  and  C_9 
REMARK       I    between atoms: C_3  and  N_17 
REMARK    4  A    between atoms: C_4  and  N_17 
REMARK    5  A    between atoms: C_4  and  C_19 
REMARK    6  A    between atoms: C_6  and  N_12 
ROOT
HETATM    1  C   UNK N   1      -3.884   1.561  -0.041  0.00  0.00     0.033 A 
HETATM    2  C   UNK N   1      -2.504   1.587   0.294  0.00  0.00    -0.013 A 
HETATM    3  C   UNK N   1      -1.797   0.378   0.251  0.00  0.00     0.028 A 
HETATM    4  C   UNK N   1      -2.406  -0.832  -0.127  0.00  0.00     0.032 A 
HETATM    5  C   UNK N   1      -3.754  -0.822  -0.499  0.00  0.00     0.019 A 
HETATM    6  C   UNK N   1      -4.486   0.362  -0.442  0.00  0.00     0.030 A 
ENDROOT
BRANCH   4   7
HETATM    7  C   UNK N   1      -1.622  -2.104  -0.210  0.00  0.00     0.253 C 
HETATM    8  N   UNK N   1      -0.438  -2.282   0.462  0.00  0.00    -0.347 N 
HETATM    9  C   UNK N   1      -0.014  -1.377   1.508  0.00  0.00     0.153 C 
HETATM   10  O   UNK N   1      -2.056  -3.008  -0.911  0.00  0.00    -0.267 OA
BRANCH   8  11
HETATM   11  C   UNK N   1       0.376  -3.452   0.191  0.00  0.00     0.182 C 
BRANCH  11  12
HETATM   12  C   UNK N   1       1.841  -3.107   0.047  0.00  0.00     0.030 A 
HETATM   13  C   UNK N   1       2.864  -3.955   0.470  0.00  0.00     0.040 A 
HETATM   14  C   UNK N   1       4.028  -3.250   0.230  0.00  0.00    -0.007 A 
HETATM   15  C   UNK N   1       3.690  -2.038  -0.309  0.00  0.00     0.044 A 
HETATM   16  C   UNK N   1       5.352  -3.604   0.469  0.00  0.00     0.014 A 
HETATM   17  N   UNK N   1       2.358  -1.943  -0.436  0.00  0.00    -0.352 N 
HETATM   18  C   UNK N   1       4.654  -1.085  -0.637  0.00  0.00     0.030 A 
HETATM   19  C   UNK N   1       1.642  -0.792  -0.972  0.00  0.00     0.156 C 
HETATM   20  C   UNK N   1       6.003  -1.410  -0.401  0.00  0.00     0.002 A 
HETATM   21  C   UNK N   1       6.350  -2.667   0.146  0.00  0.00     0.001 A 
ENDBRANCH  11  12
ENDBRANCH   8  11
ENDBRANCH   4   7
BRANCH   2  22
HETATM   22  C   UNK N   1      -1.762   2.790   0.882  0.00  0.00     0.166 C 
BRANCH  22  23
HETATM   23  N   UNK N   1      -1.778   4.090   0.212  0.00  0.00    -0.352 N 
HETATM   24  C   UNK N   1      -0.615   4.750  -0.083  0.00  0.00     0.215 C 
HETATM   25  O   UNK N   1      -0.647   5.911  -0.471  0.00  0.00    -0.274 OA
HETATM   26  C   UNK N   1       0.721   4.102   0.100  0.00  0.00     0.117 C 
HETATM   27  C   UNK N   1      -3.018   4.817   0.105  0.00  0.00     0.152 C 
ENDBRANCH  22  23
ENDBRANCH   2  22
BRANCH   1  28
HETATM   28  N   UNK N   1      -4.694   2.704   0.058  0.00  0.00    -0.399 N 
HETATM   29  H   UNK N   1      -4.284   3.596   0.127  0.00  0.00     0.156 HD
HETATM   30  H   UNK N   1      -5.674   2.613   0.058  0.00  0.00     0.156 HD
ENDBRANCH   1  28
TORSDOF 6
