REMARK  5 active torsions:
REMARK  status: ('A' for Active; 'I' for Inactive)
REMARK    1  A    between atoms: C_3  and  C_1 
REMARK       I    between atoms: N_7  and  C_8 
REMARK    2  A    between atoms: C_10  and  C_8 
REMARK       I    between atoms: N_14  and  C_15 
REMARK    3  A    between atoms: C_15  and  O_17 
REMARK    4  A    between atoms: O_17  and  C_18 
REMARK    5  A    between atoms: C_18  and  C_19 
ROOT
HETATM    1  C   UNK N   1       0.494  -1.878   0.202  0.00  0.00     0.181 C 
HETATM    2  C   UNK N   1       0.797  -3.132  -0.611  0.00  0.00     0.037 C 
HETATM    3  C   UNK N   1      -0.533  -3.833  -0.780  0.00  0.00     0.022 C 
HETATM    4  C   UNK N   1      -1.534  -2.702  -0.830  0.00  0.00     0.129 C 
HETATM    5  N   UNK N   1      -0.887  -1.589  -0.179  0.00  0.00    -0.315 N 
HETATM    6  C   UNK N   1      -1.605  -0.437   0.031  0.00  0.00     0.363 C 
HETATM    7  O   UNK N   1      -2.751  -0.375  -0.384  0.00  0.00    -0.238 OA
ENDROOT
BRANCH   1   8
HETATM    8  C   UNK N   1       1.565  -0.808  -0.055  0.00  0.00     0.243 C 
HETATM    9  N   UNK N   1       2.903  -1.084   0.121  0.00  0.00    -0.339 N 
HETATM   10  C   UNK N   1       3.936  -0.070   0.116  0.00  0.00     0.148 C 
HETATM   11  C   UNK N   1       3.392  -2.406   0.405  0.00  0.00     0.127 C 
HETATM   12  C   UNK N   1       5.244  -0.841   0.188  0.00  0.00     0.034 C 
HETATM   13  C   UNK N   1       4.887  -2.256   0.622  0.00  0.00     0.022 C 
HETATM   14  O   UNK N   1       1.228   0.317  -0.386  0.00  0.00    -0.271 OA
BRANCH  10  15
HETATM   15  C   UNK N   1       3.929   0.796  -1.106  0.00  0.00     0.256 C 
HETATM   16  O   UNK N   1       4.720   1.721  -1.204  0.00  0.00    -0.305 OA
ENDBRANCH  10  15
ENDBRANCH   1   8
BRANCH   6  17
HETATM   17  O   UNK N   1      -1.064   0.639   0.663  0.00  0.00    -0.299 OA
BRANCH  17  18
HETATM   18  C   UNK N   1      -1.164   1.958   0.219  0.00  0.00     0.219 C 
BRANCH  18  19
HETATM   19  C   UNK N   1      -2.511   2.651   0.185  0.00  0.00    -0.034 A 
HETATM   20  C   UNK N   1      -3.734   1.981   0.326  0.00  0.00     0.009 A 
HETATM   21  C   UNK N   1      -4.944   2.678   0.242  0.00  0.00     0.001 A 
HETATM   22  C   UNK N   1      -4.942   4.060   0.034  0.00  0.00     0.000 A 
HETATM   23  C   UNK N   1      -3.730   4.741  -0.094  0.00  0.00     0.001 A 
HETATM   24  C   UNK N   1      -2.522   4.037  -0.028  0.00  0.00     0.009 A 
ENDBRANCH  18  19
ENDBRANCH  17  18
ENDBRANCH   6  17
TORSDOF 5
