REMARK  4 active torsions:
REMARK  status: ('A' for Active; 'I' for Inactive)
REMARK    1  A    between atoms: C_4  and  N_12 
REMARK    2  A    between atoms: N_15  and  C_17 
REMARK    3  A    between atoms: C_20  and  S_23 
REMARK    4  A    between atoms: S_23  and  N_26 
ROOT
HETATM    1  N   UNK N   1       0.682  -1.156   0.837  0.00  0.00    -0.294 N 
ATOM      2  HN  UNK N   1       1.326  -0.447   1.187  1.00  0.00     0.187 HD
HETATM    3  N   UNK N   1      -0.541  -0.928   0.841  0.00  0.00    -0.300 N 
ATOM      4  HN  UNK N   1      -1.210  -1.697   0.879  1.00  0.00     0.187 HD
ENDROOT
BRANCH   1   5
HETATM    5  C   UNK N   1       1.188  -2.377   0.358  0.00  0.00     0.129 A 
HETATM    6  C   UNK N   1       0.483  -3.563  -0.106  0.00  0.00     0.275 A 
HETATM    7  N   UNK N   1       1.378  -4.391  -0.682  0.00  0.00    -0.321 N 
HETATM    8  O   UNK N   1      -0.717  -3.781  -0.045  0.00  0.00    -0.266 OA
HETATM    9  C   UNK N   1       2.525  -3.815  -0.599  0.00  0.00     0.048 A 
ATOM     10  HN  UNK N   1       1.183  -5.300  -1.101  1.00  0.00     0.169 HD
HETATM   11  C   UNK N   1       3.726  -4.281  -1.122  0.00  0.00     0.032 A 
HETATM   12  C   UNK N   1       2.446  -2.588   0.034  0.00  0.00     0.026 A 
HETATM   13  C   UNK N   1       4.867  -3.465  -0.976  0.00  0.00     0.021 A 
HETATM   14  C   UNK N   1       4.781  -2.213  -0.322  0.00  0.00     0.011 A 
HETATM   15  C   UNK N   1       3.552  -1.760   0.184  0.00  0.00     0.035 A 
HETATM   16 Br   UNK N   1       6.334  -1.128  -0.123  0.00  0.00    -0.051 Br
ENDBRANCH   1   5
BRANCH   3  17
HETATM   17  C   UNK N   1      -0.991   0.409   0.792  0.00  0.00     0.048 A 
HETATM   18  C   UNK N   1      -2.357   0.677   0.672  0.00  0.00     0.032 A 
HETATM   19  C   UNK N   1      -2.790   1.979   0.404  0.00  0.00     0.027 A 
HETATM   20  C   UNK N   1      -1.854   3.007   0.235  0.00  0.00     0.079 A 
HETATM   21  C   UNK N   1      -0.492   2.744   0.364  0.00  0.00     0.027 A 
HETATM   22  C   UNK N   1      -0.061   1.450   0.633  0.00  0.00     0.032 A 
BRANCH  20  23
HETATM   23  S   UNK N   1      -2.386   4.658  -0.168  0.00  0.00     0.256 S 
HETATM   24  O   UNK N   1      -2.308   5.614   1.030  0.00  0.00    -0.201 OA
HETATM   25  O   UNK N   1      -1.472   5.339  -1.198  0.00  0.00    -0.201 OA
BRANCH  23  26
HETATM   26  N   UNK N   1      -4.015   4.848  -0.816  0.00  0.00    -0.324 N 
HETATM   27  H   UNK N   1      -4.390   5.719  -1.190  0.00  0.00     0.169 HD
HETATM   28  H   UNK N   1      -4.624   4.030  -0.816  0.00  0.00     0.169 HD
ENDBRANCH  23  26
ENDBRANCH  20  23
ENDBRANCH   3  17
TORSDOF 4
