REMARK  4 active torsions:
REMARK  status: ('A' for Active; 'I' for Inactive)
REMARK    1  A    between atoms: C_1  and  C_7 
REMARK    2  A    between atoms: C_7  and  N_8 
REMARK    3  A    between atoms: C_12  and  C_13 
REMARK    4  A    between atoms: C_18  and  O_19 
ROOT
HETATM    1  C   UNK N   1       3.553   0.247  -0.010  0.00  0.00     0.008 A 
HETATM    2  C   UNK N   1       3.566  -1.171   0.076  0.00  0.00     0.017 A 
HETATM    3  C   UNK N   1       2.358  -1.902   0.097  0.00  0.00     0.031 A 
HETATM    4  C   UNK N   1       1.167  -1.182   0.035  0.00  0.00     0.043 A 
HETATM    5  C   UNK N   1       1.158   0.179  -0.045  0.00  0.00    -0.006 A 
HETATM    6  C   UNK N   1       2.323   0.928  -0.074  0.00  0.00     0.029 A 
HETATM    7  N   UNK N   1      -0.088  -1.667   0.059  0.00  0.00    -0.355 N 
HETATM    8  C   UNK N   1      -0.141   0.598  -0.069  0.00  0.00     0.044 A 
HETATM    9  C   UNK N   1      -0.893  -0.574   0.000  0.00  0.00     0.046 A 
HETATM   10  H   UNK N   1      -0.364  -2.611   0.109  0.00  0.00     0.166 HD
ENDROOT
BRANCH   9  11
HETATM   11  C   UNK N   1      -2.375  -0.628   0.038  0.00  0.00     0.024 A 
HETATM   12  C   UNK N   1      -3.014  -1.877   0.054  0.00  0.00     0.016 A 
HETATM   13  C   UNK N   1      -4.409  -1.961   0.099  0.00  0.00     0.001 A 
HETATM   14  C   UNK N   1      -5.180  -0.798   0.134  0.00  0.00     0.003 A 
HETATM   15  C   UNK N   1      -4.560   0.451   0.122  0.00  0.00     0.037 A 
HETATM   16  C   UNK N   1      -3.167   0.547   0.074  0.00  0.00     0.078 A 
BRANCH  16  17
HETATM   17  O   UNK N   1      -2.604   1.768   0.073  0.00  0.00    -0.360 OA
HETATM   18  H   UNK N   1      -1.671   1.854   0.072  0.00  0.00     0.217 HD
ENDBRANCH  16  17
ENDBRANCH   9  11
BRANCH   1  19
HETATM   19  C   UNK N   1       4.816   1.016  -0.021  0.00  0.00     0.102 C 
HETATM   20  N   UNK N   1       4.793   2.297  -0.106  0.00  0.00    -0.385 N 
HETATM   21  H   UNK N   1       5.635   2.803  -0.171  0.00  0.00     0.157 HD
HETATM   22  H   UNK N   1       3.932   2.774  -0.106  0.00  0.00     0.157 HD
BRANCH  19  23
HETATM   23  N   UNK N   1       6.058   0.351   0.081  0.00  0.00    -0.385 N 
HETATM   24  H   UNK N   1       6.090  -0.630   0.153  0.00  0.00     0.157 HD
HETATM   25  H   UNK N   1       6.895   0.871   0.081  0.00  0.00     0.157 HD
ENDBRANCH  19  23
ENDBRANCH   1  19
TORSDOF 4
