REMARK  6 active torsions:
REMARK  status: ('A' for Active; 'I' for Inactive)
REMARK    1  A    between atoms: C_1  and  C_7 
REMARK    2  A    between atoms: C_7  and  N_8 
REMARK    3  A    between atoms: C_7  and  N_9 
REMARK    4  A    between atoms: C_14  and  C_15 
REMARK    5  A    between atoms: C_19  and  C_22 
REMARK    6  A    between atoms: C_20  and  O_21 
ROOT
HETATM    1  C   UNK N   1       4.879  -0.301   0.036  0.00  0.00     0.009 A 
HETATM    2  C   UNK N   1       5.038  -1.698   0.273  0.00  0.00     0.017 A 
HETATM    3  C   UNK N   1       3.927  -2.579   0.183  0.00  0.00     0.033 A 
HETATM    4  C   UNK N   1       2.691  -2.018  -0.133  0.00  0.00     0.060 A 
HETATM    5  C   UNK N   1       2.566  -0.689  -0.361  0.00  0.00     0.061 A 
HETATM    6  C   UNK N   1       3.616   0.200  -0.296  0.00  0.00     0.047 A 
HETATM    7  N   UNK N   1       1.470  -2.601  -0.204  0.00  0.00    -0.340 N 
HETATM    8  N   UNK N   1       1.303  -0.380  -0.573  0.00  0.00    -0.340 N 
ATOM      9  HN  UNK N   1       0.913   0.540  -0.776  1.00  0.00     0.167 HD
HETATM   10  C   UNK N   1       0.638  -1.553  -0.461  0.00  0.00     0.119 A 
HETATM   11  H   UNK N   1       1.239  -3.552  -0.096  0.00  0.00     0.167 HD
ENDROOT
BRANCH  10  12
HETATM   12  C   UNK N   1      -0.847  -1.584  -0.478  0.00  0.00     0.042 A 
HETATM   13  C   UNK N   1      -1.561  -2.787  -0.516  0.00  0.00     0.018 A 
HETATM   14  C   UNK N   1      -2.961  -2.768  -0.499  0.00  0.00     0.002 A 
HETATM   15  C   UNK N   1      -3.656  -1.552  -0.419  0.00  0.00     0.015 A 
HETATM   16  C   UNK N   1      -2.962  -0.331  -0.363  0.00  0.00     0.008 A 
HETATM   17  C   UNK N   1      -1.553  -0.360  -0.399  0.00  0.00     0.090 A 
BRANCH  16  18
HETATM   18  C   UNK N   1      -3.709   0.969  -0.244  0.00  0.00    -0.023 A 
HETATM   19  C   UNK N   1      -5.109   0.989  -0.149  0.00  0.00     0.012 A 
HETATM   20  C   UNK N   1      -5.794   2.205  -0.026  0.00  0.00     0.001 A 
HETATM   21  C   UNK N   1      -5.091   3.413   0.002  0.00  0.00     0.000 A 
HETATM   22  C   UNK N   1      -3.703   3.411  -0.092  0.00  0.00     0.001 A 
HETATM   23  C   UNK N   1      -3.024   2.201  -0.212  0.00  0.00     0.012 A 
ENDBRANCH  16  18
BRANCH  17  24
HETATM   24  O   UNK N   1      -0.867   0.795  -0.322  0.00  0.00    -0.359 OA
HETATM   25  H   UNK N   1       0.069   0.783  -0.269  0.00  0.00     0.217 HD
ENDBRANCH  17  24
ENDBRANCH  10  12
BRANCH   1  26
HETATM   26  C   UNK N   1       6.003   0.650   0.178  0.00  0.00     0.102 C 
BRANCH  26  27
HETATM   27  N   UNK N   1       7.270   0.199   0.604  0.00  0.00    -0.385 N 
HETATM   28  H   UNK N   1       7.440  -0.724   0.901  0.00  0.00     0.157 HD
HETATM   29  H   UNK N   1       8.019   0.838   0.604  0.00  0.00     0.157 HD
ENDBRANCH  26  27
BRANCH  26  30
HETATM   30  N   UNK N   1       5.815   1.905  -0.021  0.00  0.00    -0.385 N 
HETATM   31  H   UNK N   1       6.577   2.511  -0.174  0.00  0.00     0.157 HD
ATOM     32  HN  UNK N   1       4.866   2.280  -0.021  1.00  0.00     0.157 HD
ENDBRANCH  26  30
ENDBRANCH   1  26
TORSDOF 6
