REMARK  6 active torsions:
REMARK  status: ('A' for Active; 'I' for Inactive)
REMARK    1  A    between atoms: N_3  and  C_11 
REMARK    2  A    between atoms: N_4  and  C_5 
REMARK    3  A    between atoms: N_4  and  C_13 
REMARK       I    between atoms: N_4  and  C_14 
REMARK    4  A    between atoms: C_11  and  C_12 
REMARK    5  A    between atoms: C_12  and  C_16 
REMARK    6  A    between atoms: C_14  and  C_15 
ROOT
HETATM    1  N   UNK N   1       3.498  -1.125   0.313  0.00  0.00     0.089 N 
HETATM    2  C   UNK N   1       2.978   1.409  -0.031  0.00  0.00     0.100 C 
HETATM    3  C   UNK N   1       1.699   0.561   0.172  0.00  0.00     0.033 C 
HETATM    4  C   UNK N   1       3.807   0.837  -1.184  0.00  0.00     0.056 C 
HETATM    5  C   UNK N   1       2.056  -0.939   0.111  0.00  0.00     0.278 C 
HETATM    6  C   UNK N   1       4.247  -0.593  -0.835  0.00  0.00     0.274 C 
HETATM    7  C   UNK N   1       1.070   0.849   1.522  0.00  0.00     0.014 C 
ENDROOT
BRANCH   2   8
HETATM    8  N   UNK N   1       2.937   2.881  -0.053  0.00  0.00    -0.313 N 
HETATM    9  C   UNK N   1       1.744   3.575  -0.214  0.00  0.00     0.224 C 
HETATM   10  O   UNK N   1       0.700   2.965  -0.406  0.00  0.00    -0.273 OA
BRANCH   8  11
HETATM   11  C   UNK N   1       4.222   3.547   0.106  0.00  0.00     0.037 A 
HETATM   12  C   UNK N   1       4.404   4.922  -0.124  0.00  0.00     0.030 A 
HETATM   13  C   UNK N   1       5.666   5.514  -0.013  0.00  0.00     0.002 A 
HETATM   14  C   UNK N   1       6.775   4.740   0.328  0.00  0.00     0.000 A 
HETATM   15  C   UNK N   1       6.623   3.376   0.563  0.00  0.00     0.002 A 
HETATM   16  C   UNK N   1       5.363   2.787   0.451  0.00  0.00     0.030 A 
ENDBRANCH   8  11
BRANCH   9  17
HETATM   17  C   UNK N   1       1.671   5.084  -0.143  0.00  0.00     0.099 C 
HETATM   18  C   UNK N   1       0.258   5.638  -0.243  0.00  0.00     0.014 C 
ENDBRANCH   9  17
ENDBRANCH   2   8
BRANCH   1  19
HETATM   19  C   UNK N   1       3.845  -2.519   0.587  0.00  0.00     0.277 C 
BRANCH  19  20
HETATM   20  C   UNK N   1       3.675  -3.436  -0.619  0.00  0.00     0.076 C 
BRANCH  20  21
HETATM   21  C   UNK N   1       2.644  -4.463  -0.321  0.00  0.00    -0.016 A 
HETATM   22  S   UNK N   1       1.029  -4.199  -0.107  0.00  0.00    -0.106 SA
HETATM   23  C   UNK N   1       0.524  -5.750   0.189  0.00  0.00     0.050 A 
HETATM   24  C   UNK N   1       1.676  -6.549   0.121  0.00  0.00     0.008 A 
HETATM   25  C   UNK N   1       2.869  -5.826  -0.168  0.00  0.00     0.015 A 
ENDBRANCH  20  21
ENDBRANCH  19  20
ENDBRANCH   1  19
TORSDOF 6
