REMARK  9 active torsions:
REMARK  status: ('A' for Active; 'I' for Inactive)
REMARK    1  A    between atoms: O_1  and  C_5 
REMARK    2  A    between atoms: O_1  and  C_13 
REMARK    3  A    between atoms: O_2  and  C_8 
REMARK    4  A    between atoms: O_2  and  C_14 
REMARK    5  A    between atoms: N_4  and  C_15 
REMARK    6  A    between atoms: C_5  and  C_6 
REMARK    7  A    between atoms: C_5  and  C_7 
REMARK    8  A    between atoms: C_5  and  C_8 
REMARK    9  A    between atoms: C_14  and  C_15 
ROOT
HETATM    1  C   UNK N   1       3.467   0.005  -0.485  0.00  0.00     0.203 C 
ENDROOT
BRANCH   1   2
HETATM    2  O   UNK N   1       2.172   0.243  -1.033  0.00  0.00    -0.361 OA
BRANCH   2   3
HETATM    3  C   UNK N   1       1.631  -0.902  -1.645  0.00  0.00     0.166 C 
HETATM    4  C   UNK N   1       0.194  -1.071  -1.192  0.00  0.00     0.033 C 
ENDBRANCH   2   3
ENDBRANCH   1   2
BRANCH   1   5
HETATM    5  C   UNK N   1       3.468  -1.218   0.469  0.00  0.00    -0.009 A 
HETATM    6  C   UNK N   1       4.525  -2.152   0.455  0.00  0.00     0.011 A 
HETATM    7  C   UNK N   1       4.478  -3.308   1.234  0.00  0.00     0.001 A 
HETATM    8  C   UNK N   1       3.354  -3.573   2.016  0.00  0.00     0.000 A 
HETATM    9  C   UNK N   1       2.291  -2.666   2.038  0.00  0.00     0.001 A 
HETATM   10  C   UNK N   1       2.349  -1.491   1.277  0.00  0.00     0.011 A 
ENDBRANCH   1   5
BRANCH   1  11
HETATM   11  C   UNK N   1       3.872   1.300   0.212  0.00  0.00    -0.009 A 
HETATM   12  C   UNK N   1       3.892   2.493  -0.538  0.00  0.00     0.011 A 
HETATM   13  C   UNK N   1       4.304   3.695   0.040  0.00  0.00     0.001 A 
HETATM   14  C   UNK N   1       4.710   3.722   1.374  0.00  0.00     0.000 A 
HETATM   15  C   UNK N   1       4.695   2.547   2.133  0.00  0.00     0.001 A 
HETATM   16  C   UNK N   1       4.278   1.340   1.557  0.00  0.00     0.011 A 
ENDBRANCH   1  11
BRANCH   1  17
HETATM   17  C   UNK N   1       4.516  -0.192  -1.576  0.00  0.00     0.303 C 
HETATM   18  O   UNK N   1       4.196  -0.255  -2.757  0.00  0.00    -0.261 OA
BRANCH  17  19
HETATM   19  O   UNK N   1       5.816  -0.283  -1.207  0.00  0.00    -0.317 OA
BRANCH  19  20
HETATM   20  C   UNK N   1       6.839  -0.646  -2.047  0.00  0.00     0.209 C 
BRANCH  20  21
HETATM   21  C   UNK N   1       7.628  -1.787  -1.406  0.00  0.00     0.298 C 
BRANCH  21  22
HETATM   22  N   UNK N   1       7.910  -1.512   0.001  0.00  0.00     0.082 N 
HETATM   23  C   UNK N   1       8.420  -2.736   0.589  0.00  0.00     0.309 C 
HETATM   24  C   UNK N   1       8.976  -0.526   0.082  0.00  0.00     0.309 C 
ENDBRANCH  21  22
ENDBRANCH  20  21
ENDBRANCH  19  20
ENDBRANCH  17  19
ENDBRANCH   1  17
TORSDOF 9
