REMARK  10 active torsions:
REMARK  status: ('A' for Active; 'I' for Inactive)
REMARK    1  A    between atoms: O_1  and  C_28 
REMARK    2  A    between atoms: O_1  and  C_29 
REMARK    3  A    between atoms: N_4  and  C_9 
REMARK    4  A    between atoms: N_5  and  C_10 
REMARK    5  A    between atoms: N_5  and  C_15 
REMARK    6  A    between atoms: N_5  and  C_16 
REMARK    7  A    between atoms: N_8  and  C_20 
REMARK    8  A    between atoms: C_9  and  C_10 
REMARK    9  A    between atoms: C_11  and  C_14 
REMARK   10  A    between atoms: C_14  and  C_18 
ROOT
HETATM    1  N   UNK N   1       4.760   1.264   0.436  0.00  0.00    -0.333 N 
HETATM    2  N   UNK N   1       4.954  -0.911  -0.145  0.00  0.00    -0.344 N 
ATOM      3  HN  UNK N   1       5.353  -1.822  -0.372  1.00  0.00     0.167 HD
HETATM    4  C   UNK N   1       5.616   0.219   0.227  0.00  0.00     0.088 A 
HETATM    5  C   UNK N   1       3.540   0.752   0.200  0.00  0.00     0.062 A 
HETATM    6  C   UNK N   1       3.663  -0.556  -0.147  0.00  0.00     0.063 A 
HETATM    7  C   UNK N   1       2.295   1.369   0.316  0.00  0.00     0.034 A 
HETATM    8  C   UNK N   1       2.564  -1.370  -0.385  0.00  0.00     0.068 A 
HETATM    9  C   UNK N   1       1.279  -0.797  -0.256  0.00  0.00     0.105 A 
HETATM   10  C   UNK N   1       1.154   0.576   0.085  0.00  0.00     0.038 A 
ENDROOT
BRANCH   4  11
HETATM   11  C   UNK N   1       7.105   0.244   0.471  0.00  0.00     0.115 C 
BRANCH  11  12
HETATM   12  C   UNK N   1       7.743  -1.112   0.340  0.00  0.00    -0.051 A 
HETATM   13  C   UNK N   1       8.851  -1.292  -0.495  0.00  0.00     0.010 A 
HETATM   14  C   UNK N   1       9.436  -2.559  -0.622  0.00  0.00     0.037 A 
HETATM   15  C   UNK N   1       8.904  -3.659   0.079  0.00  0.00     0.068 A 
HETATM   16  C   UNK N   1       7.802  -3.470   0.915  0.00  0.00     0.037 A 
HETATM   17  C   UNK N   1       7.233  -2.205   1.056  0.00  0.00     0.010 A 
BRANCH  15  18
HETATM   18  O   UNK N   1       9.426  -4.903  -0.035  0.00  0.00    -0.352 OA
BRANCH  18  19
HETATM   19  C   UNK N   1      10.557  -5.194  -0.761  0.00  0.00     0.171 C 
HETATM   20  C   UNK N   1      11.351  -6.260  -0.033  0.00  0.00     0.034 C 
ENDBRANCH  18  19
ENDBRANCH  15  18
ENDBRANCH  11  12
ENDBRANCH   4  11
BRANCH   1  21
HETATM   21  C   UNK N   1       4.985   2.644   0.885  0.00  0.00     0.161 C 
BRANCH  21  22
HETATM   22  C   UNK N   1       6.441   3.032   1.124  0.00  0.00     0.292 C 
BRANCH  22  23
HETATM   23  N   UNK N   1       7.096   3.476  -0.106  0.00  0.00     0.089 N 
BRANCH  23  24
HETATM   24  C   UNK N   1       8.487   3.774   0.222  0.00  0.00     0.268 C 
HETATM   25  C   UNK N   1       9.332   3.860  -1.036  0.00  0.00     0.037 C 
ENDBRANCH  23  24
BRANCH  23  26
HETATM   26  C   UNK N   1       6.438   4.670  -0.667  0.00  0.00     0.268 C 
HETATM   27  C   UNK N   1       6.398   5.853   0.298  0.00  0.00     0.037 C 
ENDBRANCH  23  26
ENDBRANCH  22  23
ENDBRANCH  21  22
ENDBRANCH   1  21
BRANCH   9  28
HETATM   28  N   UNK N   1       0.118  -1.602  -0.424  0.00  0.00    -0.116 N 
HETATM   29  O   UNK N   1      -1.078  -1.085  -0.235  0.00  0.00    -0.532 OA
HETATM   30  O   UNK N   1       0.222  -2.765  -0.674  0.00  0.00    -0.532 OA
ENDBRANCH   9  28
TORSDOF 10
