REMARK  9 active torsions:
REMARK  status: ('A' for Active; 'I' for Inactive)
REMARK    1  A    between atoms: O_1  and  C_13 
REMARK    2  A    between atoms: O_1  and  C_25 
REMARK    3  A    between atoms: O_2  and  C_14 
REMARK    4  A    between atoms: O_2  and  C_19 
REMARK    5  A    between atoms: N_5  and  C_12 
REMARK    6  A    between atoms: C_6  and  C_11 
REMARK    7  A    between atoms: C_6  and  C_13 
REMARK    8  A    between atoms: C_12  and  C_14 
REMARK    9  A    between atoms: C_17  and  C_19 
ROOT
HETATM    1  N   UNK N   1       5.132  -0.027   0.609  0.00  0.00    -0.410 N 
HETATM    2  C   UNK N   1       4.195   2.696  -0.075  0.00  0.00     0.078 C 
HETATM    3  C   UNK N   1       4.560   1.657  -1.146  0.00  0.00     0.044 C 
HETATM    4  C   UNK N   1       3.690   1.934   1.163  0.00  0.00     0.044 C 
HETATM    5  C   UNK N   1       5.560   0.610  -0.644  0.00  0.00     0.118 C 
HETATM    6  C   UNK N   1       4.681   0.884   1.668  0.00  0.00     0.118 C 
ENDROOT
BRANCH   2   7
HETATM    7  C   UNK N   1       5.409   3.583   0.269  0.00  0.00    -0.040 A 
HETATM    8  C   UNK N   1       5.377   4.978   0.080  0.00  0.00     0.008 A 
HETATM    9  C   UNK N   1       6.495   5.766   0.373  0.00  0.00     0.001 A 
HETATM   10  C   UNK N   1       7.662   5.174   0.858  0.00  0.00     0.000 A 
HETATM   11  C   UNK N   1       7.712   3.795   1.057  0.00  0.00     0.001 A 
HETATM   12  C   UNK N   1       6.596   3.008   0.765  0.00  0.00     0.008 A 
ENDBRANCH   2   7
BRANCH   2  13
HETATM   13  C   UNK N   1       3.037   3.508  -0.646  0.00  0.00     0.272 C 
HETATM   14  O   UNK N   1       3.199   4.159  -1.669  0.00  0.00    -0.264 OA
BRANCH  13  15
HETATM   15  O   UNK N   1       1.815   3.471  -0.047  0.00  0.00    -0.321 OA
BRANCH  15  16
HETATM   16  C   UNK N   1       0.715   4.112  -0.571  0.00  0.00     0.174 C 
HETATM   17  C   UNK N   1       0.091   5.003   0.482  0.00  0.00     0.034 C 
ENDBRANCH  15  16
ENDBRANCH  13  15
ENDBRANCH   2  13
BRANCH   1  18
HETATM   18  C   UNK N   1       4.284  -1.205   0.433  0.00  0.00     0.143 C 
BRANCH  18  19
HETATM   19  C   UNK N   1       3.004  -0.943  -0.353  0.00  0.00     0.187 C 
BRANCH  19  20
HETATM   20  O   UNK N   1       2.727  -2.074  -1.130  0.00  0.00    -0.387 OA
BRANCH  20  21
HETATM   21  C   UNK N   1       1.669  -2.753  -0.508  0.00  0.00     0.199 C 
BRANCH  21  22
HETATM   22  C   UNK N   1       2.157  -3.647   0.641  0.00  0.00     0.145 C 
HETATM   23  O   UNK N   1       3.404  -4.229   0.356  0.00  0.00    -0.384 OA
HETATM   24  C   UNK N   1       3.134  -5.459  -0.270  0.00  0.00     0.168 C 
HETATM   25  C   UNK N   1       1.720  -5.889   0.060  0.00  0.00     0.029 C 
HETATM   26  C   UNK N   1       1.178  -4.765   0.892  0.00  0.00     0.036 C 
ENDBRANCH  21  22
ENDBRANCH  20  21
ENDBRANCH  19  20
ENDBRANCH  18  19
ENDBRANCH   1  18
TORSDOF 9
