REMARK  5 active torsions:
REMARK  status: ('A' for Active; 'I' for Inactive)
REMARK    1  A    between atoms: O_1  and  C_7 
REMARK    2  A    between atoms: O_2  and  C_10 
REMARK    3  A    between atoms: N_3  and  C_5 
REMARK    4  A    between atoms: C_4  and  C_5 
REMARK    5  A    between atoms: C_4  and  C_6 
ROOT
HETATM    1  C   UNK N   1       3.594   0.029   0.247  0.00  0.00    -0.020 A 
HETATM    2  C   UNK N   1       2.377  -0.665  -0.032  0.00  0.00     0.074 A 
HETATM    3  C   UNK N   1       4.796  -0.691   0.289  0.00  0.00     0.046 A 
HETATM    4  C   UNK N   1       4.831  -2.063   0.052  0.00  0.00     0.068 A 
HETATM    5  C   UNK N   1       2.427  -2.047  -0.258  0.00  0.00     0.040 A 
HETATM    6  C   UNK N   1       3.636  -2.742  -0.220  0.00  0.00     0.039 A 
ENDROOT
BRANCH   1   7
HETATM    7  C   UNK N   1       3.645   1.507   0.530  0.00  0.00     0.065 C 
BRANCH   7   8
HETATM    8  C   UNK N   1       4.624   2.261  -0.368  0.00  0.00     0.074 C 
HETATM    9  C   UNK N   1       6.040   2.105   0.159  0.00  0.00     0.032 C 
BRANCH   8  10
HETATM   10  N   UNK N   1       4.284   3.672  -0.369  0.00  0.00    -0.426 N 
HETATM   11  H   UNK N   1       5.024   4.374  -0.370  0.00  0.00     0.150 HD
HETATM   12  H   UNK N   1       3.306   3.961  -0.369  0.00  0.00     0.150 HD
ENDBRANCH   8  10
ENDBRANCH   7   8
ENDBRANCH   1   7
BRANCH   2  13
HETATM   13  O   UNK N   1       1.151  -0.078  -0.086  0.00  0.00    -0.355 OA
HETATM   14  C   UNK N   1       0.874   1.257   0.092  0.00  0.00     0.210 C 
ENDBRANCH   2  13
BRANCH   4  15
HETATM   15  O   UNK N   1       6.022  -2.705   0.091  0.00  0.00    -0.356 OA
HETATM   16  C   UNK N   1       6.160  -4.057  -0.127  0.00  0.00     0.210 C 
ENDBRANCH   4  15
TORSDOF 5
