REMARK  6 active torsions:
REMARK  status: ('A' for Active; 'I' for Inactive)
REMARK    1  A    between atoms: O_1  and  C_8 
REMARK    2  A    between atoms: O_2  and  C_10 
REMARK    3  A    between atoms: N_3  and  C_6 
REMARK    4  A    between atoms: C_4  and  C_5 
REMARK    5  A    between atoms: C_4  and  C_6 
REMARK    6  A    between atoms: C_7  and  C_12 
ROOT
HETATM    1  C   UNK N   1       3.665   0.624   0.045  0.00  0.00    -0.020 A 
HETATM    2  C   UNK N   1       3.786  -2.206  -0.031  0.00  0.00    -0.022 A 
HETATM    3  C   UNK N   1       2.464  -0.140   0.039  0.00  0.00     0.075 A 
HETATM    4  C   UNK N   1       4.892  -0.050   0.007  0.00  0.00     0.047 A 
HETATM    5  C   UNK N   1       4.985  -1.441  -0.029  0.00  0.00     0.075 A 
HETATM    6  C   UNK N   1       2.555  -1.535   0.000  0.00  0.00     0.047 A 
ENDROOT
BRANCH   1   7
HETATM    7  C   UNK N   1       3.655   2.135   0.131  0.00  0.00     0.065 C 
BRANCH   7   8
HETATM    8  C   UNK N   1       4.915   2.871  -0.336  0.00  0.00     0.074 C 
HETATM    9  C   UNK N   1       6.116   2.578   0.547  0.00  0.00     0.032 C 
BRANCH   8  10
HETATM   10  N   UNK N   1       4.660   4.299  -0.302  0.00  0.00    -0.426 N 
HETATM   11  H   UNK N   1       5.440   4.957  -0.277  0.00  0.00     0.150 HD
HETATM   12  H   UNK N   1       3.701   4.646  -0.302  0.00  0.00     0.150 HD
ENDBRANCH   8  10
ENDBRANCH   7   8
ENDBRANCH   1   7
BRANCH   3  13
HETATM   13  O   UNK N   1       1.212   0.392   0.069  0.00  0.00    -0.355 OA
HETATM   14  C   UNK N   1       0.886   1.728   0.057  0.00  0.00     0.210 C 
ENDBRANCH   3  13
BRANCH   5  15
HETATM   15  O   UNK N   1       6.239  -1.969  -0.052  0.00  0.00    -0.355 OA
HETATM   16  C   UNK N   1       6.572  -3.303  -0.053  0.00  0.00     0.210 C 
ENDBRANCH   5  15
BRANCH   2  17
HETATM   17  C   UNK N   1       3.806  -3.716  -0.062  0.00  0.00     0.037 C 
HETATM   18  C   UNK N   1       2.433  -4.376  -0.032  0.00  0.00     0.010 C 
ENDBRANCH   2  17
TORSDOF 6
