REMARK  5 active torsions:
REMARK  status: ('A' for Active; 'I' for Inactive)
REMARK    1  A    between atoms: N_3  and  C_4 
REMARK    2  A    between atoms: N_3  and  C_6 
REMARK    3  A    between atoms: C_4  and  C_5 
REMARK    4  A    between atoms: C_8  and  C_11 
REMARK    5  A    between atoms: C_8  and  C_12 
ROOT
HETATM    1  C   UNK N   1       2.678   0.084   0.071  0.00  0.00     0.022 C 
HETATM    2  C   UNK N   1       3.777  -0.698   0.044  0.00  0.00    -0.004 C 
ENDROOT
BRANCH   2   3
HETATM    3  C   UNK N   1       5.168  -0.147  -0.132  0.00  0.00     0.016 A 
HETATM    4  S   UNK N   1       6.594  -0.981   0.016  0.00  0.00    -0.101 SA
HETATM    5  C   UNK N   1       7.688   0.225  -0.292  0.00  0.00     0.050 A 
HETATM    6  C   UNK N   1       6.927   1.373  -0.538  0.00  0.00     0.008 A 
HETATM    7  C   UNK N   1       5.519   1.169  -0.450  0.00  0.00     0.020 A 
ENDBRANCH   2   3
BRANCH   2   8
HETATM    8  C   UNK N   1       3.552  -2.166   0.186  0.00  0.00     0.016 A 
HETATM    9  S   UNK N   1       2.073  -2.904   0.367  0.00  0.00    -0.101 SA
HETATM   10  C   UNK N   1       2.541  -4.493   0.429  0.00  0.00     0.050 A 
HETATM   11  C   UNK N   1       3.936  -4.487   0.302  0.00  0.00     0.008 A 
HETATM   12  C   UNK N   1       4.501  -3.187   0.163  0.00  0.00     0.020 A 
ENDBRANCH   2   8
BRANCH   1  13
HETATM   13  C   UNK N   1       2.581   1.590  -0.033  0.00  0.00     0.242 C 
HETATM   14  C   UNK N   1       3.256   2.207   1.190  0.00  0.00     0.047 C 
BRANCH  13  15
HETATM   15  N   UNK N   1       1.172   2.015  -0.068  0.00  0.00     0.091 N 
HETATM   16  C   UNK N   1       0.467   1.357  -1.165  0.00  0.00     0.310 C 
BRANCH  15  17
HETATM   17  C   UNK N   1       1.120   3.446  -0.348  0.00  0.00     0.268 C 
HETATM   18  C   UNK N   1      -0.133   4.052   0.258  0.00  0.00     0.037 C 
ENDBRANCH  15  17
ENDBRANCH  13  15
ENDBRANCH   1  13
TORSDOF 5
