REMARK  8 active torsions:
REMARK  status: ('A' for Active; 'I' for Inactive)
REMARK    1  A    between atoms: O_2  and  C_12 
REMARK    2  A    between atoms: O_2  and  C_25 
REMARK    3  A    between atoms: N_4  and  C_7 
REMARK    4  A    between atoms: C_5  and  C_6 
REMARK    5  A    between atoms: C_5  and  C_10 
REMARK    6  A    between atoms: C_5  and  C_11 
REMARK    7  A    between atoms: C_5  and  C_12 
REMARK    8  A    between atoms: C_6  and  C_7 
ROOT
HETATM    1  C   UNK N   1       5.692  -0.064  -0.517  0.00  0.00     0.103 C 
ENDROOT
BRANCH   1   2
HETATM    2  C   UNK N   1       4.411   0.102  -1.402  0.00  0.00     0.060 C 
BRANCH   2   3
HETATM    3  C   UNK N   1       3.238   0.485  -0.485  0.00  0.00     0.274 C 
BRANCH   3   4
HETATM    4  N   UNK N   1       1.962   0.616  -1.150  0.00  0.00     0.092 N 
HETATM    5  C   UNK N   1       1.457   1.905  -0.656  0.00  0.00     0.298 C 
HETATM    6  C   UNK N   1      -0.063   1.994  -0.779  0.00  0.00     0.198 C 
HETATM    7  O   UNK N   1      -0.641   0.951  -0.041  0.00  0.00    -0.388 OA
HETATM    8  C   UNK N   1      -0.334  -0.220  -0.748  0.00  0.00     0.198 C 
HETATM    9  C   UNK N   1       1.164  -0.500  -0.621  0.00  0.00     0.298 C 
ENDBRANCH   3   4
ENDBRANCH   2   3
ENDBRANCH   1   2
BRANCH   1  10
HETATM   10  C   UNK N   1       5.931   1.251   0.251  0.00  0.00    -0.035 A 
HETATM   11  C   UNK N   1       5.394   2.461  -0.248  0.00  0.00     0.009 A 
HETATM   12  C   UNK N   1       5.670   3.684   0.358  0.00  0.00     0.001 A 
HETATM   13  C   UNK N   1       6.508   3.728   1.469  0.00  0.00     0.000 A 
HETATM   14  C   UNK N   1       7.070   2.548   1.967  0.00  0.00     0.001 A 
HETATM   15  C   UNK N   1       6.796   1.316   1.355  0.00  0.00     0.009 A 
ENDBRANCH   1  10
BRANCH   1  16
HETATM   16  C   UNK N   1       5.534  -1.351   0.349  0.00  0.00    -0.035 A 
HETATM   17  C   UNK N   1       6.665  -2.040   0.837  0.00  0.00     0.009 A 
HETATM   18  C   UNK N   1       6.544  -3.298   1.438  0.00  0.00     0.001 A 
HETATM   19  C   UNK N   1       5.289  -3.893   1.574  0.00  0.00     0.000 A 
HETATM   20  C   UNK N   1       4.155  -3.230   1.112  0.00  0.00     0.001 A 
HETATM   21  C   UNK N   1       4.281  -1.989   0.487  0.00  0.00     0.009 A 
ENDBRANCH   1  16
BRANCH   1  22
HETATM   22  C   UNK N   1       6.944  -0.243  -1.373  0.00  0.00     0.277 C 
HETATM   23  O   UNK N   1       6.877  -0.317  -2.586  0.00  0.00    -0.264 OA
BRANCH  22  24
HETATM   24  O   UNK N   1       8.150  -0.297  -0.737  0.00  0.00    -0.321 OA
BRANCH  24  25
HETATM   25  C   UNK N   1       9.334  -0.608  -1.356  0.00  0.00     0.174 C 
HETATM   26  C   UNK N   1      10.012  -1.718  -0.573  0.00  0.00     0.034 C 
ENDBRANCH  24  25
ENDBRANCH  22  24
ENDBRANCH   1  22
TORSDOF 8
