REMARK  1 active torsions:
REMARK  status: ('A' for Active; 'I' for Inactive)
REMARK    1  A    between atoms: C_10  and  O_1 
ROOT
HETATM    1  O   UNK N   1      -0.137  -3.374  -0.740  0.00  0.00    -0.293 OA
HETATM    2  C   UNK N   1       6.908  -0.164  -0.275  0.00  0.00     0.001 C 
HETATM    3  C   UNK N   1       5.668  -1.025   0.018  0.00  0.00    -0.005 C 
HETATM    4  C   UNK N   1       6.913   1.118   0.550  0.00  0.00    -0.014 C 
HETATM    5  C   UNK N   1       4.380  -0.195  -0.225  0.00  0.00     0.002 C 
HETATM    6  C   UNK N   1       3.114  -1.010   0.224  0.00  0.00    -0.018 C 
HETATM    7  C   UNK N   1       5.715   1.980   0.144  0.00  0.00     0.012 C 
HETATM    8  C   UNK N   1       4.411   1.215   0.421  0.00  0.00     0.007 C 
HETATM    9  C   UNK N   1       8.290   1.690   0.231  0.00  0.00     0.126 C 
HETATM   10  C   UNK N   1       8.263  -0.776   0.035  0.00  0.00     0.008 C 
HETATM   11  C   UNK N   1       5.634  -2.263  -0.922  0.00  0.00     0.006 C 
HETATM   12  C   UNK N   1       3.344  -2.552   0.080  0.00  0.00     0.005 C 
HETATM   13  C   UNK N   1       9.187   0.440   0.232  0.00  0.00     0.033 C 
HETATM   14  C   UNK N   1       4.218  -2.863  -1.130  0.00  0.00     0.006 C 
HETATM   15  C   UNK N   1       6.855   0.860   2.065  0.00  0.00     0.018 C 
HETATM   16  C   UNK N   1       2.775  -0.759   1.695  0.00  0.00     0.020 C 
HETATM   17  C   UNK N   1       1.945  -0.522  -0.604  0.00  0.00    -0.013 C 
HETATM   18  C   UNK N   1       2.054  -3.383   0.118  0.00  0.00     0.088 C 
HETATM   19  C   UNK N   1       0.923  -1.313  -0.949  0.00  0.00     0.047 C 
HETATM   20  C   UNK N   1       0.884  -2.732  -0.559  0.00  0.00     0.149 C 
ENDROOT
BRANCH   9  21
HETATM   21  O   UNK N   1       8.315   2.249  -1.050  0.00  0.00    -0.395 OA
HETATM   22  H   UNK N   1       8.659   2.428  -1.939  0.00  0.00     0.210 HD
ENDBRANCH   9  21
TORSDOF 1
