REMARK  3 active torsions:
REMARK  status: ('A' for Active; 'I' for Inactive)
REMARK    1  A    between atoms: N_1  and  C_5 
REMARK    2  A    between atoms: C_3  and  C_4 
REMARK    3  A    between atoms: C_3  and  C_5 
ROOT
HETATM    1  N   UNK N   1       4.076  -2.760  -0.112  0.00  0.00    -0.365 N 
HETATM    2  C   UNK N   1       4.195  -0.560   0.330  0.00  0.00    -0.029 A 
HETATM    3  C   UNK N   1       2.879  -0.889   0.140  0.00  0.00    -0.002 A 
HETATM    4  C   UNK N   1       2.838  -2.228  -0.121  0.00  0.00     0.042 A 
HETATM    5  C   UNK N   1       4.924  -1.736   0.171  0.00  0.00     0.096 A 
HETATM    6  C   UNK N   1       1.721  -0.115   0.201  0.00  0.00     0.014 A 
HETATM    7  C   UNK N   1       1.638  -2.901  -0.335  0.00  0.00     0.030 A 
HETATM    8  C   UNK N   1       0.490  -0.761  -0.017  0.00  0.00     0.001 A 
HETATM    9  C   UNK N   1       0.448  -2.150  -0.280  0.00  0.00     0.002 A 
HETATM   10  H   UNK N   1       4.318  -3.700  -0.277  0.00  0.00     0.165 HD
ENDROOT
BRANCH   2  11
HETATM   11  C   UNK N   1       4.723   0.782   0.720  0.00  0.00     0.071 C 
BRANCH  11  12
HETATM   12  C   UNK N   1       5.754   1.328  -0.254  0.00  0.00     0.276 C 
BRANCH  12  13
HETATM   13  N   UNK N   1       6.198   2.635   0.212  0.00  0.00     0.080 N 
HETATM   14  C   UNK N   1       7.502   2.896  -0.367  0.00  0.00     0.309 C 
HETATM   15  C   UNK N   1       5.286   3.633  -0.321  0.00  0.00     0.309 C 
ENDBRANCH  12  13
ENDBRANCH  11  12
ENDBRANCH   2  11
TORSDOF 3
