REMARK  2 active torsions:
REMARK  status: ('A' for Active; 'I' for Inactive)
REMARK    1  A    between atoms: N_4  and  C_10 
REMARK    2  A    between atoms: C_5  and  C_7 
ROOT
HETATM    1  O   UNK N   1       2.009   1.357  -0.000  0.00  0.00    -0.311 OA
HETATM    2  N   UNK N   1       3.626   2.840   0.000  0.00  0.00    -0.354 N 
ATOM      3  HN  UNK N   1       4.069   3.758   0.000  1.00  0.00     0.163 HD
HETATM    4  C   UNK N   1       3.156   0.612  -0.000  0.00  0.00     0.182 A 
HETATM    5  C   UNK N   1       4.340   1.585   0.000  0.00  0.00     0.160 A 
HETATM    6  C   UNK N   1       2.363   2.642   0.000  0.00  0.00     0.213 A 
ENDROOT
BRANCH   4   7
HETATM    7  C   UNK N   1       3.091  -0.879  -0.000  0.00  0.00    -0.027 A 
HETATM    8  C   UNK N   1       4.258  -1.654  -0.000  0.00  0.00     0.010 A 
HETATM    9  C   UNK N   1       4.168  -3.051   0.000  0.00  0.00     0.001 A 
HETATM   10  C   UNK N   1       2.915  -3.673   0.000  0.00  0.00     0.000 A 
HETATM   11  C   UNK N   1       1.751  -2.901   0.000  0.00  0.00     0.001 A 
HETATM   12  C   UNK N   1       1.841  -1.508  -0.000  0.00  0.00     0.010 A 
ENDBRANCH   4   7
BRANCH   6  13
HETATM   13  N   UNK N   1       1.425   3.695   0.000  0.00  0.00    -0.365 N 
HETATM   14  H   UNK N   1       1.734   4.629   0.000  0.00  0.00     0.159 HD
HETATM   15  H   UNK N   1       0.461   3.495   0.000  0.00  0.00     0.159 HD
ENDBRANCH   6  13
TORSDOF 2
