REMARK  5 active torsions:
REMARK  status: ('A' for Active; 'I' for Inactive)
REMARK    1  A    between atoms: C_2  and  C_13 
REMARK    2  A    between atoms: C_6  and  C_7 
REMARK    3  A    between atoms: C_7  and  N_8 
REMARK    4  A    between atoms: N_8  and  C_9 
REMARK    5  A    between atoms: C_13  and  N_14 
ROOT
HETATM    1  C   UNK N   1       3.106   0.798   0.000  0.00  0.00     0.017 A 
HETATM    2  C   UNK N   1       3.082  -0.600  -0.000  0.00  0.00    -0.041 A 
HETATM    3  C   UNK N   1       1.852  -1.267  -0.000  0.00  0.00     0.009 A 
HETATM    4  C   UNK N   1       0.657  -0.537  -0.000  0.00  0.00     0.001 A 
HETATM    5  C   UNK N   1       0.690   0.863  -0.000  0.00  0.00     0.009 A 
HETATM    6  C   UNK N   1       1.924   1.533   0.000  0.00  0.00    -0.040 A 
ENDROOT
BRANCH   6   7
HETATM    7  C   UNK N   1       2.041   3.023   0.000  0.00  0.00     0.159 C 
BRANCH   7   8
HETATM    8  N   UNK N   1       0.769   3.699   0.000  0.00  0.00    -0.376 N 
HETATM    9  H   UNK N   1      -0.064   3.174  -0.000  0.00  0.00     0.161 HD
BRANCH   8  10
HETATM   10  C   UNK N   1       0.710   5.117  -0.000  0.00  0.00     0.066 C 
HETATM   11  C   UNK N   1      -0.613   5.800  -0.000  0.00  0.00     0.088 C 
HETATM   12  N   UNK N   1       1.784   5.816   0.000  0.00  0.00    -0.389 N 
HETATM   13  H   UNK N   1       2.662   5.370   0.000  0.00  0.00     0.157 HD
ATOM     14  HN  UNK N   1       1.729   6.835   0.000  1.00  0.00     0.157 HD
ENDBRANCH   8  10
ENDBRANCH   7   8
ENDBRANCH   6   7
BRANCH   2  15
HETATM   15  C   UNK N   1       4.355  -1.392  -0.000  0.00  0.00     0.150 C 
BRANCH  15  16
HETATM   16  N   UNK N   1       5.530  -0.530   0.000  0.00  0.00    -0.426 N 
HETATM   17  H   UNK N   1       6.464  -0.940   0.000  0.00  0.00     0.150 HD
HETATM   18  H   UNK N   1       5.418   0.484   0.000  0.00  0.00     0.150 HD
ENDBRANCH  15  16
ENDBRANCH   2  15
TORSDOF 5
