REMARK  2 active torsions:
REMARK  status: ('A' for Active; 'I' for Inactive)
REMARK    1  A    between atoms: C_10  and  O_1 
REMARK    2  A    between atoms: C_21  and  O_2 
ROOT
HETATM    1  C   UNK N   1       7.385  -0.168   0.259  0.00  0.00     0.001 C 
HETATM    2  C   UNK N   1       6.172  -1.063  -0.042  0.00  0.00    -0.004 C 
HETATM    3  C   UNK N   1       7.240   1.209  -0.378  0.00  0.00    -0.014 C 
HETATM    4  C   UNK N   1       4.872  -0.371   0.448  0.00  0.00     0.002 C 
HETATM    5  C   UNK N   1       3.641  -1.180  -0.039  0.00  0.00    -0.017 C 
HETATM    6  C   UNK N   1       6.043   1.922   0.251  0.00  0.00     0.012 C 
HETATM    7  C   UNK N   1       4.767   1.107  -0.015  0.00  0.00     0.007 C 
HETATM    8  C   UNK N   1       8.610   1.822  -0.113  0.00  0.00     0.126 C 
HETATM    9  C   UNK N   1       8.734  -0.643  -0.255  0.00  0.00     0.008 C 
HETATM   10  C   UNK N   1       6.312  -2.391   0.708  0.00  0.00     0.010 C 
HETATM   11  C   UNK N   1       9.565   0.646  -0.379  0.00  0.00     0.033 C 
HETATM   12  C   UNK N   1       3.795  -2.682   0.206  0.00  0.00    -0.072 C 
HETATM   13  C   UNK N   1       5.107  -3.328   0.579  0.00  0.00     0.035 C 
HETATM   14  C   UNK N   1       2.365  -0.691   0.686  0.00  0.00     0.017 C 
HETATM   15  C   UNK N   1       7.044   1.150  -1.903  0.00  0.00     0.018 C 
HETATM   16  C   UNK N   1       3.450  -0.976  -1.549  0.00  0.00     0.020 C 
HETATM   17  C   UNK N   1       1.131  -1.612   0.504  0.00  0.00     0.037 C 
HETATM   18  C   UNK N   1       2.723  -3.470   0.046  0.00  0.00     0.008 C 
HETATM   19  C   UNK N   1       1.418  -2.848  -0.359  0.00  0.00     0.141 C 
ENDROOT
BRANCH   8  20
HETATM   20  O   UNK N   1       8.738   2.197   1.229  0.00  0.00    -0.395 OA
HETATM   21  H   UNK N   1       9.008   2.250   2.159  0.00  0.00     0.210 HD
ENDBRANCH   8  20
BRANCH  19  22
HETATM   22  O   UNK N   1       0.382  -3.773  -0.259  0.00  0.00    -0.392 OA
HETATM   23  H   UNK N   1      -0.537  -3.470  -0.190  0.00  0.00     0.210 HD
ENDBRANCH  19  22
TORSDOF 2
