REMARK  7 active torsions:
REMARK  status: ('A' for Active; 'I' for Inactive)
REMARK    1  A    between atoms: O_4  and  C_9 
REMARK    2  A    between atoms: O_4  and  C_13 
REMARK    3  A    between atoms: O_5  and  C_7 
REMARK    4  A    between atoms: O_6  and  C_13 
REMARK    5  A    between atoms: C_7  and  C_8 
REMARK    6  A    between atoms: C_8  and  C_9 
REMARK    7  A    between atoms: C_13  and  C_14 
ROOT
HETATM    1  O   UNK N   1       5.496  -0.013  -0.474  0.00  0.00    -0.352 OA
ENDROOT
BRANCH   1   2
HETATM    2  C   UNK N   1       4.279  -0.222   0.186  0.00  0.00     0.123 C 
HETATM    3  C   UNK N   1       4.182  -1.685   0.593  0.00  0.00     0.040 C 
BRANCH   2   4
HETATM    4  C   UNK N   1       3.128   0.163  -0.752  0.00  0.00     0.068 C 
BRANCH   4   5
HETATM    5  C   UNK N   1       1.733   0.238  -0.112  0.00  0.00     0.053 C 
HETATM    6  C   UNK N   1       1.728   1.221   1.043  0.00  0.00     0.045 C 
HETATM    7  C   UNK N   1       1.262  -1.118   0.381  0.00  0.00     0.045 C 
BRANCH   5   8
HETATM    8  O   UNK N   1       0.831   0.684  -1.077  0.00  0.00    -0.391 OA
HETATM    9  H   UNK N   1       0.786   1.383  -1.749  0.00  0.00     0.210 HD
ENDBRANCH   5   8
ENDBRANCH   4   5
ENDBRANCH   2   4
ENDBRANCH   1   2
BRANCH   1  10
HETATM   10  C   UNK N   1       6.402   0.415   0.512  0.00  0.00     0.311 C 
BRANCH  10  11
HETATM   11  O   UNK N   1       7.161  -0.673   0.946  0.00  0.00    -0.367 OA
HETATM   12  H   UNK N   1       6.770  -1.508   1.247  0.00  0.00     0.212 HD
ENDBRANCH  10  11
BRANCH  10  13
HETATM   13  C   UNK N   1       7.313   1.524  -0.022  0.00  0.00     0.237 C 
HETATM   14 Cl   UNK N   1       8.430   2.051   1.266  0.00  0.00    -0.078 Cl
HETATM   15 Cl   UNK N   1       8.273   0.950  -1.412  0.00  0.00    -0.078 Cl
HETATM   16 Cl   UNK N   1       6.343   2.930  -0.527  0.00  0.00    -0.078 Cl
ENDBRANCH  10  13
ENDBRANCH   1  10
TORSDOF 7
