REMARK  0 active torsions:
REMARK  status: ('A' for Active; 'I' for Inactive)
ROOT
HETATM    1  O   UNK N   1       8.419   3.066   0.180  0.00  0.00    -0.297 OA
HETATM    2  O   UNK N   1      -0.016  -3.543  -0.489  0.00  0.00    -0.293 OA
HETATM    3  C   UNK N   1       5.726  -0.935  -0.087  0.00  0.00    -0.004 C 
HETATM    4  C   UNK N   1       4.418  -0.321   0.490  0.00  0.00     0.002 C 
HETATM    5  C   UNK N   1       6.913  -0.064   0.345  0.00  0.00     0.006 C 
HETATM    6  C   UNK N   1       6.763   1.379  -0.140  0.00  0.00     0.021 C 
HETATM    7  C   UNK N   1       3.192  -1.088  -0.070  0.00  0.00    -0.016 C 
HETATM    8  C   UNK N   1       4.301   1.201   0.207  0.00  0.00     0.007 C 
HETATM    9  C   UNK N   1       5.570   1.983   0.600  0.00  0.00     0.018 C 
HETATM   10  C   UNK N   1       5.882  -2.343   0.487  0.00  0.00     0.010 C 
HETATM   11  C   UNK N   1       8.323  -0.458  -0.077  0.00  0.00     0.013 C 
HETATM   12  C   UNK N   1       3.344  -2.599   0.099  0.00  0.00    -0.068 C 
HETATM   13  C   UNK N   1       8.120   1.882   0.189  0.00  0.00     0.135 C 
HETATM   14  C   UNK N   1       4.692  -3.268   0.221  0.00  0.00     0.035 C 
HETATM   15  C   UNK N   1       9.139   0.792   0.291  0.00  0.00     0.079 C 
HETATM   16  C   UNK N   1       1.906  -0.637   0.642  0.00  0.00     0.022 C 
HETATM   17  C   UNK N   1       6.577   1.524  -1.654  0.00  0.00     0.024 C 
HETATM   18  C   UNK N   1       3.043  -0.800  -1.570  0.00  0.00     0.020 C 
HETATM   19  C   UNK N   1       0.660  -1.357   0.097  0.00  0.00     0.084 C 
HETATM   20  C   UNK N   1       2.268  -3.392  -0.030  0.00  0.00     0.053 C 
HETATM   21  C   UNK N   1       0.912  -2.820  -0.165  0.00  0.00     0.149 C 
ENDROOT
TORSDOF 0
