REMARK  3 active torsions:
REMARK  status: ('A' for Active; 'I' for Inactive)
REMARK    1  A    between atoms: C_13  and  O_2 
REMARK    2  A    between atoms: O_2  and  C_23 
REMARK    3  A    between atoms: O_3  and  C_21 
ROOT
HETATM    1  O   UNK N   1       1.673   0.289  -0.813  0.00  0.00    -0.339 OA
HETATM    2  N   UNK N   1       6.789  -0.418  -0.894  0.00  0.00     0.089 N 
HETATM    3  C   UNK N   1       3.875  -0.465  -0.572  0.00  0.00     0.026 C 
HETATM    4  C   UNK N   1       4.793  -1.195   0.406  0.00  0.00     0.035 C 
HETATM    5  C   UNK N   1       2.379  -0.917  -0.691  0.00  0.00     0.172 C 
HETATM    6  C   UNK N   1       6.140  -0.390   0.436  0.00  0.00     0.232 C 
HETATM    7  C   UNK N   1       4.530  -0.459  -1.969  0.00  0.00     0.048 C 
HETATM    8  C   UNK N   1       3.683   0.919  -0.135  0.00  0.00    -0.004 A 
HETATM    9  C   UNK N   1       4.108  -1.293   1.763  0.00  0.00     0.010 C 
HETATM   10  C   UNK N   1       1.850  -1.629   0.592  0.00  0.00     0.162 C 
HETATM   11  C   UNK N   1       5.962   1.104   0.873  0.00  0.00     0.075 C 
HETATM   12  C   UNK N   1       2.883  -2.183   1.595  0.00  0.00     0.036 C 
HETATM   13  C   UNK N   1       5.942   0.142  -1.957  0.00  0.00     0.273 C 
HETATM   14  C   UNK N   1       4.640   1.720   0.466  0.00  0.00    -0.046 A 
HETATM   15  C   UNK N   1       2.420   1.313  -0.364  0.00  0.00     0.110 A 
HETATM   16  C   UNK N   1       7.211  -1.765  -1.267  0.00  0.00     0.310 C 
HETATM   17  C   UNK N   1       4.284   3.038   0.788  0.00  0.00     0.011 A 
HETATM   18  C   UNK N   1       2.015   2.621  -0.076  0.00  0.00     0.102 A 
HETATM   19  C   UNK N   1       2.979   3.499   0.492  0.00  0.00     0.040 A 
ENDROOT
BRANCH  10  20
HETATM   20  O   UNK N   1       0.938  -2.621   0.265  0.00  0.00    -0.314 OA
BRANCH  20  21
HETATM   21  C   UNK N   1       1.290  -3.803  -0.324  0.00  0.00     0.255 C 
HETATM   22  O   UNK N   1       2.459  -4.057  -0.579  0.00  0.00    -0.266 OA
HETATM   23  C   UNK N   1       0.242  -4.809  -0.648  0.00  0.00     0.126 C 
ENDBRANCH  20  21
ENDBRANCH  10  20
BRANCH  18  24
HETATM   24  O   UNK N   1       0.742   3.011  -0.314  0.00  0.00    -0.353 OA
HETATM   25  C   UNK N   1       0.286   4.282  -0.042  0.00  0.00     0.210 C 
ENDBRANCH  18  24
TORSDOF 3
