REMARK  5 active torsions:
REMARK  status: ('A' for Active; 'I' for Inactive)
REMARK    1  A    between atoms: C_3  and  N_4 
REMARK    2  A    between atoms: C_3  and  C_5 
REMARK    3  A    between atoms: C_10  and  C_15 
REMARK       I    between atoms: C_15  and  N_17 
REMARK    4  A    between atoms: N_17  and  C_18 
REMARK    5  A    between atoms: C_28  and  C_29 
ROOT
HETATM    1  C   UNK N   1      -1.069   2.041   0.000  0.00  0.00     0.256 C 
HETATM    2  O   UNK N   1      -1.194   3.255  -0.000  0.00  0.00    -0.267 OA
HETATM    3  N   UNK N   1       0.151   1.450   0.000  0.00  0.00    -0.323 N 
HETATM    4  H   UNK N   1       0.123   0.466   0.000  0.00  0.00     0.169 HD
ENDROOT
BRANCH   1   5
HETATM    5  C   UNK N   1      -2.236   1.134   0.000  0.00  0.00     0.033 A 
HETATM    6  C   UNK N   1      -3.567   1.583  -0.000  0.00  0.00     0.018 A 
HETATM    7  C   UNK N   1      -4.619   0.648  -0.000  0.00  0.00     0.013 A 
HETATM    8  C   UNK N   1      -4.339  -0.730  -0.000  0.00  0.00    -0.025 A 
HETATM    9  C   UNK N   1      -5.369  -1.680  -0.000  0.00  0.00     0.027 A 
HETATM   10  C   UNK N   1      -3.001  -1.166   0.000  0.00  0.00    -0.025 A 
HETATM   11  C   UNK N   1      -5.062  -3.055  -0.000  0.00  0.00     0.008 A 
HETATM   12  C   UNK N   1      -3.720  -3.465   0.000  0.00  0.00     0.016 A 
HETATM   13  C   UNK N   1      -2.695  -2.524   0.000  0.00  0.00     0.013 A 
HETATM   14  C   UNK N   1      -1.976  -0.240   0.000  0.00  0.00     0.029 A 
BRANCH  11  15
HETATM   15  C   UNK N   1      -6.137  -4.068  -0.000  0.00  0.00     0.102 C 
HETATM   16  N   UNK N   1      -5.850  -5.319   0.000  0.00  0.00    -0.385 N 
HETATM   17  H   UNK N   1      -6.571  -5.989   0.000  0.00  0.00     0.157 HD
ATOM     18  HN  UNK N   1      -4.875  -5.618   0.000  1.00  0.00     0.157 HD
BRANCH  15  19
HETATM   19  N   UNK N   1      -7.492  -3.668  -0.000  0.00  0.00    -0.385 N 
HETATM   20  H   UNK N   1      -7.723  -2.711  -0.000  0.00  0.00     0.157 HD
HETATM   21  H   UNK N   1      -8.205  -4.346  -0.000  0.00  0.00     0.157 HD
ENDBRANCH  15  19
ENDBRANCH  11  15
ENDBRANCH   1   5
BRANCH   3  22
HETATM   22  C   UNK N   1       1.451   1.993   0.000  0.00  0.00     0.035 A 
HETATM   23  C   UNK N   1       2.493   1.079   0.000  0.00  0.00     0.043 A 
HETATM   24  C   UNK N   1       3.822   1.476   0.000  0.00  0.00    -0.005 A 
HETATM   25  C   UNK N   1       4.116   2.845  -0.000  0.00  0.00    -0.044 A 
HETATM   26  C   UNK N   1       4.913   0.465   0.000  0.00  0.00     0.019 A 
HETATM   27  C   UNK N   1       3.070   3.787  -0.000  0.00  0.00     0.010 A 
HETATM   28  C   UNK N   1       5.529   3.322  -0.000  0.00  0.00     0.059 A 
HETATM   29  C   UNK N   1       1.731   3.364  -0.000  0.00  0.00     0.030 A 
HETATM   30  C   UNK N   1       6.609   2.228  -0.000  0.00  0.00     0.124 A 
HETATM   31  N   UNK N   1       6.146   0.849   0.000  0.00  0.00    -0.392 N 
ATOM     32  HN  UNK N   1       6.859   0.120   0.000  1.00  0.00     0.159 HD
BRANCH  26  33
HETATM   33  C   UNK N   1       4.634  -1.035   0.001  0.00  0.00     0.028 C 
HETATM   34  C   UNK N   1       5.796  -2.012  -0.001  0.00  0.00     0.016 C 
HETATM   35  C   UNK N   1       3.244  -1.654  -0.001  0.00  0.00     0.016 C 
ENDBRANCH  26  33
ENDBRANCH   3  22
TORSDOF 5
