REMARK  13 active torsions:
REMARK  status: ('A' for Active; 'I' for Inactive)
REMARK    1  A    between atoms: C_2  and  C_4 
REMARK    2  A    between atoms: C_4  and  C_5 
REMARK    3  A    between atoms: C_4  and  N_9 
REMARK    4  A    between atoms: C_5  and  C_6 
REMARK    5  A    between atoms: C_6  and  O_7 
REMARK       I    between atoms: N_9  and  C_10 
REMARK    6  A    between atoms: C_10  and  C_12 
REMARK    7  A    between atoms: C_17  and  C_18 
REMARK    8  A    between atoms: C_18  and  N_19 
REMARK    9  A    between atoms: N_19  and  S_20 
REMARK   10  A    between atoms: S_20  and  C_23 
REMARK   11  A    between atoms: C_27  and  O_28 
REMARK   12  A    between atoms: C_29  and  C_30 
REMARK   13  A    between atoms: C_30  and  O_31 
ROOT
HETATM    1  C   UNK N   1      -0.972   2.339  -0.219  0.00  0.00     0.032 A 
HETATM    2  C   UNK N   1       0.403   2.582  -0.055  0.00  0.00     0.017 A 
HETATM    3  C   UNK N   1       1.267   1.577   0.381  0.00  0.00     0.010 A 
HETATM    4  C   UNK N   1      -1.464   1.054   0.060  0.00  0.00     0.017 A 
HETATM    5  C   UNK N   1      -0.591   0.036   0.483  0.00  0.00     0.010 A 
HETATM    6  C   UNK N   1       0.783   0.295   0.633  0.00  0.00    -0.040 A 
ENDROOT
BRANCH   6   7
HETATM    7  C   UNK N   1       1.761  -0.768   1.048  0.00  0.00     0.170 C 
BRANCH   7   8
HETATM    8  N   UNK N   1       1.292  -2.107   0.716  0.00  0.00    -0.311 N 
HETATM    9  H   UNK N   1       0.523  -2.598   1.173  0.00  0.00     0.172 HD
BRANCH   8  10
HETATM   10  S   UNK N   1       2.278  -2.743  -0.614  0.00  0.00     0.259 S 
HETATM   11  O   UNK N   1       1.426  -3.887  -1.185  0.00  0.00    -0.201 OA
HETATM   12  O   UNK N   1       2.184  -1.716  -1.753  0.00  0.00    -0.201 OA
BRANCH  10  13
HETATM   13  C   UNK N   1       3.954  -3.304  -0.297  0.00  0.00     0.080 A 
HETATM   14  C   UNK N   1       4.980  -2.376  -0.094  0.00  0.00     0.046 A 
HETATM   15  C   UNK N   1       6.299  -2.802   0.142  0.00  0.00     0.072 A 
HETATM   16  C   UNK N   1       6.575  -4.189   0.169  0.00  0.00     0.082 A 
HETATM   17  C   UNK N   1       5.544  -5.110  -0.038  0.00  0.00     0.039 A 
HETATM   18  C   UNK N   1       4.240  -4.671  -0.270  0.00  0.00     0.028 A 
BRANCH  15  19
HETATM   19  C   UNK N   1       7.359  -1.783   0.355  0.00  0.00     0.179 C 
HETATM   20  O   UNK N   1       7.080  -0.595   0.319  0.00  0.00    -0.646 OA
BRANCH  19  21
HETATM   21  O   UNK N   1       8.634  -2.150   0.589  0.00  0.00    -0.773 OA
HETATM   22  H   UNK N   1       8.857  -3.046   0.752  0.00  0.00     0.167 HD
ENDBRANCH  19  21
ENDBRANCH  15  19
BRANCH  16  23
HETATM   23  O   UNK N   1       7.821  -4.646   0.390  0.00  0.00    -0.360 OA
HETATM   24  H   UNK N   1       7.979  -5.556   0.545  0.00  0.00     0.217 HD
ENDBRANCH  16  23
ENDBRANCH  10  13
ENDBRANCH   8  10
ENDBRANCH   7   8
ENDBRANCH   6   7
BRANCH   1  25
HETATM   25  C   UNK N   1      -1.805   3.428  -0.820  0.00  0.00     0.252 C 
HETATM   26  N   UNK N   1      -3.170   3.464  -0.829  0.00  0.00    -0.345 N 
HETATM   27  H   UNK N   1      -3.564   4.091  -1.477  0.00  0.00     0.163 HD
HETATM   28  O   UNK N   1      -1.218   4.343  -1.371  0.00  0.00    -0.268 OA
BRANCH  26  29
HETATM   29  C   UNK N   1      -4.127   2.723  -0.036  0.00  0.00     0.164 C 
BRANCH  29  30
HETATM   30  C   UNK N   1      -4.981   3.774   0.646  0.00  0.00     0.146 C 
HETATM   31  C   UNK N   1      -4.348   4.728   1.604  0.00  0.00     0.093 C 
HETATM   32  O   UNK N   1      -6.167   3.900   0.385  0.00  0.00    -0.296 OA
ENDBRANCH  29  30
BRANCH  29  33
HETATM   33  C   UNK N   1      -4.932   1.787  -0.956  0.00  0.00     0.143 C 
BRANCH  33  34
HETATM   34  C   UNK N   1      -5.934   0.926  -0.230  0.00  0.00     0.141 C 
HETATM   35  O   UNK N   1      -6.964   1.409   0.213  0.00  0.00    -0.650 OA
BRANCH  34  36
HETATM   36  O   UNK N   1      -5.721  -0.397  -0.115  0.00  0.00    -0.776 OA
HETATM   37  H   UNK N   1      -6.445  -0.987  -0.035  0.00  0.00     0.167 HD
ENDBRANCH  34  36
ENDBRANCH  33  34
ENDBRANCH  29  33
ENDBRANCH  26  29
ENDBRANCH   1  25
TORSDOF 13
