REMARK  5 active torsions:
REMARK  status: ('A' for Active; 'I' for Inactive)
REMARK    1  A    between atoms: C_3  and  N_5 
REMARK    2  A    between atoms: N_5  and  C_6 
REMARK    3  A    between atoms: C_6  and  C_7 
REMARK    4  A    between atoms: C_7  and  S_8 
REMARK    5  A    between atoms: S_8  and  O_11 
ROOT
HETATM    1  N   UNK N   1      -0.798   1.740   0.045  0.00  0.00    -0.389 N 
HETATM    2  H   UNK N   1      -1.089   2.622  -0.282  0.00  0.00     0.159 HD
ENDROOT
BRANCH   1   3
HETATM    3  C   UNK N   1      -1.729   0.667   0.023  0.00  0.00     0.027 A 
HETATM    4  C   UNK N   1      -3.070   0.931  -0.275  0.00  0.00     0.029 A 
HETATM    5  C   UNK N   1      -4.007  -0.108  -0.286  0.00  0.00     0.002 A 
HETATM    6  C   UNK N   1      -3.604  -1.417  -0.007  0.00  0.00     0.000 A 
HETATM    7  C   UNK N   1      -2.266  -1.688   0.289  0.00  0.00     0.002 A 
HETATM    8  C   UNK N   1      -1.333  -0.648   0.310  0.00  0.00     0.029 A 
ENDBRANCH   1   3
BRANCH   1   9
HETATM    9  C   UNK N   1       0.557   1.595   0.527  0.00  0.00     0.136 C 
BRANCH   9  10
HETATM   10  C   UNK N   1       1.393   0.718  -0.397  0.00  0.00     0.175 C 
BRANCH  10  11
HETATM   11  S   UNK N   1       2.579  -0.230   0.608  0.00  0.00     0.095 S 
HETATM   12  O   UNK N   1       3.527  -1.195  -0.117  0.00  0.00    -0.601 OA
HETATM   13  O   UNK N   1       3.359   0.813  -0.207  0.00  0.00    -0.601 OA
BRANCH  11  14
HETATM   14  O   UNK N   1       1.566  -1.046  -0.513  0.00  0.00    -0.296 OA
HETATM   15  H   UNK N   1       0.881  -0.781  -1.147  0.00  0.00     0.232 HD
ENDBRANCH  11  14
ENDBRANCH  10  11
ENDBRANCH   9  10
ENDBRANCH   1   9
TORSDOF 5
