REMARK  7 active torsions:
REMARK  status: ('A' for Active; 'I' for Inactive)
REMARK    1  A    between atoms: C_7  and  S_8 
REMARK    2  A    between atoms: S_8  and  C_11 
REMARK    3  A    between atoms: C_11  and  C_12 
REMARK    4  A    between atoms: C_12  and  O_13 
REMARK    5  A    between atoms: C_12  and  C_15 
REMARK       I    between atoms: C_15  and  N_17 
REMARK    6  A    between atoms: N_17  and  C_18 
REMARK    7  A    between atoms: C_25  and  C_26 
ROOT
HETATM    1  C   UNK N   1       2.691  -0.580  -0.064  0.00  0.00     0.035 A 
HETATM    2  C   UNK N   1       2.593   0.794   0.077  0.00  0.00     0.047 A 
HETATM    3  C   UNK N   1       3.922  -1.211   0.045  0.00  0.00     0.031 A 
HETATM    4  C   UNK N   1       5.062  -0.433   0.218  0.00  0.00     0.026 A 
HETATM    5  C   UNK N   1       4.958   0.967   0.295  0.00  0.00     0.059 A 
HETATM    6  C   UNK N   1       6.168   1.719   0.268  0.00  0.00     0.100 C 
HETATM    7  N   UNK N   1       7.169   2.294   0.246  0.00  0.00    -0.191 NA
HETATM    8  C   UNK N   1       3.690   1.594   0.245  0.00  0.00     0.070 A 
ENDROOT
BRANCH   8   9
HETATM    9  C   UNK N   1       3.455   3.089   0.175  0.00  0.00     0.419 C 
HETATM   10  F   UNK N   1       3.587   3.723   1.398  0.00  0.00    -0.166 F 
HETATM   11  F   UNK N   1       4.341   3.628  -0.730  0.00  0.00    -0.166 F 
HETATM   12  F   UNK N   1       2.174   3.348  -0.297  0.00  0.00    -0.166 F 
ENDBRANCH   8   9
BRANCH   1  13
HETATM   13  N   UNK N   1       1.530  -1.348  -0.151  0.00  0.00    -0.325 N 
HETATM   14  C   UNK N   1       0.290  -0.810  -0.143  0.00  0.00     0.257 C 
HETATM   15  O   UNK N   1       0.093   0.362  -0.459  0.00  0.00    -0.270 OA
HETATM   16  H   UNK N   1       1.618  -2.326  -0.223  0.00  0.00     0.169 HD
BRANCH  14  17
HETATM   17  C   UNK N   1      -0.650  -1.476   0.769  0.00  0.00     0.148 C 
HETATM   18  C   UNK N   1      -0.325  -0.904   2.136  0.00  0.00     0.057 C 
BRANCH  17  19
HETATM   19  C   UNK N   1      -2.133  -1.181   0.499  0.00  0.00     0.193 C 
BRANCH  19  20
HETATM   20  S   UNK N   1      -3.014  -1.688  -1.065  0.00  0.00     0.178 S 
HETATM   21  O   UNK N   1      -2.642  -2.994  -0.354  0.00  0.00    -0.222 OA
HETATM   22  O   UNK N   1      -1.748  -1.198  -1.770  0.00  0.00    -0.222 OA
BRANCH  20  23
HETATM   23  C   UNK N   1      -3.875  -0.330  -0.270  0.00  0.00     0.059 A 
HETATM   24  C   UNK N   1      -5.049  -0.597   0.443  0.00  0.00     0.026 A 
HETATM   25  C   UNK N   1      -5.887   0.449   0.825  0.00  0.00     0.044 A 
HETATM   26  C   UNK N   1      -5.570   1.763   0.472  0.00  0.00     0.116 A 
HETATM   27  F   UNK N   1      -6.416   2.765   0.796  0.00  0.00    -0.206 F 
HETATM   28  C   UNK N   1      -4.397   2.041  -0.233  0.00  0.00     0.044 A 
HETATM   29  C   UNK N   1      -3.558   0.998  -0.620  0.00  0.00     0.026 A 
ENDBRANCH  20  23
ENDBRANCH  19  20
ENDBRANCH  17  19
BRANCH  17  30
HETATM   30  O   UNK N   1      -0.377  -2.848   0.800  0.00  0.00    -0.380 OA
HETATM   31  H   UNK N   1      -1.106  -3.487   0.822  0.00  0.00     0.211 HD
ENDBRANCH  17  30
ENDBRANCH  14  17
ENDBRANCH   1  13
TORSDOF 7
