REMARK  4 active torsions:
REMARK  status: ('A' for Active; 'I' for Inactive)
REMARK    1  A    between atoms: O_1  and  C_2 
REMARK    2  A    between atoms: C_2  and  C_4 
REMARK    3  A    between atoms: C_5  and  O_6 
REMARK    4  A    between atoms: C_7  and  O_8 
ROOT
HETATM    1  C   UNK N   1       0.492   1.365   0.000  0.00  0.00     0.073 A 
HETATM    2  C   UNK N   1       1.744   0.704   0.000  0.00  0.00     0.115 A 
HETATM    3  C   UNK N   1       1.793  -0.700  -0.000  0.00  0.00     0.099 A 
HETATM    4  C   UNK N   1       0.612  -1.444   0.000  0.00  0.00     0.039 A 
HETATM    5  C   UNK N   1      -0.623  -0.797   0.000  0.00  0.00     0.004 A 
HETATM    6  C   UNK N   1      -0.682   0.598   0.000  0.00  0.00     0.021 A 
ENDROOT
BRANCH   1   7
HETATM    7  C   UNK N   1       0.375   2.848  -0.000  0.00  0.00     0.179 C 
HETATM    8  O   UNK N   1       1.369   3.556  -0.000  0.00  0.00    -0.646 OA
BRANCH   7   9
HETATM    9  O   UNK N   1      -0.843   3.426   0.000  0.00  0.00    -0.773 OA
HETATM   10  H   UNK N   1      -0.919   4.360   0.000  0.00  0.00     0.167 HD
ENDBRANCH   7   9
ENDBRANCH   1   7
BRANCH   2  11
HETATM   11  O   UNK N   1       2.894   1.403   0.000  0.00  0.00    -0.357 OA
HETATM   12  H   UNK N   1       3.716   0.954   0.000  0.00  0.00     0.217 HD
ENDBRANCH   2  11
BRANCH   3  13
HETATM   13  O   UNK N   1       2.978  -1.337  -0.000  0.00  0.00    -0.358 OA
HETATM   14  H   UNK N   1       3.006  -2.273  -0.000  0.00  0.00     0.217 HD
ENDBRANCH   3  13
TORSDOF 4
