REMARK  5 active torsions:
REMARK  status: ('A' for Active; 'I' for Inactive)
REMARK    1  A    between atoms: O_1  and  C_2 
REMARK    2  A    between atoms: C_3  and  C_2 
REMARK    3  A    between atoms: C_4  and  O_5 
REMARK    4  A    between atoms: C_7  and  N_9 
REMARK    5  A    between atoms: C_10  and  O_22 
REMARK       I    between atoms: C_17  and  N_18 
ROOT
HETATM    1  N   UNK N   1       1.072  -0.696   0.503  0.00  0.00    -0.269 N 
HETATM    2  C   UNK N   1       1.676  -1.891   0.273  0.00  0.00     0.228 A 
HETATM    3  N   UNK N   1       0.811  -2.848  -0.154  0.00  0.00    -0.314 N 
ATOM      4  HN  UNK N   1       1.012  -3.817  -0.401  1.00  0.00     0.170 HD
HETATM    5  C   UNK N   1      -0.377  -2.213  -0.175  0.00  0.00     0.150 A 
HETATM    6  C   UNK N   1      -1.634  -2.695  -0.498  0.00  0.00     0.290 A 
HETATM    7  O   UNK N   1      -1.801  -3.852  -0.840  0.00  0.00    -0.265 OA
HETATM    8  N   UNK N   1      -2.699  -1.827  -0.407  0.00  0.00    -0.154 N 
HETATM    9  C   UNK N   1      -2.517  -0.525  -0.008  0.00  0.00     0.680 A 
HETATM   10  N   UNK N   1      -3.625   0.339   0.088  0.00  0.00    -0.234 N 
HETATM   11  N   UNK N   1      -1.266  -0.065   0.308  0.00  0.00    -0.174 N 
ATOM     12  HN  UNK N   1      -1.123   0.900   0.607  1.00  0.00     0.186 HD
HETATM   13  C   UNK N   1      -0.222  -0.924   0.213  0.00  0.00     0.161 A 
HETATM   14  H   UNK N   1      -3.604  -2.145  -0.630  0.00  0.00     0.187 HD
HETATM   15  H   UNK N   1      -3.489   1.312   0.155  0.00  0.00     0.174 HD
HETATM   16  H   UNK N   1      -4.537  -0.031   0.088  0.00  0.00     0.174 HD
ENDROOT
BRANCH   1  17
HETATM   17  C   UNK N   1       1.704   0.532   1.010  0.00  0.00     0.236 C 
HETATM   18  C   UNK N   1       2.949   0.901   0.223  0.00  0.00     0.088 C 
HETATM   19  C   UNK N   1       2.515   2.086  -0.560  0.00  0.00     0.153 C 
HETATM   20  C   UNK N   1       1.440   2.671   0.316  0.00  0.00     0.176 C 
HETATM   21  O   UNK N   1       0.798   1.617   0.992  0.00  0.00    -0.356 OA
BRANCH  19  22
HETATM   22  O   UNK N   1       3.573   2.987  -0.692  0.00  0.00    -0.393 OA
HETATM   23  H   UNK N   1       4.483   2.664  -0.784  0.00  0.00     0.210 HD
ENDBRANCH  19  22
BRANCH  20  24
HETATM   24  C   UNK N   1       0.435   3.437  -0.533  0.00  0.00     0.198 C 
BRANCH  24  25
HETATM   25  O   UNK N   1       1.037   4.555  -1.112  0.00  0.00    -0.398 OA
HETATM   26  H   UNK N   1       1.919   4.582  -1.515  0.00  0.00     0.209 HD
ENDBRANCH  24  25
ENDBRANCH  20  24
ENDBRANCH   1  17
BRANCH   2  27
HETATM   27  O   UNK N   1       2.990  -2.114   0.452  0.00  0.00    -0.332 OA
HETATM   28  H   UNK N   1       3.313  -2.984   0.576  0.00  0.00     0.221 HD
ENDBRANCH   2  27
TORSDOF 5
