REMARK  7 active torsions:
REMARK  status: ('A' for Active; 'I' for Inactive)
REMARK    1  A    between atoms: C_4  and  C_7 
REMARK    2  A    between atoms: C_5  and  O_8 
REMARK    3  A    between atoms: P_9  and  O_8 
REMARK    4  A    between atoms: P_9  and  O_10 
REMARK    5  A    between atoms: P_9  and  O_14 
REMARK    6  A    between atoms: O_10  and  C_12 
REMARK    7  A    between atoms: C_12  and  C_15 
ROOT
HETATM    1  P   UNK N   1       0.103   0.849  -0.298  0.00  0.00     0.398 P 
HETATM    2  O   UNK N   1       0.089   0.185  -1.701  0.00  0.00    -0.631 OA
ENDROOT
BRANCH   1   3
HETATM    3  O   UNK N   1      -1.510   1.353   0.023  0.00  0.00    -0.254 OA
BRANCH   3   4
HETATM    4  C   UNK N   1      -2.575   0.523   0.130  0.00  0.00     0.094 A 
HETATM    5  C   UNK N   1      -3.884   1.055   0.064  0.00  0.00     0.035 A 
HETATM    6  C   UNK N   1      -4.984   0.196   0.175  0.00  0.00     0.017 A 
HETATM    7  C   UNK N   1      -4.798  -1.176   0.354  0.00  0.00     0.001 A 
HETATM    8  C   UNK N   1      -3.508  -1.704   0.419  0.00  0.00     0.003 A 
HETATM    9  C   UNK N   1      -2.401  -0.860   0.305  0.00  0.00     0.038 A 
BRANCH   5  10
HETATM   10  C   UNK N   1      -4.150   2.492  -0.143  0.00  0.00     0.272 C 
HETATM   11  O   UNK N   1      -3.246   3.302  -0.290  0.00  0.00    -0.301 OA
ENDBRANCH   5  10
ENDBRANCH   3   4
ENDBRANCH   1   3
BRANCH   1  12
HETATM   12  O   UNK N   1       0.716  -0.336   0.830  0.00  0.00    -0.296 OA
BRANCH  12  13
HETATM   13  C   UNK N   1       2.090  -0.080   0.925  0.00  0.00     0.185 C 
BRANCH  13  14
HETATM   14  C   UNK N   1       2.844  -0.681  -0.259  0.00  0.00     0.010 C 
HETATM   15  C   UNK N   1       4.040   0.202  -0.631  0.00  0.00     0.007 C 
HETATM   16  C   UNK N   1       5.205  -0.016   0.332  0.00  0.00     0.000 C 
HETATM   17  C   UNK N   1       5.610  -1.495   0.445  0.00  0.00     0.000 C 
HETATM   18  C   UNK N   1       4.678  -2.445  -0.314  0.00  0.00     0.000 C 
HETATM   19  C   UNK N   1       3.219  -2.142   0.027  0.00  0.00     0.007 C 
ENDBRANCH  13  14
ENDBRANCH  12  13
ENDBRANCH   1  12
BRANCH   1  20
HETATM   20  O   UNK N   1       1.135   2.242  -0.417  0.00  0.00    -0.307 OA
HETATM   21  H   UNK N   1       2.096   2.133  -0.484  0.00  0.00     0.222 HD
ENDBRANCH   1  20
TORSDOF 7
