REMARK  6 active torsions:
REMARK  status: ('A' for Active; 'I' for Inactive)
REMARK    1  A    between atoms: C_3  and  N_4 
REMARK    2  A    between atoms: C_3  and  C_5 
REMARK    3  A    between atoms: C_10  and  C_15 
REMARK       I    between atoms: C_15  and  N_17 
REMARK    4  A    between atoms: N_17  and  C_18 
REMARK    5  A    between atoms: C_21  and  C_24 
REMARK    6  A    between atoms: C_24  and  N_25 
ROOT
HETATM    1  C   UNK N   1      -5.249   1.849  -0.000  0.00  0.00     0.008 A 
HETATM    2  C   UNK N   1      -3.962   2.398  -0.000  0.00  0.00     0.027 A 
HETATM    3  C   UNK N   1      -2.845   1.568  -0.000  0.00  0.00    -0.025 A 
HETATM    4  C   UNK N   1      -1.569   2.123  -0.000  0.00  0.00     0.013 A 
HETATM    5  C   UNK N   1      -0.454   1.290  -0.000  0.00  0.00     0.018 A 
HETATM    6  C   UNK N   1      -0.605  -0.105  -0.000  0.00  0.00     0.033 A 
HETATM    7  C   UNK N   1      -1.888  -0.667  -0.000  0.00  0.00     0.029 A 
HETATM    8  C   UNK N   1      -3.008   0.164  -0.000  0.00  0.00    -0.025 A 
HETATM    9  C   UNK N   1      -4.290  -0.387  -0.000  0.00  0.00     0.013 A 
HETATM   10  C   UNK N   1      -5.407   0.453  -0.000  0.00  0.00     0.016 A 
ENDROOT
BRANCH   6  11
HETATM   11  C   UNK N   1       0.589  -0.960  -0.000  0.00  0.00     0.256 C 
HETATM   12  O   UNK N   1       0.477  -2.176  -0.000  0.00  0.00    -0.267 OA
HETATM   13  N   UNK N   1       1.810  -0.363   0.000  0.00  0.00    -0.323 N 
HETATM   14  H   UNK N   1       1.819   0.621   0.000  0.00  0.00     0.169 HD
BRANCH  13  15
HETATM   15  C   UNK N   1       3.071  -1.007   0.000  0.00  0.00     0.035 A 
HETATM   16  C   UNK N   1       4.215  -0.208   0.000  0.00  0.00     0.030 A 
HETATM   17  C   UNK N   1       5.480  -0.790   0.000  0.00  0.00     0.011 A 
HETATM   18  C   UNK N   1       5.615  -2.185   0.000  0.00  0.00    -0.041 A 
HETATM   19  C   UNK N   1       4.471  -2.990  -0.000  0.00  0.00     0.011 A 
HETATM   20  C   UNK N   1       3.202  -2.404   0.000  0.00  0.00     0.030 A 
BRANCH  18  21
HETATM   21  C   UNK N   1       6.962  -2.838  -0.000  0.00  0.00     0.150 C 
BRANCH  21  22
HETATM   22  N   UNK N   1       8.039  -1.859  -0.000  0.00  0.00    -0.426 N 
HETATM   23  H   UNK N   1       9.010  -2.169  -0.000  0.00  0.00     0.150 HD
HETATM   24  H   UNK N   1       7.822  -0.862  -0.000  0.00  0.00     0.150 HD
ENDBRANCH  21  22
ENDBRANCH  18  21
ENDBRANCH  13  15
ENDBRANCH   6  11
BRANCH   1  25
HETATM   25  C   UNK N   1      -6.423   2.742   0.000  0.00  0.00     0.102 C 
HETATM   26  N   UNK N   1      -7.609   2.255   0.000  0.00  0.00    -0.385 N 
HETATM   27  H   UNK N   1      -8.389   2.856   0.000  0.00  0.00     0.157 HD
ATOM     28  HN  UNK N   1      -7.745   1.244   0.000  1.00  0.00     0.157 HD
BRANCH  25  29
HETATM   29  N   UNK N   1      -6.249   4.145   0.000  0.00  0.00    -0.385 N 
HETATM   30  H   UNK N   1      -5.342   4.528   0.000  0.00  0.00     0.157 HD
HETATM   31  H   UNK N   1      -7.034   4.739   0.000  0.00  0.00     0.157 HD
ENDBRANCH  25  29
ENDBRANCH   1  25
TORSDOF 6
