REMARK  5 active torsions:
REMARK  status: ('A' for Active; 'I' for Inactive)
REMARK    1  A    between atoms: C_4  and  C_7 
REMARK    2  A    between atoms: C_7  and  C_8 
REMARK    3  A    between atoms: C_7  and  S_10 
REMARK    4  A    between atoms: C_8  and  O_9 
REMARK    5  A    between atoms: S_10  and  O_11 
ROOT
HETATM    1  C   UNK N   1      -1.227  -0.125   0.410  0.00  0.00     0.252 C 
ENDROOT
BRANCH   1   2
HETATM    2  C   UNK N   1       0.175   0.402   0.108  0.00  0.00    -0.028 A 
HETATM    3  C   UNK N   1       1.287  -0.372   0.483  0.00  0.00     0.009 A 
HETATM    4  C   UNK N   1       2.587   0.077   0.237  0.00  0.00     0.001 A 
HETATM    5  C   UNK N   1       2.795   1.316  -0.371  0.00  0.00     0.000 A 
HETATM    6  C   UNK N   1       1.702   2.104  -0.737  0.00  0.00     0.001 A 
HETATM    7  C   UNK N   1       0.402   1.648  -0.502  0.00  0.00     0.009 A 
ENDBRANCH   1   2
BRANCH   1   8
HETATM    8  C   UNK N   1      -2.408   0.721  -0.043  0.00  0.00     0.165 C 
HETATM    9  O   UNK N   1      -2.257   1.751  -0.680  0.00  0.00    -0.649 OA
BRANCH   8  10
HETATM   10  O   UNK N   1      -3.658   0.321   0.262  0.00  0.00    -0.775 OA
HETATM   11  H   UNK N   1      -4.333   0.935   0.475  0.00  0.00     0.167 HD
ENDBRANCH   8  10
ENDBRANCH   1   8
BRANCH   1  12
HETATM   12  S   UNK N   1      -1.432  -1.807  -0.282  0.00  0.00     0.113 S 
HETATM   13  O   UNK N   1      -0.550  -2.829   0.452  0.00  0.00    -0.601 OA
HETATM   14  O   UNK N   1      -0.920  -1.941  -1.724  0.00  0.00    -0.601 OA
BRANCH  12  15
HETATM   15  O   UNK N   1      -2.991  -2.527  -0.284  0.00  0.00    -0.295 OA
HETATM   16  H   UNK N   1      -3.783  -1.967  -0.284  0.00  0.00     0.232 HD
ENDBRANCH  12  15
ENDBRANCH   1  12
TORSDOF 5
