REMARK  5 active torsions:
REMARK  status: ('A' for Active; 'I' for Inactive)
REMARK    1  A    between atoms: C_5  and  O_8 
REMARK    2  A    between atoms: C_6  and  C_7 
REMARK    3  A    between atoms: O_8  and  P_9 
REMARK    4  A    between atoms: P_9  and  O_10 
REMARK    5  A    between atoms: P_9  and  O_11 
ROOT
HETATM    1  C   UNK N   1       2.943   0.411   0.004  0.00  0.00     0.017 A 
HETATM    2  C   UNK N   1       2.987  -0.976  -0.147  0.00  0.00     0.001 A 
HETATM    3  C   UNK N   1       1.806  -1.697  -0.305  0.00  0.00     0.003 A 
HETATM    4  C   UNK N   1       0.580  -1.033  -0.311  0.00  0.00     0.038 A 
HETATM    5  C   UNK N   1       0.515   0.363  -0.151  0.00  0.00     0.094 A 
HETATM    6  C   UNK N   1       1.720   1.094   0.004  0.00  0.00     0.035 A 
ENDROOT
BRANCH   5   7
HETATM    7  O   UNK N   1      -0.689   1.006  -0.151  0.00  0.00    -0.254 OA
BRANCH   7   8
HETATM    8  P   UNK N   1      -2.213   0.240  -0.469  0.00  0.00     0.396 P 
HETATM    9  O   UNK N   1      -1.922  -0.430   0.902  0.00  0.00    -0.631 OA
BRANCH   8  10
HETATM   10  O   UNK N   1      -3.673   0.558   0.412  0.00  0.00    -0.307 OA
HETATM   11  H   UNK N   1      -3.927   1.354   0.905  0.00  0.00     0.222 HD
ENDBRANCH   8  10
BRANCH   8  12
HETATM   12  O   UNK N   1      -2.451   1.931  -0.156  0.00  0.00    -0.307 OA
HETATM   13  H   UNK N   1      -1.700   2.519   0.019  0.00  0.00     0.222 HD
ENDBRANCH   8  12
ENDBRANCH   7   8
ENDBRANCH   5   7
BRANCH   6  14
HETATM   14  C   UNK N   1       1.760   2.561   0.156  0.00  0.00     0.272 C 
HETATM   15  O   UNK N   1       0.746   3.240   0.138  0.00  0.00    -0.301 OA
ENDBRANCH   6  14
TORSDOF 5
