REMARK  6 active torsions:
REMARK  status: ('A' for Active; 'I' for Inactive)
REMARK    1  A    between atoms: C_4  and  O_9 
REMARK    2  A    between atoms: C_5  and  O_8 
REMARK    3  A    between atoms: C_6  and  C_7 
REMARK    4  A    between atoms: O_8  and  P_11 
REMARK    5  A    between atoms: P_11  and  O_12 
REMARK    6  A    between atoms: P_11  and  O_14 
ROOT
HETATM    1  C   UNK N   1       3.477   0.836   0.366  0.00  0.00     0.017 A 
HETATM    2  C   UNK N   1       3.727  -0.510   0.607  0.00  0.00     0.004 A 
HETATM    3  C   UNK N   1       2.708  -1.446   0.458  0.00  0.00     0.040 A 
HETATM    4  C   UNK N   1       1.423  -1.059   0.060  0.00  0.00     0.103 A 
HETATM    5  C   UNK N   1       1.162   0.321  -0.190  0.00  0.00     0.127 A 
HETATM    6  C   UNK N   1       2.208   1.268  -0.030  0.00  0.00     0.038 A 
ENDROOT
BRANCH   5   7
HETATM    7  O   UNK N   1      -0.059   0.727  -0.614  0.00  0.00    -0.251 OA
BRANCH   7   8
HETATM    8  P   UNK N   1      -1.304   1.216   0.468  0.00  0.00     0.396 P 
HETATM    9  O   UNK N   1      -1.559   2.744   0.558  0.00  0.00    -0.631 OA
BRANCH   8  10
HETATM   10  O   UNK N   1      -2.682   0.215   0.802  0.00  0.00    -0.307 OA
HETATM   11  H   UNK N   1      -3.552   0.602   0.989  0.00  0.00     0.222 HD
ENDBRANCH   8  10
BRANCH   8  12
HETATM   12  O   UNK N   1      -2.143   1.368  -1.043  0.00  0.00    -0.307 OA
HETATM   13  H   UNK N   1      -2.304   1.817  -1.887  0.00  0.00     0.222 HD
ENDBRANCH   8  12
ENDBRANCH   7   8
ENDBRANCH   5   7
BRANCH   4  14
HETATM   14  O   UNK N   1       0.499  -2.046  -0.071  0.00  0.00    -0.353 OA
HETATM   15  C   UNK N   1      -0.805  -1.889  -0.474  0.00  0.00     0.210 C 
ENDBRANCH   4  14
BRANCH   6  16
HETATM   16  C   UNK N   1       2.044   2.715  -0.273  0.00  0.00     0.272 C 
HETATM   17  O   UNK N   1       0.983   3.200  -0.629  0.00  0.00    -0.301 OA
ENDBRANCH   6  16
TORSDOF 6
