REMARK  6 active torsions:
REMARK  status: ('A' for Active; 'I' for Inactive)
REMARK    1  A    between atoms: C_4  and  C_8 
REMARK    2  A    between atoms: C_7  and  O_13 
REMARK    3  A    between atoms: C_8  and  C_9 
REMARK    4  A    between atoms: C_9  and  O_15 
REMARK    5  A    between atoms: C_10  and  C_11 
REMARK    6  A    between atoms: C_10  and  O_13 
ROOT
HETATM    1 Cl   UNK N   1       3.843   1.125  -0.015  0.00  0.00    -0.081 Cl
HETATM    2  C   UNK N   1       2.333   0.229  -0.000  0.00  0.00     0.067 A 
HETATM    3  C   UNK N   1       2.369  -1.173   0.003  0.00  0.00     0.034 A 
HETATM    4  C   UNK N   1       1.182  -1.918   0.013  0.00  0.00    -0.046 A 
HETATM    5  C   UNK N   1      -0.043  -1.244   0.022  0.00  0.00     0.010 A 
HETATM    6  C   UNK N   1      -0.087   0.145   0.019  0.00  0.00     0.039 A 
HETATM    7  C   UNK N   1       1.097   0.898   0.007  0.00  0.00     0.090 A 
ENDROOT
BRANCH   4   8
HETATM    8  C   UNK N   1       1.270  -3.424   0.012  0.00  0.00     0.148 C 
BRANCH   8   9
HETATM    9  C   UNK N   1      -0.010  -4.232  -0.002  0.00  0.00     0.143 C 
HETATM   10  O   UNK N   1       0.063  -5.449   0.003  0.00  0.00    -0.650 OA
BRANCH   9  11
HETATM   11  O   UNK N   1      -1.224  -3.649  -0.025  0.00  0.00    -0.776 OA
HETATM   12  H   UNK N   1      -1.295  -2.715  -0.040  0.00  0.00     0.167 HD
ENDBRANCH   9  11
ENDBRANCH   8   9
ENDBRANCH   4   8
BRANCH   7  13
HETATM   13  O   UNK N   1       1.051   2.254   0.002  0.00  0.00    -0.349 OA
BRANCH  13  14
HETATM   14  C   UNK N   1      -0.147   2.937  -0.001  0.00  0.00     0.175 C 
BRANCH  14  15
HETATM   15  C   UNK N   1       0.080   4.430   0.006  0.00  0.00     0.022 C 
HETATM   16  C   UNK N   1      -1.269   5.119   0.005  0.00  0.00     0.007 C 
ENDBRANCH  14  15
ENDBRANCH  13  14
ENDBRANCH   7  13
TORSDOF 6
