REMARK  4 active torsions:
REMARK  status: ('A' for Active; 'I' for Inactive)
REMARK    1  A    between atoms: N_1  and  C_2 
REMARK    2  A    between atoms: C_8  and  O_9 
REMARK    3  A    between atoms: O_9  and  C_10 
REMARK    4  A    between atoms: C_10  and  C_11 
ROOT
HETATM    1  C   UNK N   1       2.627   0.185   0.000  0.00  0.00     0.132 A 
HETATM    2  N   UNK N   1       3.931  -0.208   0.000  0.00  0.00    -0.350 N 
ATOM      3  HN  UNK N   1       4.661   0.504   0.000  1.00  0.00     0.166 HD
HETATM    4  C   UNK N   1       4.289  -1.516   0.000  0.00  0.00     0.090 A 
HETATM    5  C   UNK N   1       3.312  -2.509   0.000  0.00  0.00     0.020 A 
HETATM    6  C   UNK N   1       1.965  -2.144  -0.000  0.00  0.00     0.042 A 
HETATM    7  C   UNK N   1       1.594  -0.797  -0.000  0.00  0.00     0.112 A 
ENDROOT
BRANCH   7   8
HETATM    8  O   UNK N   1       0.262  -0.497  -0.000  0.00  0.00    -0.343 OA
BRANCH   8   9
HETATM    9  C   UNK N   1      -0.235   0.789  -0.000  0.00  0.00     0.214 C 
BRANCH   9  10
HETATM   10  C   UNK N   1      -1.728   0.875  -0.000  0.00  0.00    -0.034 A 
HETATM   11  C   UNK N   1      -2.549  -0.262   0.000  0.00  0.00     0.009 A 
HETATM   12  C   UNK N   1      -3.942  -0.116   0.000  0.00  0.00     0.001 A 
HETATM   13  C   UNK N   1      -4.515   1.161   0.000  0.00  0.00     0.000 A 
HETATM   14  C   UNK N   1      -3.697   2.293  -0.000  0.00  0.00     0.001 A 
HETATM   15  C   UNK N   1      -2.308   2.148  -0.000  0.00  0.00     0.009 A 
ENDBRANCH   9  10
ENDBRANCH   8   9
ENDBRANCH   7   8
BRANCH   1  16
HETATM   16  N   UNK N   1       2.341   1.565   0.000  0.00  0.00    -0.383 N 
HETATM   17  H   UNK N   1       3.076   2.220   0.000  0.00  0.00     0.157 HD
HETATM   18  H   UNK N   1       1.406   1.875   0.000  0.00  0.00     0.157 HD
ENDBRANCH   1  16
TORSDOF 4
