REMARK  14 active torsions:
REMARK  status: ('A' for Active; 'I' for Inactive)
REMARK    1  A    between atoms: P_1  and  O_5 
REMARK    2  A    between atoms: P_1  and  O_6 
REMARK    3  A    between atoms: P_1  and  O_7 
REMARK    4  A    between atoms: C_20  and  O_3 
REMARK    5  A    between atoms: C_21  and  O_4 
REMARK    6  A    between atoms: O_5  and  C_24 
REMARK    7  A    between atoms: O_6  and  C_34 
REMARK    8  A    between atoms: C_22  and  N_10 
REMARK    9  A    between atoms: N_17  and  C_28 
REMARK   10  A    between atoms: C_30  and  N_19 
REMARK   11  A    between atoms: C_23  and  C_24 
REMARK   12  A    between atoms: C_29  and  C_30 
REMARK   13  A    between atoms: C_29  and  C_31 
REMARK   14  A    between atoms: C_30  and  C_34 
ROOT
HETATM    1  O   UNK N   1       4.357   0.452  -0.639  0.00  0.00    -0.353 OA
HETATM    2  C   UNK N   1       2.172   0.699   0.158  0.00  0.00     0.198 C 
HETATM    3  C   UNK N   1       2.722   2.062  -0.028  0.00  0.00     0.182 C 
HETATM    4  C   UNK N   1       3.463  -0.064   0.317  0.00  0.00     0.262 C 
HETATM    5  C   UNK N   1       3.960   1.797  -0.850  0.00  0.00     0.180 C 
ENDROOT
BRANCH   5   6
HETATM    6  C   UNK N   1       5.020   2.775  -0.359  0.00  0.00     0.215 C 
BRANCH   6   7
HETATM    7  O   UNK N   1       6.294   2.374  -0.751  0.00  0.00    -0.294 OA
BRANCH   7   8
HETATM    8  P   UNK N   1       7.043   1.748   0.694  0.00  0.00     0.400 P 
HETATM    9  O   UNK N   1       7.724   2.917   1.453  0.00  0.00    -0.631 OA
BRANCH   8  10
HETATM   10  O   UNK N   1       8.234   0.578   0.273  0.00  0.00    -0.218 OA
BRANCH  10  11
HETATM   11  C   UNK N   1       9.330   0.798  -0.500  0.00  0.00     0.290 C 
HETATM   12  O   UNK N   1       9.939  -0.165  -0.934  0.00  0.00    -0.262 OA
BRANCH  11  13
HETATM   13  C   UNK N   1       9.867   2.170  -0.813  0.00  0.00     0.179 C 
BRANCH  13  14
HETATM   14  N   UNK N   1       8.922   2.982  -1.557  0.00  0.00    -0.418 N 
HETATM   15  H   UNK N   1       9.084   3.842  -2.081  0.00  0.00     0.150 HD
HETATM   16  H   UNK N   1       7.959   2.644  -1.557  0.00  0.00     0.150 HD
ENDBRANCH  13  14
BRANCH  13  17
HETATM   17  C   UNK N   1      10.338   2.889   0.439  0.00  0.00     0.075 C 
BRANCH  17  18
HETATM   18  C   UNK N   1      11.788   3.200   0.324  0.00  0.00    -0.028 A 
HETATM   19  C   UNK N   1      12.816   2.306   0.176  0.00  0.00    -0.002 A 
HETATM   20  C   UNK N   1      13.963   3.039   0.091  0.00  0.00     0.042 A 
HETATM   21  C   UNK N   1      12.820   0.915   0.102  0.00  0.00     0.014 A 
HETATM   22  N   UNK N   1      13.704   4.356   0.186  0.00  0.00    -0.365 N 
HETATM   23  C   UNK N   1      15.207   2.438  -0.078  0.00  0.00     0.030 A 
HETATM   24  C   UNK N   1      12.358   4.467   0.331  0.00  0.00     0.096 A 
HETATM   25  H   UNK N   1      14.358   5.092   0.157  0.00  0.00     0.165 HD
HETATM   26  C   UNK N   1      15.249   1.033  -0.159  0.00  0.00     0.002 A 
HETATM   27  C   UNK N   1      14.060   0.274  -0.068  0.00  0.00     0.001 A 
ENDBRANCH  17  18
ENDBRANCH  13  17
ENDBRANCH  11  13
ENDBRANCH  10  11
ENDBRANCH   8  10
BRANCH   8  28
HETATM   28  O   UNK N   1       5.894   1.032   1.782  0.00  0.00    -0.307 OA
HETATM   29  H   UNK N   1       5.227   1.388   2.389  0.00  0.00     0.222 HD
ENDBRANCH   8  28
ENDBRANCH   7   8
ENDBRANCH   6   7
ENDBRANCH   5   6
BRANCH   3  30
HETATM   30  O   UNK N   1       1.827   2.888  -0.706  0.00  0.00    -0.390 OA
HETATM   31  H   UNK N   1       2.013   3.715  -1.178  0.00  0.00     0.210 HD
ENDBRANCH   3  30
BRANCH   4  32
HETATM   32  N   UNK N   1       3.319  -1.519   0.181  0.00  0.00    -0.297 N 
HETATM   33  C   UNK N   1       2.219  -2.271   0.013  0.00  0.00     0.142 A 
HETATM   34  N   UNK N   1       0.930  -1.863  -0.090  0.00  0.00    -0.336 N 
HETATM   35  C   UNK N   1       2.566  -3.572  -0.021  0.00  0.00     0.122 A 
HETATM   36  C   UNK N   1      -0.041  -2.816  -0.234  0.00  0.00     0.183 A 
ATOM     37  HN  UNK N   1       0.691  -0.872  -0.061  1.00  0.00     0.168 HD
HETATM   38  N   UNK N   1       0.292  -4.148  -0.270  0.00  0.00    -0.337 N 
HETATM   39  C   UNK N   1       1.594  -4.550  -0.165  0.00  0.00     0.131 A 
ATOM     40  HN  UNK N   1      -0.443  -4.847  -0.376  1.00  0.00     0.168 HD
HETATM   41  N   UNK N   1       3.899  -3.694   0.116  0.00  0.00    -0.346 N 
HETATM   42  C   UNK N   1       4.343  -2.411   0.243  0.00  0.00     0.188 A 
ATOM     43  HN  UNK N   1       4.451  -4.551   0.122  1.00  0.00     0.167 HD
BRANCH  39  44
HETATM   44  N   UNK N   1       1.927  -5.919  -0.194  0.00  0.00    -0.383 N 
HETATM   45  H   UNK N   1       1.215  -6.598  -0.214  0.00  0.00     0.157 HD
HETATM   46  H   UNK N   1       2.872  -6.195  -0.194  0.00  0.00     0.157 HD
ENDBRANCH  39  44
ENDBRANCH   4  32
BRANCH   2  47
HETATM   47  O   UNK N   1       1.407   0.637   1.322  0.00  0.00    -0.388 OA
HETATM   48  H   UNK N   1       1.103   1.077   2.132  0.00  0.00     0.210 HD
ENDBRANCH   2  47
TORSDOF 14
