REMARK  3 active torsions:
REMARK  status: ('A' for Active; 'I' for Inactive)
REMARK    1  A    between atoms: N_6  and  C_14 
REMARK       I    between atoms: N_6  and  C_16 
REMARK       I    between atoms: N_7  and  C_16 
REMARK    2  A    between atoms: N_7  and  C_17 
REMARK    3  A    between atoms: C_8  and  C_9 
ROOT
HETATM    1  O   UNK N   1       3.598   1.386   0.818  0.00  0.00    -0.247 OA
HETATM    2  N   UNK N   1       3.111  -0.656   0.045  0.00  0.00    -0.293 N 
HETATM    3  N   UNK N   1       1.472   1.020   0.231  0.00  0.00    -0.309 N 
HETATM    4  C   UNK N   1       2.760   0.611   0.381  0.00  0.00     0.326 C 
HETATM    5  H   UNK N   1       2.392  -1.313  -0.093  0.00  0.00     0.172 HD
HETATM    6  H   UNK N   1       0.769   0.343   0.100  0.00  0.00     0.170 HD
ENDROOT
BRANCH   2   7
HETATM    7  C   UNK N   1       4.462  -1.097  -0.119  0.00  0.00     0.127 A 
HETATM    8  N   UNK N   1       5.504  -0.338  -0.541  0.00  0.00    -0.281 N 
HETATM    9  N   UNK N   1       6.569  -1.103  -0.670  0.00  0.00    -0.301 N 
HETATM   10  C   UNK N   1       5.527   1.064  -0.925  0.00  0.00     0.179 C 
HETATM   11  C   UNK N   1       6.223  -2.363  -0.344  0.00  0.00     0.037 A 
ATOM     12  HN  UNK N   1       7.496  -0.795  -0.966  1.00  0.00     0.187 HD
HETATM   13  C   UNK N   1       4.875  -2.409   0.007  0.00  0.00     0.077 A 
BRANCH  11  14
HETATM   14  C   UNK N   1       7.168  -3.532  -0.415  0.00  0.00    -0.007 C 
HETATM   15  C   UNK N   1       7.306  -4.174   0.951  0.00  0.00     0.021 C 
HETATM   16  C   UNK N   1       6.638  -4.557  -1.399  0.00  0.00     0.021 C 
HETATM   17  C   UNK N   1       8.548  -3.094  -0.882  0.00  0.00     0.021 C 
ENDBRANCH  11  14
ENDBRANCH   2   7
BRANCH   3  18
HETATM   18  C   UNK N   1       1.107   2.398   0.256  0.00  0.00     0.036 A 
HETATM   19  C   UNK N   1      -0.194   2.780   0.599  0.00  0.00     0.031 A 
HETATM   20  C   UNK N   1      -0.548   4.136   0.597  0.00  0.00     0.026 A 
HETATM   21  C   UNK N   1       0.391   5.109   0.230  0.00  0.00     0.034 A 
HETATM   22 Cl   UNK N   1      -0.037   6.805   0.236  0.00  0.00    -0.084 Cl
HETATM   23  C   UNK N   1       1.679   4.730  -0.141  0.00  0.00     0.026 A 
HETATM   24  C   UNK N   1       2.033   3.385  -0.130  0.00  0.00     0.031 A 
ENDBRANCH   3  18
TORSDOF 3
