REMARK  11 active torsions:
REMARK  status: ('A' for Active; 'I' for Inactive)
REMARK    1  A    between atoms: C_1  and  C_2 
REMARK    2  A    between atoms: C_1  and  C_14 
REMARK    3  A    between atoms: C_2  and  C_3 
REMARK    4  A    between atoms: C_3  and  C_4 
REMARK    5  A    between atoms: C_4  and  O_5 
REMARK    6  A    between atoms: C_8  and  O_9 
REMARK    7  A    between atoms: C_8  and  C_10 
REMARK    8  A    between atoms: C_10  and  C_11 
REMARK    9  A    between atoms: C_11  and  C_12 
REMARK   10  A    between atoms: C_12  and  C_13 
REMARK   11  A    between atoms: C_13  and  C_14 
ROOT
HETATM    1  C   UNK N   1       0.242  -1.018   0.164  0.00  0.00     0.078 C 
ENDROOT
BRANCH   1   2
HETATM    2  C   UNK N   1       1.319   0.018   0.088  0.00  0.00     0.127 C 
HETATM    3  O   UNK N   1       1.053   1.209  -0.009  0.00  0.00    -0.298 OA
BRANCH   2   4
HETATM    4  C   UNK N   1       2.736  -0.463   0.117  0.00  0.00     0.088 C 
BRANCH   4   5
HETATM    5  C   UNK N   1       3.783   0.637   0.018  0.00  0.00     0.117 C 
BRANCH   5   6
HETATM    6  C   UNK N   1       5.166   0.055  -0.011  0.00  0.00     0.139 C 
HETATM    7  O   UNK N   1       6.130   0.799  -0.059  0.00  0.00    -0.650 OA
BRANCH   6   8
HETATM    8  O   UNK N   1       5.356  -1.281   0.016  0.00  0.00    -0.776 OA
HETATM    9  H   UNK N   1       4.619  -1.859   0.034  0.00  0.00     0.167 HD
ENDBRANCH   6   8
ENDBRANCH   5   6
ENDBRANCH   4   5
ENDBRANCH   2   4
ENDBRANCH   1   2
BRANCH   1  10
HETATM   10  C   UNK N   1      -1.164  -0.477   0.001  0.00  0.00     0.007 C 
BRANCH  10  11
HETATM   11  C   UNK N   1      -2.096  -1.665  -0.140  0.00  0.00     0.001 C 
BRANCH  11  12
HETATM   12  C   UNK N   1      -3.441  -1.221  -0.671  0.00  0.00     0.010 C 
BRANCH  12  13
HETATM   13  C   UNK N   1      -4.325  -0.742   0.463  0.00  0.00     0.110 C 
BRANCH  13  14
HETATM   14  C   UNK N   1      -4.924   0.576   0.109  0.00  0.00     0.139 C 
HETATM   15  O   UNK N   1      -4.214   1.563   0.005  0.00  0.00    -0.650 OA
BRANCH  14  16
HETATM   16  O   UNK N   1      -6.250   0.678  -0.091  0.00  0.00    -0.776 OA
HETATM   17  H   UNK N   1      -6.651   1.514  -0.230  0.00  0.00     0.167 HD
ENDBRANCH  14  16
ENDBRANCH  13  14
ENDBRANCH  12  13
ENDBRANCH  11  12
ENDBRANCH  10  11
ENDBRANCH   1  10
TORSDOF 11
