REMARK  0 active torsions:
REMARK  status: ('A' for Active; 'I' for Inactive)
ROOT
HETATM    1  C   UNK N   1       3.627   0.716  -0.000  0.00  0.00     0.001 A 
HETATM    2  C   UNK N   1       2.391   1.369  -0.000  0.00  0.00     0.015 A 
HETATM    3  C   UNK N   1       1.213   0.619  -0.000  0.00  0.00     0.007 A 
HETATM    4  C   UNK N   1       1.271  -0.818  -0.000  0.00  0.00     0.027 A 
HETATM    5  C   UNK N   1       2.522  -1.446  -0.000  0.00  0.00     0.016 A 
HETATM    6  C   UNK N   1       3.692  -0.683  -0.000  0.00  0.00     0.001 A 
HETATM    7  C   UNK N   1      -1.144   0.449   0.000  0.00  0.00     0.035 A 
HETATM    8  C   UNK N   1      -2.205   1.263   0.000  0.00  0.00     0.061 A 
HETATM    9  C   UNK N   1      -3.496   0.734   0.000  0.00  0.00     0.032 A 
HETATM   10  C   UNK N   1      -3.615  -0.686   0.000  0.00  0.00     0.003 A 
HETATM   11  C   UNK N   1      -2.455  -1.519   0.000  0.00  0.00     0.016 A 
HETATM   12  C   UNK N   1      -1.179  -0.919   0.000  0.00  0.00     0.030 A 
HETATM   13  C   UNK N   1       0.062  -1.590  -0.000  0.00  0.00     0.194 A 
HETATM   14  C   UNK N   1      -0.049   1.216  -0.000  0.00  0.00     0.072 A 
HETATM   15  O   UNK N   1       0.101  -2.810  -0.000  0.00  0.00    -0.287 OA
HETATM   16  N   UNK N   1      -0.429   2.516   0.000  0.00  0.00    -0.299 N 
ATOM     17  HN  UNK N   1       0.191   3.326   0.000  1.00  0.00     0.187 HD
HETATM   18  N   UNK N   1      -1.771   2.545   0.000  0.00  0.00    -0.299 N 
HETATM   19  H   UNK N   1      -2.336   3.351   0.000  0.00  0.00     0.187 HD
ENDROOT
TORSDOF 0
