REMARK  7 active torsions:
REMARK  status: ('A' for Active; 'I' for Inactive)
REMARK    1  A    between atoms: C_8  and  C_9 
REMARK    2  A    between atoms: C_10  and  C_11 
REMARK    3  A    between atoms: C_11  and  N_12 
REMARK    4  A    between atoms: C_13  and  N_14 
REMARK    5  A    between atoms: C_17  and  C_20 
REMARK    6  A    between atoms: C_22  and  O_23 
REMARK    7  A    between atoms: C_26  and  O_28 
ROOT
HETATM    1  C   UNK N   1       0.033  -1.623   0.041  0.00  0.00     0.057 A 
HETATM    2  C   UNK N   1      -1.170  -2.353  -0.196  0.00  0.00     0.030 A 
HETATM    3  C   UNK N   1      -2.377  -1.627  -0.299  0.00  0.00     0.110 A 
HETATM    4  N   UNK N   1      -0.058  -0.279   0.133  0.00  0.00    -0.340 N 
ATOM      5  HN  UNK N   1       0.798   0.251   0.296  1.00  0.00     0.167 HD
HETATM    6  C   UNK N   1      -1.217   0.404   0.021  0.00  0.00     0.117 A 
HETATM    7  N   UNK N   1      -2.376  -0.273  -0.189  0.00  0.00    -0.328 N 
ATOM      8  HN  UNK N   1      -3.254   0.241  -0.264  1.00  0.00     0.169 HD
ENDROOT
BRANCH   6   9
HETATM    9  C   UNK N   1      -1.177   1.873   0.075  0.00  0.00     0.013 A 
HETATM   10  C   UNK N   1      -2.341   2.646   0.009  0.00  0.00     0.052 A 
HETATM   11  C   UNK N   1      -2.259   4.052   0.036  0.00  0.00     0.071 A 
HETATM   12  C   UNK N   1      -1.005   4.671   0.114  0.00  0.00     0.073 A 
HETATM   13  C   UNK N   1       0.163   3.908   0.177  0.00  0.00     0.071 A 
HETATM   14  C   UNK N   1       0.067   2.512   0.161  0.00  0.00     0.052 A 
BRANCH  11  15
HETATM   15  O   UNK N   1      -3.368   4.827  -0.011  0.00  0.00    -0.356 OA
HETATM   16  C   UNK N   1      -4.644   4.314  -0.051  0.00  0.00     0.210 C 
ENDBRANCH  11  15
BRANCH  13  17
HETATM   17  O   UNK N   1       1.363   4.533   0.247  0.00  0.00    -0.356 OA
HETATM   18  C   UNK N   1       2.562   3.857   0.308  0.00  0.00     0.210 C 
ENDBRANCH  13  17
ENDBRANCH   6   9
BRANCH   1  19
HETATM   19  C   UNK N   1       1.412  -2.227   0.137  0.00  0.00     0.013 A 
HETATM   20  C   UNK N   1       2.543  -1.474   0.593  0.00  0.00     0.048 A 
HETATM   21 Cl   UNK N   1       2.465   0.185   1.187  0.00  0.00    -0.083 Cl
HETATM   22  C   UNK N   1       3.810  -2.057   0.606  0.00  0.00     0.048 A 
HETATM   23  C   UNK N   1       3.998  -3.364   0.178  0.00  0.00     0.035 A 
HETATM   24 Cl   UNK N   1       5.607  -4.050   0.178  0.00  0.00    -0.084 Cl
HETATM   25  C   UNK N   1       2.910  -4.117  -0.255  0.00  0.00     0.025 A 
HETATM   26  C   UNK N   1       1.633  -3.553  -0.274  0.00  0.00     0.017 A 
ENDBRANCH   1  19
BRANCH   3  27
HETATM   27  N   UNK N   1      -3.598  -2.299  -0.528  0.00  0.00    -0.385 N 
HETATM   28  H   UNK N   1      -4.429  -1.796  -0.688  0.00  0.00     0.157 HD
HETATM   29  H   UNK N   1      -3.618  -3.283  -0.528  0.00  0.00     0.157 HD
ENDBRANCH   3  27
BRANCH   2  30
HETATM   30  C   UNK N   1      -1.218  -3.847  -0.338  0.00  0.00     0.156 C 
BRANCH  30  31
HETATM   31  N   UNK N   1      -0.967  -4.486   0.943  0.00  0.00    -0.426 N 
HETATM   32  H   UNK N   1      -1.268  -4.863   1.841  0.00  0.00     0.150 HD
HETATM   33  H   UNK N   1       0.041  -4.638   0.943  0.00  0.00     0.150 HD
ENDBRANCH  30  31
ENDBRANCH   2  30
TORSDOF 7
