REMARK  12 active torsions:
REMARK  status: ('A' for Active; 'I' for Inactive)
REMARK    1  A    between atoms: O_1  and  C_2 
REMARK    2  A    between atoms: C_2  and  C_4 
REMARK    3  A    between atoms: C_4  and  C_5 
REMARK    4  A    between atoms: C_5  and  C_6 
REMARK    5  A    between atoms: C_6  and  C_7 
REMARK    6  A    between atoms: C_7  and  C_8 
REMARK    7  A    between atoms: C_8  and  N_9 
REMARK    8  A    between atoms: C_10  and  C_28 
REMARK    9  A    between atoms: C_14  and  O_15 
REMARK   10  A    between atoms: O_15  and  C_16 
REMARK   11  A    between atoms: C_16  and  C_17 
REMARK   12  A    between atoms: C_28  and  O_29 
ROOT
HETATM    1  N   UNK N   1      -1.187   0.431   0.403  0.00  0.00    -0.341 N 
HETATM    2  C   UNK N   1      -0.941   1.737   0.127  0.00  0.00     0.110 A 
HETATM    3  C   UNK N   1       0.421   1.935  -0.118  0.00  0.00     0.050 A 
HETATM    4  C   UNK N   1       0.988   0.684   0.024  0.00  0.00    -0.004 A 
HETATM    5  C   UNK N   1       2.300   0.269  -0.169  0.00  0.00     0.050 A 
HETATM    6  C   UNK N   1       2.598  -1.105   0.010  0.00  0.00     0.070 A 
HETATM    7  C   UNK N   1       1.578  -1.999   0.407  0.00  0.00     0.039 A 
HETATM    8  C   UNK N   1       0.258  -1.550   0.574  0.00  0.00     0.033 A 
HETATM    9  C   UNK N   1      -0.002  -0.198   0.357  0.00  0.00     0.045 A 
ENDROOT
BRANCH   6  10
HETATM   10  O   UNK N   1       3.829  -1.597  -0.255  0.00  0.00    -0.347 OA
BRANCH  10  11
HETATM   11  C   UNK N   1       4.730  -0.923  -1.050  0.00  0.00     0.217 C 
BRANCH  11  12
HETATM   12  C   UNK N   1       6.080  -0.832  -0.415  0.00  0.00     0.009 A 
HETATM   13  C   UNK N   1       6.630   0.431  -0.128  0.00  0.00     0.044 A 
HETATM   14 Cl   UNK N   1       5.746   1.912  -0.473  0.00  0.00    -0.084 Cl
HETATM   15  C   UNK N   1       7.906   0.525   0.433  0.00  0.00     0.024 A 
HETATM   16  C   UNK N   1       8.640  -0.630   0.710  0.00  0.00     0.003 A 
HETATM   17  C   UNK N   1       8.101  -1.886   0.427  0.00  0.00     0.024 A 
HETATM   18  C   UNK N   1       6.826  -1.996  -0.134  0.00  0.00     0.044 A 
HETATM   19 Cl   UNK N   1       6.199  -3.601  -0.488  0.00  0.00    -0.084 Cl
ENDBRANCH  11  12
ENDBRANCH  10  11
ENDBRANCH   6  10
BRANCH   2  20
HETATM   20  C   UNK N   1      -1.956   2.809   0.058  0.00  0.00     0.193 C 
HETATM   21  O   UNK N   1      -3.136   2.561   0.252  0.00  0.00    -0.645 OA
BRANCH  20  22
HETATM   22  O   UNK N   1      -1.582   4.072  -0.222  0.00  0.00    -0.772 OA
HETATM   23  H   UNK N   1      -0.690   4.285  -0.417  0.00  0.00     0.167 HD
ENDBRANCH  20  22
ENDBRANCH   2  20
BRANCH   1  24
HETATM   24  C   UNK N   1      -2.480  -0.200   0.654  0.00  0.00     0.129 C 
BRANCH  24  25
HETATM   25  C   UNK N   1      -2.760  -1.217  -0.449  0.00  0.00     0.020 C 
BRANCH  25  26
HETATM   26  C   UNK N   1      -4.130  -1.844  -0.288  0.00  0.00     0.002 C 
BRANCH  26  27
HETATM   27  C   UNK N   1      -5.189  -0.880  -0.776  0.00  0.00     0.010 C 
BRANCH  27  28
HETATM   28  C   UNK N   1      -6.261  -0.753   0.286  0.00  0.00     0.110 C 
BRANCH  28  29
HETATM   29  C   UNK N   1      -6.995   0.534   0.123  0.00  0.00     0.139 C 
HETATM   30  O   UNK N   1      -6.397   1.595   0.203  0.00  0.00    -0.650 OA
BRANCH  29  31
HETATM   31  O   UNK N   1      -8.324   0.527  -0.084  0.00  0.00    -0.776 OA
HETATM   32  H   UNK N   1      -8.792   1.326  -0.229  0.00  0.00     0.167 HD
ENDBRANCH  29  31
ENDBRANCH  28  29
ENDBRANCH  27  28
ENDBRANCH  26  27
ENDBRANCH  25  26
ENDBRANCH  24  25
ENDBRANCH   1  24
TORSDOF 12
