REMARK  5 active torsions:
REMARK  status: ('A' for Active; 'I' for Inactive)
REMARK    1  A    between atoms: C_6  and  C_8 
REMARK    2  A    between atoms: C_9  and  N_15 
REMARK    3  A    between atoms: N_15  and  C_16 
REMARK    4  A    between atoms: C_20  and  C_23 
REMARK    5  A    between atoms: C_23  and  O_25 
ROOT
HETATM    1  C   UNK N   1      -2.266   0.709  -0.000  0.00  0.00     0.074 A 
HETATM    2  C   UNK N   1      -1.277  -0.196  -0.002  0.00  0.00     0.118 A 
HETATM    3  C   UNK N   1      -1.933  -1.527  -0.003  0.00  0.00     0.276 A 
HETATM    4  C   UNK N   1      -3.524  -0.060  -0.000  0.00  0.00     0.261 A 
HETATM    5  O   UNK N   1      -4.652   0.404   0.001  0.00  0.00    -0.267 OA
HETATM    6  O   UNK N   1      -1.396  -2.619  -0.006  0.00  0.00    -0.266 OA
HETATM    7  N   UNK N   1      -3.270  -1.379  -0.002  0.00  0.00    -0.288 N 
HETATM    8  H   UNK N   1      -3.937  -2.103  -0.003  0.00  0.00     0.172 HD
ENDROOT
BRANCH   2   9
HETATM    9  N   UNK N   1       0.108   0.168  -0.002  0.00  0.00    -0.351 N 
HETATM   10  H   UNK N   1       0.284   1.136  -0.003  0.00  0.00     0.166 HD
BRANCH   9  11
HETATM   11  C   UNK N   1       1.262  -0.652  -0.002  0.00  0.00     0.033 A 
HETATM   12  C   UNK N   1       2.518  -0.044  -0.003  0.00  0.00     0.031 A 
HETATM   13  C   UNK N   1       3.676  -0.822  -0.002  0.00  0.00     0.027 A 
HETATM   14  C   UNK N   1       3.593  -2.219  -0.000  0.00  0.00     0.051 A 
HETATM   15  C   UNK N   1       2.320  -2.844   0.001  0.00  0.00     0.061 A 
HETATM   16 Cl   UNK N   1       5.103  -3.118   0.000  0.00  0.00    -0.083 Cl
HETATM   17  C   UNK N   1       1.179  -2.038   0.001  0.00  0.00     0.049 A 
BRANCH  15  18
HETATM   18  C   UNK N   1       2.116  -4.317   0.003  0.00  0.00     0.177 C 
HETATM   19  O   UNK N   1       0.982  -4.771   0.005  0.00  0.00    -0.646 OA
BRANCH  18  20
HETATM   20  O   UNK N   1       3.157  -5.168   0.003  0.00  0.00    -0.773 OA
HETATM   21  H   UNK N   1       3.006  -6.093   0.003  0.00  0.00     0.167 HD
ENDBRANCH  18  20
ENDBRANCH  15  18
ENDBRANCH   9  11
ENDBRANCH   2   9
BRANCH   1  22
HETATM   22  C   UNK N   1      -2.110   2.189   0.001  0.00  0.00    -0.016 A 
HETATM   23  C   UNK N   1      -3.233   3.029   0.001  0.00  0.00     0.012 A 
HETATM   24  C   UNK N   1      -3.072   4.420   0.002  0.00  0.00     0.003 A 
HETATM   25  C   UNK N   1      -1.790   4.980   0.002  0.00  0.00     0.024 A 
HETATM   26  C   UNK N   1      -0.669   4.148   0.001  0.00  0.00     0.034 A 
HETATM   27  C   UNK N   1      -0.832   2.766   0.001  0.00  0.00     0.036 A 
HETATM   28 Cl   UNK N   1       0.944   4.828   0.001  0.00  0.00    -0.084 Cl
ENDBRANCH   1  22
TORSDOF 5
