REMARK  10 active torsions:
REMARK  status: ('A' for Active; 'I' for Inactive)
REMARK    1  A    between atoms: C_1  and  C_7 
REMARK    2  A    between atoms: C_7  and  N_8 
REMARK    3  A    between atoms: C_7  and  N_9 
REMARK    4  A    between atoms: C_13  and  C_14 
REMARK    5  A    between atoms: C_16  and  C_17 
REMARK    6  A    between atoms: C_17  and  C_18 
REMARK    7  A    between atoms: C_17  and  C_21 
REMARK    8  A    between atoms: C_21  and  C_22 
REMARK    9  A    between atoms: C_26  and  C_30 
REMARK   10  A    between atoms: C_27  and  O_28 
ROOT
HETATM    1  C   UNK N   1       0.091  -0.362   0.078  0.00  0.00     0.043 A 
HETATM    2  C   UNK N   1      -0.747  -1.492   0.076  0.00  0.00     0.026 A 
HETATM    3  C   UNK N   1      -2.144  -1.325  -0.020  0.00  0.00    -0.041 A 
HETATM    4  C   UNK N   1      -2.688  -0.039  -0.099  0.00  0.00     0.023 A 
HETATM    5  C   UNK N   1      -1.883   1.106  -0.068  0.00  0.00     0.012 A 
HETATM    6  C   UNK N   1      -0.488   0.931   0.021  0.00  0.00     0.090 A 
ENDROOT
BRANCH   1   7
HETATM    7  C   UNK N   1       1.578  -0.463   0.118  0.00  0.00     0.119 A 
HETATM    8  N   UNK N   1       2.329  -1.550   0.459  0.00  0.00    -0.340 N 
HETATM    9  C   UNK N   1       3.602  -1.077   0.405  0.00  0.00     0.060 A 
HETATM   10  H   UNK N   1       2.023  -2.456   0.689  0.00  0.00     0.167 HD
HETATM   11  C   UNK N   1       4.806  -1.713   0.709  0.00  0.00     0.033 A 
HETATM   12  C   UNK N   1       3.581   0.222   0.023  0.00  0.00     0.061 A 
HETATM   13  C   UNK N   1       5.997  -0.940   0.608  0.00  0.00     0.017 A 
HETATM   14  C   UNK N   1       5.945   0.425   0.200  0.00  0.00     0.009 A 
HETATM   15  C   UNK N   1       4.709   1.004  -0.101  0.00  0.00     0.047 A 
HETATM   16  N   UNK N   1       2.340   0.620  -0.163  0.00  0.00    -0.340 N 
ATOM     17  HN  UNK N   1       2.022   1.545  -0.455  1.00  0.00     0.167 HD
BRANCH  14  18
HETATM   18  C   UNK N   1       7.159   1.267   0.113  0.00  0.00     0.102 C 
BRANCH  18  19
HETATM   19  N   UNK N   1       8.418   0.750   0.487  0.00  0.00    -0.385 N 
HETATM   20  H   UNK N   1       8.544  -0.191   0.748  0.00  0.00     0.157 HD
HETATM   21  H   UNK N   1       9.197   1.351   0.487  0.00  0.00     0.157 HD
ENDBRANCH  18  19
BRANCH  18  22
HETATM   22  N   UNK N   1       7.070   2.493  -0.263  0.00  0.00    -0.385 N 
HETATM   23  H   UNK N   1       7.849   3.022  -0.550  0.00  0.00     0.157 HD
HETATM   24  H   UNK N   1       6.184   2.922  -0.263  0.00  0.00     0.157 HD
ENDBRANCH  18  22
ENDBRANCH  14  18
ENDBRANCH   1   7
BRANCH   6  25
HETATM   25  O   UNK N   1       0.311   2.013   0.060  0.00  0.00    -0.359 OA
ATOM     26  HO  UNK N   1      -0.077   2.880   0.022  1.00  0.00     0.217 HD
ENDBRANCH   6  25
BRANCH   3  27
HETATM   27  C   UNK N   1      -3.097  -2.490  -0.083  0.00  0.00     0.129 C 
BRANCH  27  28
HETATM   28  C   UNK N   1      -3.895  -2.760   1.168  0.00  0.00     0.182 C 
HETATM   29  O   UNK N   1      -4.125  -3.903   1.526  0.00  0.00    -0.647 OA
HETATM   30  O   UNK N   1      -4.415  -1.731   1.865  0.00  0.00    -0.647 OA
ENDBRANCH  27  28
BRANCH  27  31
HETATM   31  C   UNK N   1      -2.707  -3.663  -0.990  0.00  0.00     0.133 C 
BRANCH  31  32
HETATM   32  C   UNK N   1      -1.668  -4.562  -0.395  0.00  0.00     0.173 C 
HETATM   33  O   UNK N   1      -0.564  -4.630  -0.908  0.00  0.00    -0.648 OA
HETATM   34  O   UNK N   1      -1.958  -5.330   0.671  0.00  0.00    -0.648 OA
ENDBRANCH  31  32
ENDBRANCH  27  31
ENDBRANCH   3  27
BRANCH   5  35
HETATM   35  C   UNK N   1      -2.500   2.485  -0.147  0.00  0.00     0.015 A 
HETATM   36  C   UNK N   1      -3.890   2.685  -0.325  0.00  0.00     0.127 A 
HETATM   37  C   UNK N   1      -4.410   3.983  -0.410  0.00  0.00     0.043 A 
HETATM   38  F   UNK N   1      -4.747   1.641  -0.429  0.00  0.00    -0.205 F 
HETATM   39  C   UNK N   1      -3.571   5.094  -0.317  0.00  0.00     0.003 A 
HETATM   40  C   UNK N   1      -2.205   4.918  -0.138  0.00  0.00     0.001 A 
HETATM   41  C   UNK N   1      -1.682   3.631  -0.056  0.00  0.00     0.015 A 
ENDBRANCH   5  35
TORSDOF 10
