REMARK  14 active torsions:
REMARK  status: ('A' for Active; 'I' for Inactive)
REMARK    1  A    between atoms: C_2  and  O_3 
REMARK    2  A    between atoms: O_3  and  C_4 
REMARK    3  A    between atoms: C_4  and  C_5 
REMARK    4  A    between atoms: C_5  and  O_6 
REMARK    5  A    between atoms: O_6  and  C_7 
REMARK    6  A    between atoms: C_7  and  C_8 
REMARK    7  A    between atoms: C_8  and  O_9 
REMARK    8  A    between atoms: O_9  and  C_10 
REMARK    9  A    between atoms: C_10  and  C_11 
REMARK   10  A    between atoms: C_11  and  O_12 
REMARK   11  A    between atoms: O_12  and  C_13 
REMARK   12  A    between atoms: C_13  and  C_14 
REMARK   13  A    between atoms: C_14  and  O_15 
REMARK   14  A    between atoms: O_15  and  C_16 
ROOT
HETATM    1  O   UNK N   1       0.023   0.327  -0.000  0.00  0.00    -0.387 OA
ENDROOT
BRANCH   1   2
HETATM    2  C   UNK N   1      -1.084  -0.514  -0.000  0.00  0.00     0.193 C 
BRANCH   2   3
HETATM    3  C   UNK N   1      -2.321   0.349   0.000  0.00  0.00     0.193 C 
BRANCH   3   4
HETATM    4  O   UNK N   1      -3.452  -0.459   0.000  0.00  0.00    -0.387 OA
BRANCH   4   5
HETATM    5  C   UNK N   1      -4.505   0.450  -0.000  0.00  0.00     0.193 C 
BRANCH   5   6
HETATM    6  C   UNK N   1      -5.811  -0.305   0.000  0.00  0.00     0.193 C 
BRANCH   6   7
HETATM    7  O   UNK N   1      -6.865   0.604  -0.000  0.00  0.00    -0.389 OA
BRANCH   7   8
HETATM    8  C   UNK N   1      -8.006  -0.194   0.000  0.00  0.00     0.163 C 
HETATM    9  C   UNK N   1      -9.235   0.688  -0.000  0.00  0.00     0.033 C 
ENDBRANCH   7   8
ENDBRANCH   6   7
ENDBRANCH   5   6
ENDBRANCH   4   5
ENDBRANCH   3   4
ENDBRANCH   2   3
ENDBRANCH   1   2
BRANCH   1  10
HETATM   10  C   UNK N   1       1.121  -0.525  -0.000  0.00  0.00     0.193 C 
BRANCH  10  11
HETATM   11  C   UNK N   1       2.364   0.328   0.000  0.00  0.00     0.193 C 
BRANCH  11  12
HETATM   12  O   UNK N   1       3.492  -0.485   0.000  0.00  0.00    -0.387 OA
BRANCH  12  13
HETATM   13  C   UNK N   1       4.545   0.424  -0.000  0.00  0.00     0.193 C 
BRANCH  13  14
HETATM   14  C   UNK N   1       5.854  -0.326   0.000  0.00  0.00     0.193 C 
BRANCH  14  15
HETATM   15  O   UNK N   1       6.901   0.592   0.000  0.00  0.00    -0.389 OA
BRANCH  15  16
HETATM   16  C   UNK N   1       8.050  -0.195  -0.000  0.00  0.00     0.163 C 
HETATM   17  C   UNK N   1       9.270   0.700   0.000  0.00  0.00     0.033 C 
ENDBRANCH  15  16
ENDBRANCH  14  15
ENDBRANCH  13  14
ENDBRANCH  12  13
ENDBRANCH  11  12
ENDBRANCH  10  11
ENDBRANCH   1  10
TORSDOF 14
