REMARK  1 active torsions:
REMARK  status: ('A' for Active; 'I' for Inactive)
REMARK       I    between atoms: N_3  and  C_14 
REMARK    1  A    between atoms: C_8  and  N_11 
REMARK       I    between atoms: C_14  and  N_17 
ROOT
HETATM    1  N   UNK N   1      -0.866  -0.662   0.000  0.00  0.00    -0.277 N 
ATOM      2  HN  UNK N   1      -1.172  -1.635   0.000  1.00  0.00     0.188 HD
HETATM    3  N   UNK N   1      -1.650   0.407   0.000  0.00  0.00    -0.097 N 
HETATM    4  C   UNK N   1      -0.902   1.540  -0.000  0.00  0.00     0.148 A 
HETATM    5  C   UNK N   1       1.612   1.854  -0.000  0.00  0.00     0.015 A 
HETATM    6  C   UNK N   1       2.815   1.119  -0.000  0.00  0.00     0.003 A 
HETATM    7  C   UNK N   1       2.794  -0.297  -0.000  0.00  0.00     0.038 A 
HETATM    8  C   UNK N   1       1.565  -0.995   0.000  0.00  0.00     0.131 A 
HETATM    9  C   UNK N   1       0.400  -0.229   0.000  0.00  0.00     0.093 A 
HETATM   10  C   UNK N   1       0.419   1.137  -0.000  0.00  0.00     0.013 A 
HETATM   11  C   UNK N   1      -3.081   0.321  -0.000  0.00  0.00     0.690 C 
HETATM   12  N   UNK N   1      -3.653  -0.827   0.000  0.00  0.00    -0.233 N 
ATOM     13  HN  UNK N   1      -3.090  -1.678   0.000  1.00  0.00     0.174 HD
HETATM   14  N   UNK N   1      -3.868   1.493  -0.000  0.00  0.00    -0.233 N 
HETATM   15  H   UNK N   1      -4.636  -0.887   0.000  0.00  0.00     0.174 HD
HETATM   16  H   UNK N   1      -3.435   2.377  -0.000  0.00  0.00     0.174 HD
HETATM   17  H   UNK N   1      -4.850   1.426  -0.000  0.00  0.00     0.174 HD
ENDROOT
BRANCH   8  18
HETATM   18  N   UNK N   1       1.521  -2.421   0.000  0.00  0.00    -0.113 N 
HETATM   19  O   UNK N   1       2.531  -3.054   0.000  0.00  0.00    -0.532 OA
HETATM   20  O   UNK N   1       0.364  -3.053   0.000  0.00  0.00    -0.532 OA
ENDBRANCH   8  18
TORSDOF 1
