REMARK  5 active torsions:
REMARK  status: ('A' for Active; 'I' for Inactive)
REMARK    1  A    between atoms: C_1  and  C_7 
REMARK    2  A    between atoms: C_7  and  N_8 
REMARK    3  A    between atoms: C_7  and  N_9 
REMARK    4  A    between atoms: C_13  and  C_14 
REMARK    5  A    between atoms: C_20  and  O_21 
ROOT
HETATM    1  C   UNK N   1       3.791   0.255   0.193  0.00  0.00     0.009 A 
HETATM    2  C   UNK N   1       3.837  -1.167   0.185  0.00  0.00     0.017 A 
HETATM    3  C   UNK N   1       2.649  -1.927   0.109  0.00  0.00     0.033 A 
HETATM    4  C   UNK N   1       1.445  -1.228   0.034  0.00  0.00     0.060 A 
HETATM    5  C   UNK N   1       1.407   0.129   0.032  0.00  0.00     0.061 A 
HETATM    6  C   UNK N   1       2.546   0.910   0.115  0.00  0.00     0.047 A 
HETATM    7  N   UNK N   1       0.195  -1.716  -0.038  0.00  0.00    -0.340 N 
HETATM    8  N   UNK N   1       0.141   0.546  -0.052  0.00  0.00    -0.340 N 
ATOM      9  HN  UNK N   1      -0.202   1.506  -0.079  1.00  0.00     0.167 HD
HETATM   10  C   UNK N   1      -0.584  -0.599  -0.093  0.00  0.00     0.119 A 
HETATM   11  H   UNK N   1      -0.090  -2.659  -0.049  0.00  0.00     0.167 HD
ENDROOT
BRANCH  10  12
HETATM   12  C   UNK N   1      -2.063  -0.615  -0.149  0.00  0.00     0.044 A 
HETATM   13  C   UNK N   1      -2.749  -1.833  -0.032  0.00  0.00     0.060 A 
HETATM   14  C   UNK N   1      -4.148  -1.862  -0.049  0.00  0.00     0.117 A 
HETATM   15  F   UNK N   1      -4.804  -3.039   0.083  0.00  0.00    -0.206 F 
HETATM   16  C   UNK N   1      -4.871  -0.677  -0.190  0.00  0.00     0.045 A 
HETATM   17  C   UNK N   1      -4.202   0.539  -0.317  0.00  0.00     0.040 A 
HETATM   18  C   UNK N   1      -2.806   0.581  -0.296  0.00  0.00     0.079 A 
BRANCH  18  19
HETATM   19  O   UNK N   1      -2.192   1.771  -0.420  0.00  0.00    -0.360 OA
ATOM     20  HO  UNK N   1      -2.690   2.573  -0.518  1.00  0.00     0.217 HD
ENDBRANCH  18  19
ENDBRANCH  10  12
BRANCH   1  21
HETATM   21  C   UNK N   1       5.033   1.052   0.277  0.00  0.00     0.102 C 
BRANCH  21  22
HETATM   22  N   UNK N   1       6.292   0.412   0.291  0.00  0.00    -0.385 N 
HETATM   23  H   UNK N   1       6.345  -0.571   0.300  0.00  0.00     0.157 HD
HETATM   24  H   UNK N   1       7.117   0.949   0.291  0.00  0.00     0.157 HD
ENDBRANCH  21  22
BRANCH  21  25
HETATM   25  N   UNK N   1       4.978   2.333   0.324  0.00  0.00    -0.385 N 
HETATM   26  H   UNK N   1       5.808   2.861   0.359  0.00  0.00     0.157 HD
HETATM   27  H   UNK N   1       4.105   2.789   0.324  0.00  0.00     0.157 HD
ENDBRANCH  21  25
ENDBRANCH   1  21
TORSDOF 5
