REMARK  11 active torsions:
REMARK  status: ('A' for Active; 'I' for Inactive)
REMARK    1  A    between atoms: C_6  and  O_22 
REMARK    2  A    between atoms: N_7  and  C_15 
REMARK    3  A    between atoms: C_9  and  C_10 
REMARK    4  A    between atoms: C_10  and  C_11 
REMARK       I    between atoms: C_11  and  N_13 
REMARK    5  A    between atoms: C_15  and  C_16 
REMARK    6  A    between atoms: O_22  and  C_23 
REMARK    7  A    between atoms: C_23  and  C_24 
REMARK    8  A    between atoms: C_24  and  C_25 
REMARK    9  A    between atoms: C_25  and  P_26 
REMARK   10  A    between atoms: P_26  and  O_28 
REMARK   11  A    between atoms: P_26  and  O_29 
ROOT
HETATM    1  C   UNK N   1       2.002  -0.668  -0.258  0.00  0.00     0.039 A 
HETATM    2  C   UNK N   1       0.758  -1.296  -0.133  0.00  0.00     0.033 A 
HETATM    3  C   UNK N   1      -0.379  -0.493  -0.059  0.00  0.00     0.046 A 
HETATM    4  C   UNK N   1      -0.299   0.870  -0.096  0.00  0.00     0.002 A 
HETATM    5  C   UNK N   1       0.927   1.528  -0.217  0.00  0.00     0.051 A 
HETATM    6  C   UNK N   1       2.096   0.746  -0.306  0.00  0.00     0.069 A 
HETATM    7  N   UNK N   1      -1.656  -0.907   0.048  0.00  0.00    -0.345 N 
HETATM    8  C   UNK N   1      -2.414   0.236   0.087  0.00  0.00     0.016 A 
HETATM    9  C   UNK N   1      -1.577   1.372  -0.005  0.00  0.00    -0.015 A 
HETATM   10  C   UNK N   1      -3.887   0.279   0.218  0.00  0.00     0.069 C 
ENDROOT
BRANCH   6  11
HETATM   11  O   UNK N   1       3.293   1.360  -0.448  0.00  0.00    -0.351 OA
BRANCH  11  12
HETATM   12  C   UNK N   1       4.483   0.671  -0.546  0.00  0.00     0.176 C 
BRANCH  12  13
HETATM   13  C   UNK N   1       4.974   0.305   0.846  0.00  0.00     0.038 C 
BRANCH  13  14
HETATM   14  C   UNK N   1       6.477   0.071   0.903  0.00  0.00     0.127 C 
BRANCH  14  15
HETATM   15  P   UNK N   1       7.414   1.481   0.118  0.00  0.00     0.235 P 
HETATM   16  O   UNK N   1       8.819   1.627   0.759  0.00  0.00    -0.653 OA
BRANCH  15  17
HETATM   17  O   UNK N   1       7.735   1.283  -1.576  0.00  0.00    -0.329 OA
HETATM   18  H   UNK N   1       7.729   1.073  -2.523  0.00  0.00     0.220 HD
ENDBRANCH  15  17
BRANCH  15  19
HETATM   19  O   UNK N   1       6.683   3.042   0.322  0.00  0.00    -0.329 OA
HETATM   20  H   UNK N   1       7.234   3.832   0.436  0.00  0.00     0.220 HD
ENDBRANCH  15  19
ENDBRANCH  14  15
ENDBRANCH  13  14
ENDBRANCH  12  13
ENDBRANCH  11  12
ENDBRANCH   6  11
BRANCH   9  21
HETATM   21  C   UNK N   1      -1.830   2.871  -0.016  0.00  0.00     0.144 C 
BRANCH  21  22
HETATM   22  C   UNK N   1      -3.188   3.524   0.020  0.00  0.00     0.219 C 
HETATM   23  O   UNK N   1      -4.217   2.879   0.049  0.00  0.00    -0.273 OA
HETATM   24  N   UNK N   1      -3.257   4.868   0.006  0.00  0.00    -0.370 N 
HETATM   25  H   UNK N   1      -2.431   5.404  -0.004  0.00  0.00     0.159 HD
HETATM   26  H   UNK N   1      -4.134   5.316   0.006  0.00  0.00     0.159 HD
ENDBRANCH  21  22
ENDBRANCH   9  21
BRANCH   7  27
HETATM   27  C   UNK N   1      -1.923  -2.365   0.093  0.00  0.00     0.167 C 
BRANCH  27  28
HETATM   28  C   UNK N   1      -3.268  -3.040   0.065  0.00  0.00    -0.040 A 
HETATM   29  C   UNK N   1      -3.254  -4.442   0.041  0.00  0.00     0.009 A 
HETATM   30  C   UNK N   1      -4.445  -5.171   0.009  0.00  0.00     0.001 A 
HETATM   31  C   UNK N   1      -5.669  -4.501   0.002  0.00  0.00     0.000 A 
HETATM   32  C   UNK N   1      -5.696  -3.105   0.025  0.00  0.00     0.001 A 
HETATM   33  C   UNK N   1      -4.499  -2.383   0.052  0.00  0.00     0.009 A 
ENDBRANCH  27  28
ENDBRANCH   7  27
TORSDOF 11
