REMARK  6 active torsions:
REMARK  status: ('A' for Active; 'I' for Inactive)
REMARK    1  A    between atoms: C_1  and  C_8 
REMARK    2  A    between atoms: C_8  and  N_9 
REMARK    3  A    between atoms: C_13  and  C_14 
REMARK    4  A    between atoms: C_18  and  O_19 
REMARK    5  A    between atoms: O_19  and  C_24 
REMARK    6  A    between atoms: C_20  and  O_21 
ROOT
HETATM    1  C   UNK N   1       3.692  -0.664  -0.045  0.00  0.00     0.030 A 
HETATM    2  C   UNK N   1       3.712  -2.104  -0.014  0.00  0.00     0.050 A 
HETATM    3 Cl   UNK N   1       5.194  -3.042  -0.133  0.00  0.00    -0.083 Cl
HETATM    4  C   UNK N   1       2.500  -2.829   0.099  0.00  0.00     0.055 A 
HETATM    5  C   UNK N   1       1.313  -2.114   0.189  0.00  0.00     0.044 A 
HETATM    6  C   UNK N   1       1.307  -0.756   0.189  0.00  0.00    -0.006 A 
HETATM    7  C   UNK N   1       2.457  -0.003   0.072  0.00  0.00     0.030 A 
HETATM    8  N   UNK N   1       0.052  -2.596   0.247  0.00  0.00    -0.355 N 
HETATM    9  C   UNK N   1       0.022  -0.331   0.268  0.00  0.00     0.044 A 
HETATM   10  C   UNK N   1      -0.740  -1.495   0.300  0.00  0.00     0.046 A 
HETATM   11  H   UNK N   1      -0.230  -3.540   0.250  0.00  0.00     0.166 HD
ENDROOT
BRANCH  10  12
HETATM   12  C   UNK N   1      -2.223  -1.497   0.229  0.00  0.00     0.027 A 
HETATM   13  C   UNK N   1      -2.906  -2.689  -0.041  0.00  0.00     0.017 A 
HETATM   14  C   UNK N   1      -4.292  -2.680  -0.212  0.00  0.00     0.004 A 
HETATM   15  C   UNK N   1      -5.001  -1.478  -0.153  0.00  0.00     0.040 A 
HETATM   16  C   UNK N   1      -4.344  -0.269   0.105  0.00  0.00     0.103 A 
HETATM   17  C   UNK N   1      -2.950  -0.288   0.334  0.00  0.00     0.111 A 
BRANCH  16  18
HETATM   18  O   UNK N   1      -5.086   0.878   0.077  0.00  0.00    -0.343 OA
BRANCH  18  19
HETATM   19  C   UNK N   1      -4.657   2.178  -0.184  0.00  0.00     0.129 C 
HETATM   20  C   UNK N   1      -3.608   2.304  -1.280  0.00  0.00     0.032 C 
HETATM   21  C   UNK N   1      -2.770   3.516  -0.894  0.00  0.00     0.002 C 
HETATM   22  C   UNK N   1      -3.360   4.071   0.396  0.00  0.00     0.002 C 
HETATM   23  C   UNK N   1      -4.151   2.937   1.016  0.00  0.00     0.032 C 
ENDBRANCH  18  19
ENDBRANCH  16  18
BRANCH  17  24
HETATM   24  O   UNK N   1      -2.308   0.848   0.652  0.00  0.00    -0.357 OA
ATOM     25  HO  UNK N   1      -2.796   1.660   0.723  1.00  0.00     0.217 HD
ENDBRANCH  17  24
ENDBRANCH  10  12
BRANCH   1  26
HETATM   26  C   UNK N   1       4.904   0.193  -0.213  0.00  0.00     0.104 C 
HETATM   27  N   UNK N   1       4.777   1.469  -0.273  0.00  0.00    -0.385 N 
HETATM   28  H   UNK N   1       5.575   2.043  -0.320  0.00  0.00     0.157 HD
HETATM   29  H   UNK N   1       3.879   1.874  -0.273  0.00  0.00     0.157 HD
BRANCH  26  30
HETATM   30  N   UNK N   1       6.190  -0.366  -0.367  0.00  0.00    -0.385 N 
HETATM   31  H   UNK N   1       6.301  -1.338  -0.474  0.00  0.00     0.157 HD
HETATM   32  H   UNK N   1       6.981   0.220  -0.367  0.00  0.00     0.157 HD
ENDBRANCH  26  30
ENDBRANCH   1  26
TORSDOF 6
