REMARK  7 active torsions:
REMARK  status: ('A' for Active; 'I' for Inactive)
REMARK    1  A    between atoms: C_2  and  N_5 
REMARK       I    between atoms: N_5  and  C_10 
REMARK    2  A    between atoms: C_13  and  C_10 
REMARK       I    between atoms: N_15  and  C_17 
REMARK    3  A    between atoms: C_17  and  C_20 
REMARK    4  A    between atoms: C_20  and  N_22 
REMARK    5  A    between atoms: C_20  and  C_23 
REMARK       I    between atoms: N_22  and  C_24 
REMARK    6  A    between atoms: C_24  and  C_28 
REMARK    7  A    between atoms: C_28  and  N_30 
ROOT
HETATM    1  C   UNK N   1       2.593  -0.046   0.587  0.00  0.00     0.179 C 
HETATM    2  N   UNK N   1       1.851   1.078   0.056  0.00  0.00    -0.337 N 
HETATM    3  C   UNK N   1       4.056   0.313   0.408  0.00  0.00     0.037 C 
HETATM    4  C   UNK N   1       0.495   1.203   0.273  0.00  0.00     0.244 C 
HETATM    5  C   UNK N   1       2.665   2.039  -0.618  0.00  0.00     0.127 C 
HETATM    6  C   UNK N   1       4.081   1.484  -0.568  0.00  0.00     0.022 C 
HETATM    7  O   UNK N   1      -0.081   0.309   0.875  0.00  0.00    -0.271 OA
ENDROOT
BRANCH   1   8
HETATM    8  C   UNK N   1       2.261  -1.327  -0.126  0.00  0.00     0.241 C 
HETATM    9  N   UNK N   1       2.658  -2.510   0.413  0.00  0.00    -0.351 N 
HETATM   10  H   UNK N   1       3.262  -2.495   1.190  0.00  0.00     0.163 HD
HETATM   11  O   UNK N   1       1.576  -1.307  -1.140  0.00  0.00    -0.271 OA
BRANCH   9  12
HETATM   12  C   UNK N   1       2.228  -3.794  -0.108  0.00  0.00     0.118 C 
HETATM   13  C   UNK N   1       0.728  -3.998   0.018  0.00  0.00    -0.029 A 
HETATM   14  C   UNK N   1       0.222  -5.266  -0.294  0.00  0.00    -0.050 A 
HETATM   15  C   UNK N   1      -0.149  -2.999   0.472  0.00  0.00     0.010 A 
HETATM   16  C   UNK N   1       1.189  -6.334  -0.698  0.00  0.00     0.039 C 
HETATM   17  C   UNK N   1      -1.145  -5.531  -0.172  0.00  0.00     0.007 A 
HETATM   18  C   UNK N   1       2.400  -6.340   0.258  0.00  0.00     0.007 C 
HETATM   19  C   UNK N   1       2.909  -4.930   0.667  0.00  0.00     0.030 C 
HETATM   20  C   UNK N   1      -2.016  -4.521   0.253  0.00  0.00     0.001 A 
HETATM   21  C   UNK N   1      -1.517  -3.257   0.579  0.00  0.00     0.001 A 
ENDBRANCH   9  12
ENDBRANCH   1   8
BRANCH   4  22
HETATM   22  C   UNK N   1      -0.351   2.434  -0.149  0.00  0.00     0.184 C 
BRANCH  22  23
HETATM   23  N   UNK N   1      -1.696   2.227   0.386  0.00  0.00    -0.345 N 
HETATM   24  C   UNK N   1      -2.851   2.597  -0.232  0.00  0.00     0.240 C 
HETATM   25  O   UNK N   1      -2.826   3.135  -1.330  0.00  0.00    -0.271 OA
HETATM   26  H   UNK N   1      -1.773   1.785   1.263  0.00  0.00     0.163 HD
BRANCH  24  27
HETATM   27  C   UNK N   1      -4.168   2.351   0.466  0.00  0.00     0.165 C 
HETATM   28  C   UNK N   1      -4.988   1.306  -0.280  0.00  0.00     0.042 C 
BRANCH  27  29
HETATM   29  N   UNK N   1      -4.925   3.593   0.679  0.00  0.00    -0.414 N 
HETATM   30  C   UNK N   1      -5.500   4.106  -0.564  0.00  0.00     0.140 C 
HETATM   31  H   UNK N   1      -5.037   4.045   1.587  0.00  0.00     0.153 HD
ENDBRANCH  27  29
ENDBRANCH  24  27
ENDBRANCH  22  23
BRANCH  22  32
HETATM   32  C   UNK N   1       0.170   3.811   0.399  0.00  0.00    -0.022 C 
HETATM   33  C   UNK N   1       0.701   3.678   1.818  0.00  0.00     0.017 C 
HETATM   34  C   UNK N   1      -0.924   4.869   0.428  0.00  0.00     0.017 C 
HETATM   35  C   UNK N   1       1.243   4.418  -0.484  0.00  0.00     0.017 C 
ENDBRANCH  22  32
ENDBRANCH   4  22
TORSDOF 7
