REMARK  5 active torsions:
REMARK  status: ('A' for Active; 'I' for Inactive)
REMARK    1  A    between atoms: C_1  and  C_16 
REMARK    2  A    between atoms: C_10  and  N_26 
REMARK    3  A    between atoms: C_13  and  O_23 
REMARK    4  A    between atoms: C_14  and  O_18 
REMARK    5  A    between atoms: C_16  and  O_22 
ROOT
HETATM    1  C   UNK N   1       2.165  -1.593  -0.090  0.00  0.00     0.054 A 
HETATM    2  C   UNK N   1       3.324  -0.799  -0.172  0.00  0.00     0.059 A 
HETATM    3  C   UNK N   1       3.213   0.570  -0.172  0.00  0.00     0.107 A 
HETATM    4  C   UNK N   1       2.044   1.193  -0.104  0.00  0.00     0.117 A 
HETATM    5  C   UNK N   1       0.818   0.502  -0.058  0.00  0.00     0.025 A 
HETATM    6  C   UNK N   1       0.850  -0.946  -0.071  0.00  0.00     0.028 A 
HETATM    7  C   UNK N   1      -0.414   1.208  -0.003  0.00  0.00    -0.009 A 
HETATM    8  C   UNK N   1      -1.636   0.503   0.048  0.00  0.00     0.014 A 
HETATM    9  C   UNK N   1      -1.601  -0.884   0.024  0.00  0.00     0.052 A 
HETATM   10  C   UNK N   1      -0.421  -1.632  -0.063  0.00  0.00     0.116 A 
HETATM   11  C   UNK N   1      -0.442   2.612  -0.003  0.00  0.00     0.016 A 
HETATM   12  C   UNK N   1      -1.642   3.309   0.033  0.00  0.00     0.040 A 
HETATM   13  C   UNK N   1      -2.849   2.622   0.074  0.00  0.00     0.099 A 
HETATM   14  C   UNK N   1      -2.876   1.219   0.086  0.00  0.00     0.112 A 
HETATM   15  C   UNK N   1       3.639   2.741  -0.148  0.00  0.00     0.352 A 
HETATM   16  O   UNK N   1       4.199   1.465  -0.204  0.00  0.00    -0.323 OA
HETATM   17  O   UNK N   1       2.264   2.512  -0.091  0.00  0.00    -0.322 OA
ENDROOT
BRANCH   1  18
HETATM   18  C   UNK N   1       2.458  -3.042   0.094  0.00  0.00     0.177 C 
HETATM   19  O   UNK N   1       1.718  -3.755   0.750  0.00  0.00    -0.646 OA
BRANCH  18  20
HETATM   20  O   UNK N   1       3.647  -3.536  -0.309  0.00  0.00    -0.773 OA
HETATM   21  H   UNK N   1       3.762  -4.423  -0.589  0.00  0.00     0.167 HD
ENDBRANCH  18  20
ENDBRANCH   1  18
BRANCH  10  22
HETATM   22  N   UNK N   1      -0.587  -3.037  -0.260  0.00  0.00    -0.115 N 
HETATM   23  O   UNK N   1      -1.607  -3.556   0.084  0.00  0.00    -0.532 OA
HETATM   24  O   UNK N   1       0.141  -3.646  -1.173  0.00  0.00    -0.532 OA
ENDBRANCH  10  22
BRANCH  14  25
HETATM   25  O   UNK N   1      -4.104   0.625   0.123  0.00  0.00    -0.352 OA
HETATM   26  C   UNK N   1      -4.374  -0.724   0.155  0.00  0.00     0.210 C 
ENDBRANCH  14  25
BRANCH  13  27
HETATM   27  O   UNK N   1      -3.998   3.319   0.097  0.00  0.00    -0.358 OA
HETATM   28  H   UNK N   1      -3.978   4.256   0.113  0.00  0.00     0.217 HD
ENDBRANCH  13  27
TORSDOF 5
