REMARK  2 active torsions:
REMARK  status: ('A' for Active; 'I' for Inactive)
REMARK    1  A    between atoms: C_12  and  C_17 
REMARK    2  A    between atoms: C_32  and  O_35 
ROOT
HETATM    1  C   UNK N   1      14.964 -13.920  -0.135  0.00  0.00     0.109 A 
HETATM    2  N   UNK N   1      16.360 -14.174  -0.073  0.00  0.00    -0.307 N 
HETATM    3  C   UNK N   1      14.293 -15.044  -0.281  0.00  0.00     0.011 A 
HETATM    4  C   UNK N   1      14.237 -12.617  -0.027  0.00  0.00     0.310 C 
HETATM    5  C   UNK N   1      17.379 -13.250  -0.030  0.00  0.00     0.277 C 
HETATM    6  C   UNK N   1      16.604 -15.595  -0.133  0.00  0.00     0.136 A 
HETATM    7  C   UNK N   1      15.211 -16.225  -0.281  0.00  0.00     0.050 A 
HETATM    8  O   UNK N   1      13.018 -12.488  -0.623  0.00  0.00    -0.310 OA
HETATM    9  O   UNK N   1      14.708 -11.692   0.610  0.00  0.00    -0.258 OA
HETATM   10  C   UNK N   1      18.816 -13.654  -0.082  0.00  0.00     0.125 A 
HETATM   11  O   UNK N   1      17.127 -12.062   0.040  0.00  0.00    -0.265 OA
HETATM   12  C   UNK N   1      11.845 -12.090   0.001  0.00  0.00     0.143 C 
HETATM   13  N   UNK N   1      19.828 -12.835   0.263  0.00  0.00    -0.334 N 
ATOM     14  HN  UNK N   1      19.771 -11.868   0.581  1.00  0.00     0.168 HD
HETATM   15  C   UNK N   1      19.339 -14.879  -0.459  0.00  0.00     0.179 A 
HETATM   16  C   UNK N   1      11.305 -10.758  -0.628  0.00  0.00     0.034 C 
HETATM   17  C   UNK N   1      20.935 -13.586   0.091  0.00  0.00     0.130 A 
HETATM   18  O   UNK N   1      20.643 -14.792  -0.337  0.00  0.00    -0.307 OA
HETATM   19  C   UNK N   1      12.075  -9.486  -0.395  0.00  0.00    -0.014 C 
HETATM   20  C   UNK N   1       9.918 -10.397  -0.124  0.00  0.00     0.017 C 
HETATM   21  C   UNK N   1      22.318 -13.163   0.493  0.00  0.00     0.162 C 
HETATM   22  C   UNK N   1      13.251  -9.357   0.213  0.00  0.00     0.070 C 
HETATM   23  C   UNK N   1      22.777 -11.827  -0.021  0.00  0.00     0.137 C 
HETATM   24  C   UNK N   1      13.771  -8.007   0.552  0.00  0.00     0.241 C 
HETATM   25  C   UNK N   1      21.925 -11.009  -0.933  0.00  0.00     0.114 C 
HETATM   26  O   UNK N   1      23.859 -11.393   0.341  0.00  0.00    -0.297 OA
HETATM   27  N   UNK N   1      15.073  -7.818   0.874  0.00  0.00    -0.354 N 
HETATM   28  O   UNK N   1      13.014  -7.048   0.555  0.00  0.00    -0.269 OA
HETATM   29  C   UNK N   1      21.368  -9.800  -0.206  0.00  0.00     0.148 C 
HETATM   30  C   UNK N   1      16.049  -8.869   0.758  0.00  0.00     0.150 C 
HETATM   31  C   UNK N   1      20.102  -9.421  -0.893  0.00  0.00     0.011 C 
HETATM   32  C   UNK N   1      16.474  -8.937  -0.673  0.00  0.00    -0.007 C 
HETATM   33  C   UNK N   1      18.924  -9.378  -0.266  0.00  0.00    -0.064 C 
HETATM   34  C   UNK N   1      17.732  -9.105  -1.096  0.00  0.00     0.004 C 
HETATM   35  C   UNK N   1      18.824  -9.689   1.200  0.00  0.00     0.048 C 
HETATM   36  H   UNK N   1      15.361  -6.933   1.197  0.00  0.00     0.163 HD
ENDROOT
BRANCH  12  37
HETATM   37  C   UNK N   1      10.849 -13.269  -0.226  0.00  0.00     0.008 C 
HETATM   38  C   UNK N   1      11.393 -14.579   0.307  0.00  0.00     0.012 C 
HETATM   39  C   UNK N   1       9.471 -13.107   0.388  0.00  0.00     0.012 C 
ENDBRANCH  12  37
BRANCH  29  40
HETATM   40  O   UNK N   1      22.277  -8.744  -0.252  0.00  0.00    -0.391 OA
HETATM   41  H   UNK N   1      23.229  -8.924  -0.284  0.00  0.00     0.210 HD
ENDBRANCH  29  40
TORSDOF 2
