REMARK  3 active torsions:
REMARK  status: ('A' for Active; 'I' for Inactive)
REMARK       I    between atoms: N_3  and  C_6 
REMARK    1  A    between atoms: C_6  and  C_7 
REMARK    2  A    between atoms: C_7  and  C_8 
REMARK    3  A    between atoms: C_7  and  N_11 
ROOT
HETATM    1  C   UNK N   1       1.976   2.763   0.049  0.00  0.00     0.021 A 
HETATM    2  C   UNK N   1       1.441   1.343  -0.006  0.00  0.00     0.126 A 
HETATM    3  N   UNK N   1       0.012   1.474   0.000  0.00  0.00    -0.350 N 
HETATM    4  C   UNK N   1      -0.472   2.822   0.053  0.00  0.00     0.126 A 
HETATM    5  C   UNK N   1       0.768   3.697   0.061  0.00  0.00     0.021 A 
HETATM    6  C   UNK N   1      -0.832   0.403  -0.068  0.00  0.00     0.242 C 
HETATM    7  O   UNK N   1      -2.042   0.593  -0.099  0.00  0.00    -0.271 OA
ENDROOT
BRANCH   6   8
HETATM    8  C   UNK N   1      -0.291  -1.019  -0.117  0.00  0.00     0.170 C 
BRANCH   8   9
HETATM    9  C   UNK N   1      -1.377  -2.096  -0.330  0.00  0.00     0.009 C 
HETATM   10  C   UNK N   1      -0.760  -3.483  -0.426  0.00  0.00     0.012 C 
HETATM   11  C   UNK N   1      -2.441  -2.108   0.757  0.00  0.00     0.012 C 
ENDBRANCH   8   9
BRANCH   8  12
HETATM   12  N   UNK N   1       0.452  -1.295   1.106  0.00  0.00    -0.418 N 
HETATM   13  H   UNK N   1       0.544  -1.843   1.962  0.00  0.00     0.150 HD
HETATM   14  H   UNK N   1       1.238  -0.645   1.106  0.00  0.00     0.150 HD
ENDBRANCH   8  12
ENDBRANCH   6   8
TORSDOF 3
