REMARK  4 active torsions:
REMARK  status: ('A' for Active; 'I' for Inactive)
REMARK       I    between atoms: N_1  and  C_2 
REMARK    1  A    between atoms: C_5  and  O_6 
REMARK    2  A    between atoms: N_10  and  C_16 
REMARK    3  A    between atoms: C_20  and  C_22 
REMARK    4  A    between atoms: C_22  and  O_23 
ROOT
HETATM    1  N   UNK N   1       5.735   1.306   0.135  0.00  0.00    -0.234 N 
HETATM    2  C   UNK N   1       4.562   0.530   0.079  0.00  0.00     0.679 A 
HETATM    3  N   UNK N   1       4.650  -0.844   0.062  0.00  0.00    -0.168 N 
ATOM      4  HN  UNK N   1       5.568  -1.289   0.083  1.00  0.00     0.186 HD
HETATM    5  C   UNK N   1       3.527  -1.623   0.018  0.00  0.00     0.187 A 
HETATM    6  C   UNK N   1       2.306  -0.984  -0.008  0.00  0.00     0.147 A 
HETATM    7  N   UNK N   1       1.056  -1.471  -0.035  0.00  0.00    -0.272 N 
ATOM      8  HN  UNK N   1       0.774  -2.451  -0.052  1.00  0.00     0.189 HD
HETATM    9  N   UNK N   1       0.263  -0.402  -0.037  0.00  0.00    -0.195 N 
HETATM   10  N   UNK N   1       0.960   0.735  -0.014  0.00  0.00    -0.261 N 
ATOM     11  HN  UNK N   1       0.592   1.687  -0.013  1.00  0.00     0.191 HD
HETATM   12  C   UNK N   1       2.241   0.361   0.005  0.00  0.00     0.170 A 
HETATM   13  N   UNK N   1       3.339   1.148   0.049  0.00  0.00    -0.173 N 
ATOM     14  HN  UNK N   1       3.261   2.165   0.058  1.00  0.00     0.186 HD
HETATM   15  H   UNK N   1       6.616   0.867   0.174  0.00  0.00     0.174 HD
HETATM   16  H   UNK N   1       5.676   2.289   0.135  0.00  0.00     0.174 HD
ENDROOT
BRANCH   9  17
HETATM   17  C   UNK N   1      -1.164  -0.452  -0.029  0.00  0.00     0.076 A 
HETATM   18  C   UNK N   1      -1.846  -1.676  -0.004  0.00  0.00     0.033 A 
HETATM   19  C   UNK N   1      -3.245  -1.693   0.024  0.00  0.00     0.003 A 
HETATM   20  C   UNK N   1      -3.961  -0.489   0.027  0.00  0.00     0.018 A 
HETATM   21  C   UNK N   1      -3.277   0.735   0.001  0.00  0.00     0.040 A 
HETATM   22  C   UNK N   1      -1.884   0.741  -0.024  0.00  0.00     0.051 A 
BRANCH  21  23
HETATM   23  C   UNK N   1      -4.000   2.018   0.000  0.00  0.00     0.176 C 
HETATM   24  O   UNK N   1      -3.379   3.071  -0.018  0.00  0.00    -0.646 OA
BRANCH  23  25
HETATM   25  O   UNK N   1      -5.345   2.042   0.015  0.00  0.00    -0.773 OA
HETATM   26  H   UNK N   1      -5.799   2.861   0.026  0.00  0.00     0.167 HD
ENDBRANCH  23  25
ENDBRANCH  21  23
ENDBRANCH   9  17
BRANCH   5  27
HETATM   27  O   UNK N   1       3.614  -2.963   0.008  0.00  0.00    -0.344 OA
HETATM   28  H   UNK N   1       2.835  -3.483   0.000  0.00  0.00     0.219 HD
ENDBRANCH   5  27
TORSDOF 4
