REMARK  8 active torsions:
REMARK  status: ('A' for Active; 'I' for Inactive)
REMARK    1  A    between atoms: C_1  and  C_18 
REMARK    2  A    between atoms: C_2  and  C_13 
REMARK    3  A    between atoms: C_4  and  C_6 
REMARK    4  A    between atoms: C_6  and  O_7 
REMARK       I    between atoms: N_9  and  C_10 
REMARK    5  A    between atoms: C_13  and  N_9 
REMARK    6  A    between atoms: C_13  and  C_14 
REMARK    7  A    between atoms: C_14  and  C_15 
REMARK    8  A    between atoms: C_18  and  O_20 
ROOT
HETATM    1  C   UNK N   1      -0.418  -2.043  -0.267  0.00  0.00     0.119 C 
HETATM    2  C   UNK N   1       0.701  -1.021  -0.506  0.00  0.00     0.159 C 
HETATM    3  O   UNK N   1       1.861  -1.589   0.076  0.00  0.00    -0.367 OA
HETATM    4  C   UNK N   1       1.437  -2.572   1.009  0.00  0.00     0.220 C 
HETATM    5  C   UNK N   1      -0.078  -2.507   1.109  0.00  0.00     0.060 C 
ENDROOT
BRANCH   2   6
HETATM    6  C   UNK N   1       0.505   0.409   0.069  0.00  0.00     0.114 C 
BRANCH   6   7
HETATM    7  N   UNK N   1      -0.601   1.049  -0.625  0.00  0.00    -0.354 N 
HETATM    8  C   UNK N   1      -1.174   2.226  -0.262  0.00  0.00     0.214 C 
HETATM    9  C   UNK N   1      -2.265   2.795  -1.102  0.00  0.00     0.117 C 
HETATM   10  O   UNK N   1      -0.828   2.812   0.749  0.00  0.00    -0.274 OA
HETATM   11  H   UNK N   1      -0.962   0.595  -1.420  0.00  0.00     0.162 HD
ENDBRANCH   6   7
BRANCH   6  12
HETATM   12  C   UNK N   1       1.824   1.165  -0.206  0.00  0.00     0.031 C 
BRANCH  12  13
HETATM   13  C   UNK N   1       1.962   2.565   0.373  0.00  0.00    -0.021 C 
HETATM   14  C   UNK N   1       2.027   2.518   1.888  0.00  0.00     0.009 C 
HETATM   15  C   UNK N   1       3.244   3.178  -0.150  0.00  0.00     0.009 C 
ENDBRANCH  12  13
ENDBRANCH   6  12
ENDBRANCH   2   6
BRANCH   1  16
HETATM   16  C   UNK N   1      -1.851  -1.619  -0.454  0.00  0.00     0.265 C 
HETATM   17  O   UNK N   1      -2.224  -1.223  -1.550  0.00  0.00    -0.265 OA
BRANCH  16  18
HETATM   18  O   UNK N   1      -2.731  -1.745   0.571  0.00  0.00    -0.326 OA
HETATM   19  C   UNK N   1      -4.077  -1.504   0.423  0.00  0.00     0.213 C 
ENDBRANCH  16  18
ENDBRANCH   1  16
BRANCH   4  20
HETATM   20  C   UNK N   1       1.879  -3.940   0.551  0.00  0.00     0.170 C 
HETATM   21  O   UNK N   1       2.516  -4.071  -0.483  0.00  0.00    -0.648 OA
BRANCH  20  22
HETATM   22  O   UNK N   1       1.571  -5.026   1.284  0.00  0.00    -0.774 OA
HETATM   23  H   UNK N   1       0.809  -5.219   1.795  0.00  0.00     0.167 HD
ENDBRANCH  20  22
ENDBRANCH   4  20
TORSDOF 8
