REMARK  13 active torsions:
REMARK  status: ('A' for Active; 'I' for Inactive)
REMARK    1  A    between atoms: C_1  and  O_3 
REMARK    2  A    between atoms: C_1  and  C_4 
REMARK    3  A    between atoms: C_4  and  C_6 
REMARK    4  A    between atoms: C_6  and  N_7 
REMARK    5  A    between atoms: C_6  and  C_8 
REMARK    6  A    between atoms: C_8  and  C_9 
REMARK    7  A    between atoms: C_9  and  C_10 
REMARK    8  A    between atoms: C_10  and  C_12 
REMARK    9  A    between atoms: C_12  and  C_13 
REMARK   10  A    between atoms: C_13  and  C_15 
REMARK   11  A    between atoms: C_15  and  O_16 
REMARK   12  A    between atoms: C_15  and  C_18 
REMARK   13  A    between atoms: C_18  and  C_19 
ROOT
HETATM    1  C   UNK N   1      -1.152   1.916  -0.264  0.00  0.00    -0.018 C 
HETATM    2  C   UNK N   1      -0.928   2.941  -1.361  0.00  0.00     0.010 C 
ENDROOT
BRANCH   1   3
HETATM    3  C   UNK N   1      -1.590   0.598  -0.893  0.00  0.00     0.006 C 
BRANCH   3   4
HETATM    4  C   UNK N   1      -2.017  -0.409   0.167  0.00  0.00     0.026 C 
BRANCH   4   5
HETATM    5  C   UNK N   1      -3.447  -0.906  -0.044  0.00  0.00     0.087 C 
BRANCH   5   6
HETATM    6  C   UNK N   1      -4.484   0.238   0.061  0.00  0.00     0.102 C 
HETATM    7  C   UNK N   1      -4.427   0.919   1.423  0.00  0.00     0.023 C 
BRANCH   6   8
HETATM    8  C   UNK N   1      -5.886  -0.258  -0.183  0.00  0.00     0.145 C 
HETATM    9  O   UNK N   1      -6.531   0.171  -1.126  0.00  0.00    -0.650 OA
BRANCH   8  10
HETATM   10  O   UNK N   1      -6.443  -1.166   0.644  0.00  0.00    -0.776 OA
HETATM   11  H   UNK N   1      -7.182  -1.147   1.218  0.00  0.00     0.167 HD
ENDBRANCH   8  10
ENDBRANCH   6   8
ENDBRANCH   5   6
BRANCH   5  12
HETATM   12  N   UNK N   1      -3.715  -1.938   0.947  0.00  0.00    -0.425 N 
HETATM   13  H   UNK N   1      -4.434  -2.137   1.641  0.00  0.00     0.150 HD
HETATM   14  H   UNK N   1      -2.988  -2.653   0.947  0.00  0.00     0.150 HD
ENDBRANCH   5  12
ENDBRANCH   4   5
ENDBRANCH   3   4
ENDBRANCH   1   3
BRANCH   1  15
HETATM   15  C   UNK N   1       0.066   1.789   0.689  0.00  0.00     0.011 C 
BRANCH  15  16
HETATM   16  C   UNK N   1       1.468   1.446   0.125  0.00  0.00     0.011 C 
HETATM   17  C   UNK N   1       1.929   2.531  -0.840  0.00  0.00     0.012 C 
BRANCH  16  18
HETATM   18  C   UNK N   1       1.550   0.037  -0.505  0.00  0.00     0.128 C 
BRANCH  18  19
HETATM   19  O   UNK N   1       1.286  -0.927   0.497  0.00  0.00    -0.390 OA
HETATM   20  C   UNK N   1       0.893  -2.125  -0.120  0.00  0.00     0.202 C 
ENDBRANCH  18  19
BRANCH  18  21
HETATM   21  C   UNK N   1       2.899  -0.233  -1.204  0.00  0.00     0.070 C 
BRANCH  21  22
HETATM   22  C   UNK N   1       4.117  -0.299  -0.341  0.00  0.00    -0.056 A 
HETATM   23  C   UNK N   1       5.138   0.639  -0.527  0.00  0.00     0.007 A 
HETATM   24  C   UNK N   1       6.323   0.543   0.208  0.00  0.00     0.001 A 
HETATM   25  C   UNK N   1       6.494  -0.501   1.122  0.00  0.00     0.000 A 
HETATM   26  C   UNK N   1       5.479  -1.445   1.305  0.00  0.00     0.001 A 
HETATM   27  C   UNK N   1       4.293  -1.348   0.570  0.00  0.00     0.007 A 
ENDBRANCH  21  22
ENDBRANCH  18  21
ENDBRANCH  16  18
ENDBRANCH  15  16
ENDBRANCH   1  15
TORSDOF 13
