REMARK  12 active torsions:
REMARK  status: ('A' for Active; 'I' for Inactive)
REMARK    1  A    between atoms: C_1  and  O_20 
REMARK    2  A    between atoms: C_2  and  C_29 
REMARK    3  A    between atoms: C_3  and  O_19 
REMARK    4  A    between atoms: C_4  and  N_6 
REMARK    5  A    between atoms: C_16  and  N_18 
REMARK    6  A    between atoms: O_20  and  P_21 
REMARK    7  A    between atoms: P_21  and  O_26 
REMARK    8  A    between atoms: P_21  and  O_27 
REMARK    9  A    between atoms: P_22  and  O_25 
REMARK   10  A    between atoms: P_22  and  O_28 
REMARK   11  A    between atoms: O_30  and  P_22 
REMARK   12  A    between atoms: C_29  and  O_30 
ROOT
HETATM    1  C   UNK N   1       1.191  -1.338  -0.032  0.00  0.00     0.197 C 
HETATM    2  C   UNK N   1       2.077  -0.171  -0.438  0.00  0.00     0.180 C 
HETATM    3  C   UNK N   1      -0.174  -0.816  -0.358  0.00  0.00     0.199 C 
HETATM    4  C   UNK N   1       0.057   0.591   0.128  0.00  0.00     0.262 C 
HETATM    5  O   UNK N   1       1.271   0.982  -0.453  0.00  0.00    -0.353 OA
ENDROOT
BRANCH   4   6
HETATM    6  N   UNK N   1      -0.993   1.561  -0.188  0.00  0.00    -0.297 N 
HETATM    7  C   UNK N   1      -2.281   1.554   0.171  0.00  0.00     0.142 A 
HETATM    8  C   UNK N   1      -2.870   2.689  -0.255  0.00  0.00     0.122 A 
HETATM    9  N   UNK N   1      -2.952   0.605   0.868  0.00  0.00    -0.336 N 
HETATM   10  N   UNK N   1      -1.974   3.455  -0.902  0.00  0.00    -0.346 N 
HETATM   11  C   UNK N   1      -4.206   2.925   0.015  0.00  0.00     0.131 A 
HETATM   12  C   UNK N   1      -0.818   2.738  -0.847  0.00  0.00     0.188 A 
ATOM     13  HN  UNK N   1      -2.126   4.366  -1.336  1.00  0.00     0.167 HD
HETATM   14  N   UNK N   1      -4.897   1.971   0.707  0.00  0.00    -0.337 N 
HETATM   15  C   UNK N   1      -4.279   0.818   1.129  0.00  0.00     0.183 A 
ATOM     16  HN  UNK N   1      -5.885   2.117   0.914  1.00  0.00     0.168 HD
ATOM     17  HN  UNK N   1      -2.482  -0.242   1.188  1.00  0.00     0.168 HD
BRANCH  11  18
HETATM   18  N   UNK N   1      -4.839   4.115  -0.400  0.00  0.00    -0.383 N 
HETATM   19  H   UNK N   1      -4.340   4.913  -0.689  0.00  0.00     0.157 HD
HETATM   20  H   UNK N   1      -5.823   4.149  -0.400  0.00  0.00     0.157 HD
ENDBRANCH  11  18
ENDBRANCH   4   6
BRANCH   3  21
HETATM   21  O   UNK N   1      -1.137  -1.481   0.400  0.00  0.00    -0.388 OA
HETATM   22  H   UNK N   1      -1.873  -1.132   0.927  0.00  0.00     0.210 HD
ENDBRANCH   3  21
BRANCH   1  23
HETATM   23  O   UNK N   1       1.496  -2.506  -0.743  0.00  0.00    -0.286 OA
BRANCH  23  24
HETATM   24  P   UNK N   1       2.392  -3.496   0.377  0.00  0.00     0.391 P 
HETATM   25  O   UNK N   1       1.324  -4.520  -0.093  0.00  0.00    -0.632 OA
BRANCH  24  26
HETATM   26  O   UNK N   1       3.408  -4.808  -0.131  0.00  0.00    -0.307 OA
HETATM   27  H   UNK N   1       3.057  -5.667  -0.414  0.00  0.00     0.222 HD
ENDBRANCH  24  26
BRANCH  24  28
HETATM   28  O   UNK N   1       3.365  -3.086  -1.003  0.00  0.00    -0.307 OA
HETATM   29  H   UNK N   1       3.834  -3.441  -1.774  0.00  0.00     0.222 HD
ENDBRANCH  24  28
ENDBRANCH  23  24
ENDBRANCH   1  23
BRANCH   2  30
HETATM   30  C   UNK N   1       3.206   0.034   0.570  0.00  0.00     0.215 C 
BRANCH  30  31
HETATM   31  O   UNK N   1       4.213   0.862   0.044  0.00  0.00    -0.294 OA
BRANCH  31  32
HETATM   32  P   UNK N   1       3.734   2.540   0.229  0.00  0.00     0.390 P 
HETATM   33  O   UNK N   1       2.686   2.668   1.371  0.00  0.00    -0.632 OA
BRANCH  32  34
HETATM   34  O   UNK N   1       2.992   3.137  -1.223  0.00  0.00    -0.307 OA
HETATM   35  H   UNK N   1       3.073   3.663  -2.034  0.00  0.00     0.222 HD
ENDBRANCH  32  34
BRANCH  32  36
HETATM   36  O   UNK N   1       5.079   3.541   0.674  0.00  0.00    -0.307 OA
HETATM   37  H   UNK N   1       5.940   3.170   0.922  0.00  0.00     0.222 HD
ENDBRANCH  32  36
ENDBRANCH  31  32
ENDBRANCH  30  31
ENDBRANCH   2  30
TORSDOF 12
