REMARK  1 active torsions:
REMARK  status: ('A' for Active; 'I' for Inactive)
REMARK    1  A    between atoms: C_3  and  O_4 
ROOT
HETATM    1  C   UNK N   1       2.309  -0.959   0.891  0.00  0.00     0.012 C 
HETATM    2  C   UNK N   1       3.744  -0.428   1.026  0.00  0.00     0.032 C 
HETATM    3  C   UNK N   1       4.264   0.165  -0.284  0.00  0.00     0.118 C 
HETATM    4  C   UNK N   1       3.346   1.265  -0.846  0.00  0.00     0.037 C 
HETATM    5  C   UNK N   1       1.993   1.355  -0.129  0.00  0.00    -0.004 C 
HETATM    6  C   UNK N   1       1.036   2.276  -0.892  0.00  0.00     0.006 C 
HETATM    7  C   UNK N   1      -0.247   2.485  -0.080  0.00  0.00     0.006 C 
HETATM    8  C   UNK N   1      -0.955   1.160   0.252  0.00  0.00    -0.004 C 
HETATM    9  C   UNK N   1       0.035   0.156   0.891  0.00  0.00    -0.002 C 
HETATM   10  C   UNK N   1       1.357  -0.048   0.083  0.00  0.00    -0.036 C 
HETATM   11  C   UNK N   1      -0.720  -1.130   1.255  0.00  0.00     0.007 C 
HETATM   12  C   UNK N   1      -1.423  -1.748   0.053  0.00  0.00     0.018 C 
HETATM   13  C   UNK N   1      -2.377  -0.786  -0.674  0.00  0.00     0.021 C 
HETATM   14  C   UNK N   1      -1.736   0.588  -0.978  0.00  0.00     0.006 C 
HETATM   15  C   UNK N   1      -2.954   1.490  -1.223  0.00  0.00     0.013 C 
HETATM   16  C   UNK N   1      -3.984   1.048  -0.171  0.00  0.00     0.079 C 
HETATM   17  C   UNK N   1      -3.600  -0.373   0.069  0.00  0.00     0.135 C 
HETATM   18  O   UNK N   1      -4.333  -1.160   0.647  0.00  0.00    -0.297 OA
HETATM   19  C   UNK N   1      -2.836  -1.479  -1.951  0.00  0.00     0.024 C 
HETATM   20  C   UNK N   1       1.131  -0.730  -1.268  0.00  0.00     0.016 C 
ENDROOT
BRANCH   3  21
HETATM   21  O   UNK N   1       5.537   0.694  -0.071  0.00  0.00    -0.396 OA
HETATM   22  H   UNK N   1       6.298   0.112   0.078  0.00  0.00     0.210 HD
ENDBRANCH   3  21
TORSDOF 1
