REMARK  5 active torsions:
REMARK  status: ('A' for Active; 'I' for Inactive)
REMARK    1  A    between atoms: C_1  and  C_2 
REMARK    2  A    between atoms: C_1  and  C_5 
REMARK    3  A    between atoms: C_2  and  O_4 
REMARK    4  A    between atoms: C_5  and  C_6 
REMARK    5  A    between atoms: C_11  and  N_12 
ROOT
HETATM    1  C   UNK N   1       0.158  -0.240  -0.000  0.00  0.00    -0.058 A 
HETATM    2  C   UNK N   1       0.093  -1.638   0.000  0.00  0.00     0.009 A 
HETATM    3  C   UNK N   1      -1.034   0.504  -0.000  0.00  0.00     0.009 A 
HETATM    4  C   UNK N   1      -1.147  -2.285   0.000  0.00  0.00     0.029 A 
HETATM    5  C   UNK N   1      -2.271  -0.141  -0.000  0.00  0.00     0.029 A 
HETATM    6  C   UNK N   1      -2.328  -1.536   0.000  0.00  0.00     0.025 A 
ENDROOT
BRANCH   1   7
HETATM    7  C   UNK N   1       1.501   0.430  -0.000  0.00  0.00     0.049 C 
BRANCH   7   8
HETATM    8  C   UNK N   1       1.398   1.954  -0.000  0.00  0.00     0.114 C 
BRANCH   8   9
HETATM    9  C   UNK N   1       2.729   2.636  -0.000  0.00  0.00     0.139 C 
HETATM   10  O   UNK N   1       2.776   3.851   0.000  0.00  0.00    -0.650 OA
BRANCH   9  11
HETATM   11  O   UNK N   1       3.873   1.921   0.000  0.00  0.00    -0.776 OA
HETATM   12  H   UNK N   1       3.841   0.985   0.000  0.00  0.00     0.167 HD
ENDBRANCH   9  11
ENDBRANCH   8   9
ENDBRANCH   7   8
ENDBRANCH   1   7
BRANCH   6  13
HETATM   13  N   UNK N   1      -3.577  -2.186   0.000  0.00  0.00    -0.399 N 
HETATM   14  H   UNK N   1      -4.407  -1.657   0.000  0.00  0.00     0.156 HD
HETATM   15  H   UNK N   1      -3.620  -3.169   0.000  0.00  0.00     0.156 HD
ENDBRANCH   6  13
TORSDOF 5
