REMARK  4 active torsions:
REMARK  status: ('A' for Active; 'I' for Inactive)
REMARK    1  A    between atoms: C_1  and  S_10 
REMARK    2  A    between atoms: C_6  and  O_23 
REMARK    3  A    between atoms: N_9  and  S_10 
REMARK    4  A    between atoms: N_17  and  C_21 
ROOT
HETATM    1  C   UNK N   1      -4.563  -0.946   0.228  0.00  0.00     0.121 A 
HETATM    2  C   UNK N   1       0.287  -1.386  -0.216  0.00  0.00     0.146 C 
HETATM    3  C   UNK N   1      -0.899  -1.910   0.644  0.00  0.00     0.061 C 
HETATM    4  S   UNK N   1      -3.875   0.486  -0.237  0.00  0.00    -0.062 SA
HETATM    5  C   UNK N   1      -2.305   0.065  -0.095  0.00  0.00     0.128 A 
HETATM    6  C   UNK N   1      -2.230  -1.249   0.341  0.00  0.00    -0.024 A 
HETATM    7  C   UNK N   1      -3.521  -1.844   0.544  0.00  0.00     0.042 A 
HETATM    8  N   UNK N   1       0.495   0.052  -0.101  0.00  0.00    -0.271 N 
HETATM    9  S   UNK N   1      -0.905   1.081  -0.339  0.00  0.00     0.272 S 
HETATM   10  O   UNK N   1      -0.774   2.231   0.669  0.00  0.00    -0.199 OA
HETATM   11  O   UNK N   1      -0.733   1.700  -1.734  0.00  0.00    -0.199 OA
ENDROOT
BRANCH   8  12
HETATM   12  C   UNK N   1       1.805   0.623   0.005  0.00  0.00     0.047 A 
HETATM   13  C   UNK N   1       2.950  -0.195   0.007  0.00  0.00     0.067 A 
HETATM   14  C   UNK N   1       4.230   0.376   0.057  0.00  0.00     0.070 A 
HETATM   15  C   UNK N   1       4.366   1.773   0.118  0.00  0.00     0.037 A 
HETATM   16  C   UNK N   1       3.237   2.589   0.125  0.00  0.00     0.005 A 
HETATM   17  C   UNK N   1       1.969   2.015   0.060  0.00  0.00     0.030 A 
BRANCH  14  18
HETATM   18  O   UNK N   1       5.315  -0.436   0.031  0.00  0.00    -0.356 OA
HETATM   19  C   UNK N   1       6.608   0.040   0.022  0.00  0.00     0.210 C 
ENDBRANCH  14  18
ENDBRANCH   8  12
BRANCH   1  20
HETATM   20  S   UNK N   1      -6.336  -1.136   0.400  0.00  0.00     0.263 S 
HETATM   21  O   UNK N   1      -7.090   0.189   0.216  0.00  0.00    -0.200 OA
HETATM   22  O   UNK N   1      -6.188  -1.176  -1.126  0.00  0.00    -0.200 OA
BRANCH  20  23
HETATM   23  N   UNK N   1      -7.475  -2.442   0.075  0.00  0.00    -0.324 N 
HETATM   24  H   UNK N   1      -8.459  -2.249  -0.113  0.00  0.00     0.169 HD
HETATM   25  H   UNK N   1      -7.145  -3.407   0.075  0.00  0.00     0.169 HD
ENDBRANCH  20  23
ENDBRANCH   1  20
TORSDOF 4
