REMARK  8 active torsions:
REMARK  status: ('A' for Active; 'I' for Inactive)
REMARK    1  A    between atoms: C_6  and  C_7 
REMARK    2  A    between atoms: C_7  and  C_8 
REMARK    3  A    between atoms: C_8  and  N_9 
REMARK    4  A    between atoms: C_8  and  C_10 
REMARK    5  A    between atoms: C_10  and  O_11 
REMARK    6  A    between atoms: C_10  and  C_12 
REMARK       I    between atoms: C_12  and  N_14 
REMARK    7  A    between atoms: N_14  and  N_15 
REMARK    8  A    between atoms: N_15  and  C_16 
ROOT
HETATM    1  C   UNK N   1      -0.536  -0.809   0.394  0.00  0.00     0.233 C 
ENDROOT
BRANCH   1   2
HETATM    2  C   UNK N   1      -1.673   0.067  -0.137  0.00  0.00     0.112 C 
BRANCH   2   3
HETATM    3  C   UNK N   1      -2.998  -0.675   0.054  0.00  0.00     0.032 C 
BRANCH   3   4
HETATM    4  C   UNK N   1      -4.216   0.092  -0.443  0.00  0.00    -0.013 C 
HETATM    5  C   UNK N   1      -5.466  -0.720  -0.111  0.00  0.00     0.005 C 
HETATM    6  C   UNK N   1      -6.718   0.009  -0.590  0.00  0.00     0.000 C 
HETATM    7  C   UNK N   1      -6.797   1.401   0.035  0.00  0.00     0.000 C 
HETATM    8  C   UNK N   1      -5.546   2.203  -0.307  0.00  0.00     0.000 C 
HETATM    9  C   UNK N   1      -4.313   1.473   0.208  0.00  0.00     0.005 C 
ENDBRANCH   3   4
ENDBRANCH   2   3
BRANCH   2  10
HETATM   10  N   UNK N   1      -1.472   0.375  -1.547  0.00  0.00    -0.423 N 
HETATM   11  H   UNK N   1      -1.216   0.361  -2.534  0.00  0.00     0.150 HD
HETATM   12  H   UNK N   1      -1.934   1.285  -1.547  0.00  0.00     0.150 HD
ENDBRANCH   2  10
ENDBRANCH   1   2
BRANCH   1  13
HETATM   13  O   UNK N   1      -0.413  -1.965  -0.383  0.00  0.00    -0.384 OA
HETATM   14  H   UNK N   1      -1.065  -2.439  -0.922  0.00  0.00     0.210 HD
ENDBRANCH   1  13
BRANCH   1  15
HETATM   15  C   UNK N   1       0.785  -0.094   0.422  0.00  0.00     0.266 C 
HETATM   16  O   UNK N   1       1.390   0.002   1.480  0.00  0.00    -0.269 OA
HETATM   17  N   UNK N   1       1.333   0.386  -0.722  0.00  0.00    -0.267 N 
HETATM   18  H   UNK N   1       0.792   0.435  -1.543  0.00  0.00     0.190 HD
BRANCH  17  19
HETATM   19  N   UNK N   1       2.644   0.806  -0.738  0.00  0.00    -0.298 N 
HETATM   20  H   UNK N   1       2.862   1.756  -0.876  0.00  0.00     0.187 HD
BRANCH  19  21
HETATM   21  C   UNK N   1       3.676  -0.147  -0.552  0.00  0.00     0.048 A 
HETATM   22  C   UNK N   1       4.980   0.268  -0.266  0.00  0.00     0.031 A 
HETATM   23  C   UNK N   1       5.980  -0.688  -0.042  0.00  0.00     0.009 A 
HETATM   24  C   UNK N   1       5.676  -2.053  -0.110  0.00  0.00    -0.062 A 
HETATM   25  C   UNK N   1       4.378  -2.467  -0.407  0.00  0.00     0.009 A 
HETATM   26  C   UNK N   1       6.731  -3.069   0.136  0.00  0.00     0.048 C 
HETATM   27  C   UNK N   1       3.383  -1.518  -0.624  0.00  0.00     0.031 A 
ENDBRANCH  19  21
ENDBRANCH  17  19
ENDBRANCH   1  15
TORSDOF 8
