REMARK  2 active torsions:
REMARK  status: ('A' for Active; 'I' for Inactive)
REMARK       I    between atoms: C_3  and  N_4 
REMARK    1  A    between atoms: C_7  and  N_8 
REMARK    2  A    between atoms: C_12  and  C_15 
ROOT
HETATM    1  N   UNK N   1      -2.982   2.014  -0.247  0.00  0.00    -0.175 N 
ATOM      2  HN  UNK N   1      -3.025   3.029  -0.338  1.00  0.00     0.186 HD
HETATM    3  C   UNK N   1      -4.133   1.299  -0.121  0.00  0.00     0.679 A 
HETATM    4  N   UNK N   1      -5.374   1.965  -0.100  0.00  0.00    -0.234 N 
HETATM    5  N   UNK N   1      -4.090  -0.058  -0.020  0.00  0.00    -0.175 N 
ATOM      6  HN  UNK N   1      -4.961  -0.584   0.053  1.00  0.00     0.186 HD
HETATM    7  C   UNK N   1      -2.904  -0.723  -0.016  0.00  0.00     0.145 A 
HETATM    8  C   UNK N   1      -1.714  -0.002  -0.111  0.00  0.00     0.118 A 
HETATM    9  C   UNK N   1      -1.778   1.387  -0.253  0.00  0.00     0.147 A 
HETATM   10  N   UNK N   1      -0.445  -0.633  -0.058  0.00  0.00    -0.374 N 
HETATM   11  C   UNK N   1       0.730   0.174   0.225  0.00  0.00     0.133 C 
HETATM   12  C   UNK N   1       0.682   1.433  -0.649  0.00  0.00     0.151 C 
HETATM   13  N   UNK N   1      -0.577   2.126  -0.427  0.00  0.00    -0.372 N 
HETATM   14  H   UNK N   1      -5.405   2.949  -0.085  0.00  0.00     0.174 HD
HETATM   15  H   UNK N   1      -6.211   1.447  -0.100  0.00  0.00     0.174 HD
HETATM   16  H   UNK N   1      -0.361  -1.603  -0.210  0.00  0.00     0.160 HD
HETATM   17  H   UNK N   1      -0.597   3.110  -0.397  0.00  0.00     0.161 HD
ENDROOT
BRANCH  11  18
HETATM   18  C   UNK N   1       2.011  -0.602   0.064  0.00  0.00    -0.034 A 
HETATM   19  C   UNK N   1       3.240   0.038   0.287  0.00  0.00     0.009 A 
HETATM   20  C   UNK N   1       4.438  -0.675   0.184  0.00  0.00     0.001 A 
HETATM   21  C   UNK N   1       4.417  -2.036  -0.127  0.00  0.00     0.000 A 
HETATM   22  C   UNK N   1       3.199  -2.685  -0.345  0.00  0.00     0.001 A 
HETATM   23  C   UNK N   1       2.000  -1.971  -0.253  0.00  0.00     0.009 A 
ENDBRANCH  11  18
BRANCH   7  24
HETATM   24  N   UNK N   1      -2.885  -2.128   0.101  0.00  0.00    -0.383 N 
HETATM   25  H   UNK N   1      -3.729  -2.629   0.183  0.00  0.00     0.157 HD
HETATM   26  H   UNK N   1      -2.026  -2.609   0.101  0.00  0.00     0.157 HD
ENDBRANCH   7  24
TORSDOF 2
