REMARK  1 active torsions:
REMARK  status: ('A' for Active; 'I' for Inactive)
REMARK    1  A    between atoms: C_2  and  O_1 
ROOT
HETATM    1  C   UNK N   1       4.205   0.550  -0.276  0.00  0.00     0.118 C 
HETATM    2  C   UNK N   1       3.841  -0.934  -0.237  0.00  0.00     0.032 C 
HETATM    3  C   UNK N   1       2.468  -1.154   0.405  0.00  0.00     0.012 C 
HETATM    4  C   UNK N   1       3.125   1.344  -1.021  0.00  0.00     0.037 C 
HETATM    5  C   UNK N   1       1.738   1.141  -0.399  0.00  0.00    -0.004 C 
HETATM    6  C   UNK N   1       0.679   1.901  -1.238  0.00  0.00     0.006 C 
HETATM    7  C   UNK N   1       1.364  -0.361  -0.318  0.00  0.00    -0.036 C 
HETATM    8  C   UNK N   1       1.238  -0.918  -1.750  0.00  0.00     0.016 C 
HETATM    9  C   UNK N   1       0.020  -0.509   0.477  0.00  0.00    -0.002 C 
HETATM   10  C   UNK N   1      -0.662  -1.868   0.190  0.00  0.00     0.007 C 
HETATM   11  C   UNK N   1      -0.946   0.719   0.303  0.00  0.00    -0.004 C 
HETATM   12  C   UNK N   1      -0.760   1.349  -1.082  0.00  0.00     0.006 C 
HETATM   13  C   UNK N   1      -2.403   0.322   0.665  0.00  0.00     0.005 C 
HETATM   14  C   UNK N   1      -3.384   1.466   0.384  0.00  0.00     0.033 C 
HETATM   15  C   UNK N   1      -2.925  -0.877  -0.177  0.00  0.00    -0.022 C 
HETATM   16  C   UNK N   1      -1.797  -1.698  -0.815  0.00  0.00     0.014 C 
HETATM   17  C   UNK N   1      -3.814  -1.789   0.660  0.00  0.00     0.020 C 
HETATM   18  C   UNK N   1      -3.776  -0.217  -1.199  0.00  0.00    -0.021 C 
HETATM   19  C   UNK N   1      -4.016   1.052  -0.903  0.00  0.00    -0.029 C 
ENDROOT
BRANCH   1  20
HETATM   20  O   UNK N   1       4.359   1.040   1.023  0.00  0.00    -0.396 OA
HETATM   21  H   UNK N   1       4.707   1.118   1.925  0.00  0.00     0.210 HD
ENDBRANCH   1  20
TORSDOF 1
