REMARK  5 active torsions:
REMARK  status: ('A' for Active; 'I' for Inactive)
REMARK    1  A    between atoms: N_1  and  C_2 
REMARK    2  A    between atoms: C_6  and  C_9 
REMARK    3  A    between atoms: C_10  and  C_11 
REMARK       I    between atoms: C_11  and  N_13 
REMARK    4  A    between atoms: N_13  and  C_15 
REMARK    5  A    between atoms: C_15  and  C_16 
ROOT
HETATM    1  C   UNK N   1      -1.949  -1.876   0.417  0.00  0.00     0.243 C 
HETATM    2  O   UNK N   1      -2.118  -2.810   1.190  0.00  0.00    -0.268 OA
HETATM    3  N   UNK N   1      -0.968  -1.930  -0.538  0.00  0.00    -0.347 N 
HETATM    4  C   UNK N   1      -0.884  -0.913  -1.570  0.00  0.00     0.153 C 
ENDROOT
BRANCH   1   5
HETATM    5  C   UNK N   1      -2.763  -0.661   0.555  0.00  0.00     0.075 C 
HETATM    6  C   UNK N   1      -2.073   0.449   0.819  0.00  0.00     0.018 C 
BRANCH   6   7
HETATM    7  C   UNK N   1      -2.511   1.815   0.574  0.00  0.00    -0.021 A 
HETATM    8  C   UNK N   1      -1.652   2.849   0.943  0.00  0.00     0.101 A 
HETATM    9  N   UNK N   1      -1.909   4.124   0.554  0.00  0.00    -0.352 N 
HETATM   10  C   UNK N   1      -2.989   4.423  -0.216  0.00  0.00     0.098 A 
ATOM     11  HN  UNK N   1      -1.280   4.872   0.846  1.00  0.00     0.166 HD
HETATM   12  C   UNK N   1      -3.880   3.416  -0.599  0.00  0.00     0.049 A 
HETATM   13  C   UNK N   1      -3.635   2.100  -0.207  0.00  0.00     0.016 A 
BRANCH  10  14
HETATM   14  N   UNK N   1      -3.195   5.747  -0.646  0.00  0.00    -0.385 N 
HETATM   15  H   UNK N   1      -2.466   6.335  -0.947  0.00  0.00     0.157 HD
HETATM   16  H   UNK N   1      -4.114   6.102  -0.646  0.00  0.00     0.157 HD
ENDBRANCH  10  14
ENDBRANCH   6   7
ENDBRANCH   1   5
BRANCH   3  17
HETATM   17  C   UNK N   1      -0.026  -3.018  -0.578  0.00  0.00     0.182 C 
BRANCH  17  18
HETATM   18  C   UNK N   1       1.410  -2.578  -0.358  0.00  0.00     0.030 A 
HETATM   19  C   UNK N   1       2.487  -3.437  -0.573  0.00  0.00     0.040 A 
HETATM   20  C   UNK N   1       3.608  -2.688  -0.275  0.00  0.00    -0.007 A 
HETATM   21  C   UNK N   1       3.199  -1.440   0.101  0.00  0.00     0.044 A 
HETATM   22  C   UNK N   1       4.954  -3.039  -0.311  0.00  0.00     0.014 A 
HETATM   23  N   UNK N   1       1.861  -1.356   0.062  0.00  0.00    -0.352 N 
HETATM   24  C   UNK N   1       4.108  -0.445   0.467  0.00  0.00     0.030 A 
HETATM   25  C   UNK N   1       1.105  -0.168   0.431  0.00  0.00     0.156 C 
HETATM   26  C   UNK N   1       5.477  -0.767   0.438  0.00  0.00     0.002 A 
HETATM   27  C   UNK N   1       5.898  -2.060   0.052  0.00  0.00     0.001 A 
ENDBRANCH  17  18
ENDBRANCH   3  17
TORSDOF 5
