REMARK  6 active torsions:
REMARK  status: ('A' for Active; 'I' for Inactive)
REMARK    1  A    between atoms: C_2  and  O_1 
REMARK    2  A    between atoms: C_3  and  O_4 
REMARK    3  A    between atoms: C_5  and  O_6 
REMARK    4  A    between atoms: C_7  and  O_8 
REMARK    5  A    between atoms: C_9  and  C_11 
REMARK    6  A    between atoms: C_11  and  O_12 
ROOT
HETATM    1  C   UNK N   1       1.272   0.764   0.000  0.00  0.00     0.288 A 
HETATM    2  C   UNK N   1       1.363  -0.758  -0.000  0.00  0.00     0.204 A 
HETATM    3  C   UNK N   1       0.101  -1.557  -0.000  0.00  0.00     0.183 A 
HETATM    4  C   UNK N   1      -1.173  -0.787   0.000  0.00  0.00     0.180 A 
HETATM    5  C   UNK N   1      -1.135   0.739  -0.000  0.00  0.00     0.179 A 
HETATM    6  O   UNK N   1       0.067   1.509   0.000  0.00  0.00    -0.349 OA
ENDROOT
BRANCH   5   7
HETATM    7  C   UNK N   1      -2.442   1.509   0.000  0.00  0.00     0.198 C 
BRANCH   7   8
HETATM    8  O   UNK N   1      -2.194   2.881  -0.000  0.00  0.00    -0.398 OA
HETATM    9  H   UNK N   1      -1.282   3.209  -0.000  0.00  0.00     0.209 HD
ENDBRANCH   7   8
ENDBRANCH   5   7
BRANCH   4  10
HETATM   10  O   UNK N   1      -2.391  -1.471  -0.000  0.00  0.00    -0.390 OA
HETATM   11  H   UNK N   1      -3.225  -0.975  -0.000  0.00  0.00     0.210 HD
ENDBRANCH   4  10
BRANCH   3  12
HETATM   12  O   UNK N   1       0.111  -2.950   0.000  0.00  0.00    -0.390 OA
HETATM   13  H   UNK N   1      -0.725  -3.441   0.000  0.00  0.00     0.210 HD
ENDBRANCH   3  12
BRANCH   1  14
HETATM   14  O   UNK N   1       2.448   1.519  -0.000  0.00  0.00    -0.369 OA
HETATM   15  H   UNK N   1       3.310   1.073  -0.000  0.00  0.00     0.212 HD
ENDBRANCH   1  14
BRANCH   2  16
HETATM   16  O   UNK N   1       2.595  -1.407   0.000  0.00  0.00    -0.388 OA
HETATM   17  H   UNK N   1       2.633  -2.376   0.000  0.00  0.00     0.210 HD
ENDBRANCH   2  16
TORSDOF 6
