REMARK  7 active torsions:
REMARK  status: ('A' for Active; 'I' for Inactive)
REMARK    1  A    between atoms: B_1  and  O_2 
REMARK    2  A    between atoms: B_1  and  O_3 
REMARK    3  A    between atoms: B_1  and  C_4 
REMARK    4  A    between atoms: C_7  and  C_10 
REMARK    5  A    between atoms: C_13  and  B_16 
REMARK    6  A    between atoms: B_16  and  O_17 
REMARK    7  A    between atoms: B_16  and  O_18 
ROOT
HETATM    1  C   UNK N   1       0.014   3.550  -0.000  0.00  0.00    -0.032 A 
HETATM    2  C   UNK N   1       1.224   2.851  -0.000  0.00  0.00     0.001 A 
HETATM    3  C   UNK N   1       1.224   1.454  -0.000  0.00  0.00     0.012 A 
HETATM    4  C   UNK N   1       0.014   0.745  -0.000  0.00  0.00    -0.026 A 
HETATM    5  C   UNK N   1      -1.197   1.454   0.000  0.00  0.00     0.012 A 
HETATM    6  C   UNK N   1      -1.196   2.851   0.000  0.00  0.00     0.001 A 
ENDROOT
BRANCH   4   7
HETATM    7  C   UNK N   1       0.014  -0.735  -0.000  0.00  0.00    -0.026 A 
HETATM    8  C   UNK N   1       1.224  -1.444   0.000  0.00  0.00     0.012 A 
HETATM    9  C   UNK N   1       1.224  -2.841   0.000  0.00  0.00     0.001 A 
HETATM   10  C   UNK N   1       0.014  -3.540  -0.000  0.00  0.00    -0.032 A 
HETATM   11  C   UNK N   1      -1.196  -2.841  -0.000  0.00  0.00     0.001 A 
HETATM   12  C   UNK N   1      -1.197  -1.444  -0.000  0.00  0.00     0.012 A 
BRANCH  10  13
HETATM   13  B   UNK N   1       0.014  -5.101   0.000  0.00  0.00     0.529 B 
BRANCH  13  14
HETATM   14  O   UNK N   1       1.277  -5.834   0.000  0.00  0.00    -0.433 OA
HETATM   15  H   UNK N   1       1.275  -6.804   0.000  0.00  0.00     0.185 HD
ENDBRANCH  13  14
BRANCH  13  16
HETATM   16  O   UNK N   1      -1.250  -5.834  -0.000  0.00  0.00    -0.433 OA
HETATM   17  H   UNK N   1      -2.091  -5.351  -0.000  0.00  0.00     0.185 HD
ENDBRANCH  13  16
ENDBRANCH  10  13
ENDBRANCH   4   7
BRANCH   1  18
HETATM   18  B   UNK N   1       0.014   5.111   0.000  0.00  0.00     0.529 B 
BRANCH  18  19
HETATM   19  O   UNK N   1      -1.250   5.844   0.000  0.00  0.00    -0.433 OA
HETATM   20  H   UNK N   1      -1.248   6.814   0.000  0.00  0.00     0.185 HD
ENDBRANCH  18  19
BRANCH  18  21
HETATM   21  O   UNK N   1       1.277   5.844  -0.000  0.00  0.00    -0.433 OA
HETATM   22  H   UNK N   1       2.118   5.361  -0.000  0.00  0.00     0.185 HD
ENDBRANCH  18  21
ENDBRANCH   1  18
TORSDOF 7
