REMARK  2 active torsions:
REMARK  status: ('A' for Active; 'I' for Inactive)
REMARK       I    between atoms: C_1  and  N_3 
REMARK    1  A    between atoms: C_1  and  C_4 
REMARK    2  A    between atoms: C_11  and  O_14 
ROOT
HETATM    1  C   UNK N   1       0.950   0.780   0.000  0.00  0.00     0.115 A 
HETATM    2  C   UNK N   1       1.009  -0.631   0.000  0.00  0.00     0.176 A 
HETATM    3  C   UNK N   1      -0.318   1.405  -0.000  0.00  0.00     0.176 A 
HETATM    4  F   UNK N   1       2.200  -1.281   0.000  0.00  0.00    -0.202 F 
HETATM    5  F   UNK N   1      -0.428   2.758  -0.000  0.00  0.00    -0.202 F 
HETATM    6  C   UNK N   1      -0.161  -1.394  -0.000  0.00  0.00     0.192 A 
HETATM    7  C   UNK N   1      -1.486   0.637  -0.000  0.00  0.00     0.192 A 
HETATM    8  C   UNK N   1      -1.425  -0.762  -0.000  0.00  0.00     0.152 A 
HETATM    9  F   UNK N   1      -0.049  -2.746  -0.000  0.00  0.00    -0.200 F 
HETATM   10  F   UNK N   1      -2.693   1.258  -0.000  0.00  0.00    -0.200 F 
ENDROOT
BRANCH   1  11
HETATM   11  C   UNK N   1       2.201   1.598   0.000  0.00  0.00     0.255 C 
HETATM   12  O   UNK N   1       2.142   2.817  -0.000  0.00  0.00    -0.268 OA
HETATM   13  N   UNK N   1       3.413   1.006   0.000  0.00  0.00    -0.366 N 
HETATM   14  H   UNK N   1       3.481   0.024   0.000  0.00  0.00     0.159 HD
HETATM   15  H   UNK N   1       4.230   1.556   0.000  0.00  0.00     0.159 HD
ENDBRANCH   1  11
BRANCH   8  16
HETATM   16  O   UNK N   1      -2.594  -1.456  -0.000  0.00  0.00    -0.350 OA
HETATM   17  C   UNK N   1      -2.697  -2.828   0.000  0.00  0.00     0.210 C 
ENDBRANCH   8  16
TORSDOF 2
