REMARK  4 active torsions:
REMARK  status: ('A' for Active; 'I' for Inactive)
REMARK    1  A    between atoms: C_5  and  C_6 
REMARK    2  A    between atoms: C_5  and  C_9 
REMARK    3  A    between atoms: C_6  and  O_16 
REMARK    4  A    between atoms: C_12  and  C_13 
ROOT
HETATM    1  C   UNK N   1       1.447   0.312  -0.190  0.00  0.00     0.013 A 
HETATM    2  C   UNK N   1       1.507  -1.086  -0.232  0.00  0.00     0.009 A 
HETATM    3  C   UNK N   1       0.372  -1.857   0.069  0.00  0.00    -0.044 A 
HETATM    4  C   UNK N   1      -0.820  -1.202   0.416  0.00  0.00     0.009 A 
HETATM    5  C   UNK N   1      -0.885   0.189   0.440  0.00  0.00     0.013 A 
HETATM    6  C   UNK N   1       0.244   0.961   0.133  0.00  0.00    -0.026 A 
ENDROOT
BRANCH   3   7
HETATM    7  C   UNK N   1       0.439  -3.368  -0.039  0.00  0.00     0.112 C 
HETATM    8  C   UNK N   1       1.559  -3.900   0.851  0.00  0.00     0.026 C 
BRANCH   7   9
HETATM    9  C   UNK N   1      -0.866  -4.064   0.294  0.00  0.00     0.148 C 
HETATM   10  O   UNK N   1      -1.879  -3.796  -0.346  0.00  0.00    -0.649 OA
BRANCH   9  11
HETATM   11  O   UNK N   1      -0.934  -4.986   1.271  0.00  0.00    -0.776 OA
HETATM   12  H   UNK N   1      -1.514  -5.266   1.952  0.00  0.00     0.167 HD
ENDBRANCH   9  11
ENDBRANCH   7   9
ENDBRANCH   3   7
BRANCH   6  13
HETATM   13  C   UNK N   1       0.152   2.440   0.137  0.00  0.00    -0.026 A 
HETATM   14  C   UNK N   1       1.293   3.233  -0.061  0.00  0.00     0.012 A 
HETATM   15  C   UNK N   1       1.193   4.628  -0.057  0.00  0.00     0.001 A 
HETATM   16  C   UNK N   1      -0.048   5.241   0.132  0.00  0.00     0.000 A 
HETATM   17  C   UNK N   1      -1.190   4.461   0.322  0.00  0.00     0.001 A 
HETATM   18  C   UNK N   1      -1.091   3.068   0.329  0.00  0.00     0.012 A 
ENDBRANCH   6  13
TORSDOF 4
