REMARK  12 active torsions:
REMARK  status: ('A' for Active; 'I' for Inactive)
REMARK    1  A    between atoms: C_2  and  N_3 
REMARK    2  A    between atoms: C_2  and  P_4 
REMARK    3  A    between atoms: P_4  and  O_6 
REMARK    4  A    between atoms: P_4  and  C_7 
REMARK    5  A    between atoms: C_7  and  C_8 
REMARK    6  A    between atoms: C_8  and  C_9 
REMARK    7  A    between atoms: C_8  and  C_17 
REMARK       I    between atoms: C_9  and  N_11 
REMARK    8  A    between atoms: N_11  and  C_12 
REMARK    9  A    between atoms: C_12  and  C_14 
REMARK   10  A    between atoms: C_14  and  O_15 
REMARK   11  A    between atoms: C_17  and  C_18 
REMARK   12  A    between atoms: C_21  and  C_24 
ROOT
HETATM    1  C   UNK N   1      -2.071   0.244  -0.941  0.00  0.00     0.091 C 
ENDROOT
BRANCH   1   2
HETATM    2  C   UNK N   1      -3.551  -0.146  -0.823  0.00  0.00     0.110 C 
BRANCH   2   3
HETATM    3  P   UNK N   1      -3.947  -1.478   0.431  0.00  0.00     0.121 P 
HETATM    4  O   UNK N   1      -2.831  -1.502   1.511  0.00  0.00    -0.672 OA
BRANCH   3   5
HETATM    5  C   UNK N   1      -4.109  -3.178  -0.303  0.00  0.00     0.153 C 
HETATM    6  C   UNK N   1      -4.205  -4.221   0.788  0.00  0.00     0.042 C 
BRANCH   5   7
HETATM    7  N   UNK N   1      -5.302  -3.226  -1.128  0.00  0.00    -0.419 N 
HETATM    8  H   UNK N   1      -5.750  -2.517  -1.709  0.00  0.00     0.150 HD
HETATM    9  H   UNK N   1      -5.776  -4.129  -1.128  0.00  0.00     0.150 HD
ENDBRANCH   5   7
ENDBRANCH   3   5
BRANCH   3  10
HETATM   10  O   UNK N   1      -5.360  -1.072   1.354  0.00  0.00    -0.348 OA
HETATM   11  H   UNK N   1      -5.558  -0.274   1.870  0.00  0.00     0.218 HD
ENDBRANCH   3  10
ENDBRANCH   2   3
ENDBRANCH   1   2
BRANCH   1  12
HETATM   12  C   UNK N   1      -1.098  -0.914  -0.712  0.00  0.00     0.223 C 
HETATM   13  O   UNK N   1      -1.174  -1.894  -1.445  0.00  0.00    -0.273 OA
HETATM   14  N   UNK N   1      -0.150  -0.853   0.269  0.00  0.00    -0.347 N 
HETATM   15  H   UNK N   1      -0.117  -0.013   0.781  0.00  0.00     0.163 HD
BRANCH  14  16
HETATM   16  C   UNK N   1       0.823  -1.876   0.657  0.00  0.00     0.178 C 
HETATM   17  C   UNK N   1       0.588  -3.246   0.029  0.00  0.00     0.043 C 
BRANCH  16  18
HETATM   18  C   UNK N   1       2.210  -1.409   0.324  0.00  0.00     0.163 C 
HETATM   19  O   UNK N   1       2.526  -1.195  -0.836  0.00  0.00    -0.648 OA
BRANCH  18  20
HETATM   20  O   UNK N   1       3.118  -1.233   1.304  0.00  0.00    -0.775 OA
HETATM   21  H   UNK N   1       3.540  -1.718   1.985  0.00  0.00     0.167 HD
ENDBRANCH  18  20
ENDBRANCH  16  18
ENDBRANCH  14  16
ENDBRANCH   1  12
BRANCH   1  22
HETATM   22  C   UNK N   1      -1.883   1.481  -0.045  0.00  0.00     0.053 C 
BRANCH  22  23
HETATM   23  C   UNK N   1      -0.491   2.009  -0.045  0.00  0.00    -0.057 A 
HETATM   24  C   UNK N   1       0.165   2.151   1.175  0.00  0.00     0.008 A 
HETATM   25  C   UNK N   1       1.513   2.487   1.205  0.00  0.00     0.013 A 
HETATM   26  C   UNK N   1       2.220   2.696   0.012  0.00  0.00    -0.026 A 
HETATM   27  C   UNK N   1       1.542   2.612  -1.215  0.00  0.00     0.013 A 
HETATM   28  C   UNK N   1       0.189   2.267  -1.244  0.00  0.00     0.008 A 
BRANCH  26  29
HETATM   29  C   UNK N   1       3.686   2.866   0.052  0.00  0.00    -0.026 A 
HETATM   30  C   UNK N   1       4.411   3.160  -1.113  0.00  0.00     0.012 A 
HETATM   31  C   UNK N   1       5.807   3.220  -1.077  0.00  0.00     0.001 A 
HETATM   32  C   UNK N   1       6.488   2.961   0.116  0.00  0.00     0.000 A 
HETATM   33  C   UNK N   1       5.775   2.663   1.278  0.00  0.00     0.001 A 
HETATM   34  C   UNK N   1       4.381   2.621   1.247  0.00  0.00     0.012 A 
ENDBRANCH  26  29
ENDBRANCH  22  23
ENDBRANCH   1  22
TORSDOF 12
