REMARK  2 active torsions:
REMARK  status: ('A' for Active; 'I' for Inactive)
REMARK    1  A    between atoms: C_10  and  O_14 
REMARK    2  A    between atoms: N_17  and  C_18 
ROOT
HETATM    1  O   UNK N   1       0.894   3.622  -0.676  0.00  0.00    -0.288 OA
HETATM    2  C   UNK N   1       0.808   2.427  -0.432  0.00  0.00     0.203 C 
HETATM    3  C   UNK N   1       2.021   1.597  -0.293  0.00  0.00     0.041 A 
HETATM    4  C   UNK N   1       3.300   2.165  -0.354  0.00  0.00     0.024 A 
HETATM    5  C   UNK N   1       4.430   1.367  -0.155  0.00  0.00    -0.061 A 
HETATM    6  C   UNK N   1       5.784   1.978  -0.189  0.00  0.00     0.048 C 
HETATM    7  C   UNK N   1       4.287  -0.002   0.093  0.00  0.00     0.009 A 
HETATM    8  C   UNK N   1       1.878   0.218  -0.034  0.00  0.00     0.047 A 
HETATM    9  C   UNK N   1       3.014  -0.577   0.143  0.00  0.00     0.031 A 
HETATM   10  C   UNK N   1      -0.514   1.824  -0.051  0.00  0.00     0.182 C 
HETATM   11  C   UNK N   1      -0.491   0.339  -0.006  0.00  0.00     0.128 C 
HETATM   12  N   UNK N   1       0.585  -0.376   0.000  0.00  0.00    -0.342 N 
ATOM     13  HN  UNK N   1       0.506  -1.392   0.032  1.00  0.00     0.167 HD
HETATM   14  C   UNK N   1      -1.716   2.037  -0.978  0.00  0.00     0.075 C 
HETATM   15  C   UNK N   1      -2.668   0.848  -0.665  0.00  0.00     0.134 C 
HETATM   16  N   UNK N   1      -1.774  -0.189  -0.217  0.00  0.00    -0.334 N 
ENDROOT
BRANCH  16  17
HETATM   17  C   UNK N   1      -2.162  -1.561  -0.098  0.00  0.00     0.035 A 
HETATM   18  C   UNK N   1      -1.221  -2.559   0.206  0.00  0.00     0.029 A 
HETATM   19  C   UNK N   1      -1.618  -3.893   0.338  0.00  0.00     0.002 A 
HETATM   20  C   UNK N   1      -2.961  -4.241   0.180  0.00  0.00     0.000 A 
HETATM   21  C   UNK N   1      -3.907  -3.258  -0.117  0.00  0.00     0.002 A 
HETATM   22  C   UNK N   1      -3.509  -1.925  -0.259  0.00  0.00     0.029 A 
ENDBRANCH  16  17
BRANCH  10  23
HETATM   23  O   UNK N   1      -0.865   2.301   1.214  0.00  0.00    -0.374 OA
HETATM   24  H   UNK N   1      -0.701   2.677   2.092  0.00  0.00     0.211 HD
ENDBRANCH  10  23
TORSDOF 2
