REMARK  3 active torsions:
REMARK  status: ('A' for Active; 'I' for Inactive)
REMARK    1  A    between atoms: C_1  and  C_9 
REMARK    2  A    between atoms: C_2  and  O_3 
REMARK    3  A    between atoms: C_4  and  O_5 
ROOT
HETATM    1  C   UNK N   1      -0.354  -0.474  -0.002  0.00  0.00     0.012 A 
HETATM    2  C   UNK N   1       0.914  -1.126   0.071  0.00  0.00     0.110 A 
HETATM    3  C   UNK N   1       0.986  -2.526   0.138  0.00  0.00     0.099 A 
HETATM    4  C   UNK N   1      -0.178  -3.292   0.128  0.00  0.00     0.039 A 
HETATM    5  C   UNK N   1      -1.419  -2.672   0.048  0.00  0.00     0.004 A 
HETATM    6  C   UNK N   1      -1.500  -1.284  -0.014  0.00  0.00     0.015 A 
ENDROOT
BRANCH   1   7
HETATM    7  C   UNK N   1      -0.494   1.031  -0.038  0.00  0.00    -0.001 A 
HETATM    8  C   UNK N   1      -1.750   1.720  -0.080  0.00  0.00     0.045 A 
HETATM    9  C   UNK N   1      -1.776   3.118  -0.076  0.00  0.00     0.024 A 
HETATM   10 Cl   UNK N   1      -3.327   0.933  -0.129  0.00  0.00    -0.083 Cl
HETATM   11  C   UNK N   1      -0.598   3.858  -0.036  0.00  0.00     0.002 A 
HETATM   12  C   UNK N   1       0.628   3.206  -0.005  0.00  0.00     0.001 A 
HETATM   13  C   UNK N   1       0.674   1.815  -0.004  0.00  0.00     0.014 A 
ENDBRANCH   1   7
BRANCH   2  14
HETATM   14  O   UNK N   1       2.065  -0.427   0.085  0.00  0.00    -0.357 OA
HETATM   15  H   UNK N   1       2.887  -0.878   0.095  0.00  0.00     0.217 HD
ENDBRANCH   2  14
BRANCH   3  16
HETATM   16  O   UNK N   1       2.178  -3.138   0.218  0.00  0.00    -0.358 OA
HETATM   17  H   UNK N   1       2.225  -4.072   0.275  0.00  0.00     0.217 HD
ENDBRANCH   3  16
TORSDOF 3
