REMARK  6 active torsions:
REMARK  status: ('A' for Active; 'I' for Inactive)
REMARK    1  A    between atoms: O_6  and  C_23 
REMARK    2  A    between atoms: O_8  and  C_30 
REMARK    3  A    between atoms: N_9  and  C_15 
REMARK    4  A    between atoms: C_10  and  C_11 
REMARK    5  A    between atoms: C_21  and  C_23 
REMARK    6  A    between atoms: C_28  and  C_30 
ROOT
HETATM    1  O   UNK N   1      -0.236   2.443  -0.044  0.00  0.00    -0.304 OA
HETATM    2  N   UNK N   1      -0.218  -0.373   0.042  0.00  0.00    -0.306 N 
HETATM    3  C   UNK N   1       1.015   0.402   0.041  0.00  0.00     0.075 A 
HETATM    4  C   UNK N   1       2.282  -0.206   0.103  0.00  0.00     0.033 A 
HETATM    5  C   UNK N   1       3.455   0.536   0.112  0.00  0.00     0.003 A 
HETATM    6  C   UNK N   1       3.393   1.920   0.057  0.00  0.00     0.021 A 
HETATM    7  C   UNK N   1       2.161   2.578  -0.003  0.00  0.00     0.073 A 
HETATM    8  C   UNK N   1       0.961   1.816  -0.005  0.00  0.00     0.120 A 
HETATM    9  C   UNK N   1      -1.460   0.381   0.055  0.00  0.00     0.075 A 
HETATM   10  C   UNK N   1      -2.716  -0.248   0.112  0.00  0.00     0.033 A 
HETATM   11  C   UNK N   1      -3.899   0.484   0.126  0.00  0.00     0.003 A 
HETATM   12  C   UNK N   1      -3.856   1.871   0.075  0.00  0.00     0.021 A 
HETATM   13  C   UNK N   1      -2.633   2.545   0.012  0.00  0.00     0.073 A 
HETATM   14  C   UNK N   1      -1.425   1.798   0.006  0.00  0.00     0.120 A 
ENDROOT
BRANCH   2  15
HETATM   15  C   UNK N   1      -0.198  -1.841   0.043  0.00  0.00     0.041 A 
HETATM   16  C   UNK N   1      -1.373  -2.609   0.175  0.00  0.00     0.030 A 
HETATM   17  C   UNK N   1      -1.335  -4.008   0.201  0.00  0.00     0.003 A 
HETATM   18  C   UNK N   1      -0.115  -4.677   0.101  0.00  0.00     0.016 A 
HETATM   19  C   UNK N   1       1.066  -3.947  -0.048  0.00  0.00     0.050 A 
HETATM   20  C   UNK N   1       1.007  -2.553  -0.079  0.00  0.00     0.046 A 
BRANCH  19  21
HETATM   21  C   UNK N   1       2.391  -4.647  -0.145  0.00  0.00     0.417 C 
HETATM   22  F   UNK N   1       2.640  -5.324   1.034  0.00  0.00    -0.166 F 
HETATM   23  F   UNK N   1       3.417  -3.740  -0.360  0.00  0.00    -0.166 F 
HETATM   24  F   UNK N   1       2.372  -5.548  -1.194  0.00  0.00    -0.166 F 
ENDBRANCH  19  21
ENDBRANCH   2  15
BRANCH   7  25
HETATM   25  C   UNK N   1       2.173   4.060  -0.058  0.00  0.00     0.179 C 
HETATM   26  O   UNK N   1       1.135   4.695  -0.119  0.00  0.00    -0.646 OA
BRANCH  25  27
HETATM   27  O   UNK N   1       3.348   4.722  -0.045  0.00  0.00    -0.773 OA
HETATM   28  H   UNK N   1       4.154   4.246  -0.036  0.00  0.00     0.167 HD
ENDBRANCH  25  27
ENDBRANCH   7  25
BRANCH  13  29
HETATM   29  C   UNK N   1      -2.657   4.030  -0.047  0.00  0.00     0.179 C 
HETATM   30  O   UNK N   1      -1.624   4.673  -0.117  0.00  0.00    -0.646 OA
BRANCH  29  31
HETATM   31  O   UNK N   1      -3.836   4.684  -0.031  0.00  0.00    -0.773 OA
HETATM   32  H   UNK N   1      -3.852   5.621  -0.019  0.00  0.00     0.167 HD
ENDBRANCH  29  31
ENDBRANCH  13  29
TORSDOF 6
