REMARK  3 active torsions:
REMARK  status: ('A' for Active; 'I' for Inactive)
REMARK    1  A    between atoms: C_2  and  C_7 
REMARK    2  A    between atoms: C_3  and  O_14 
REMARK    3  A    between atoms: C_4  and  O_13 
ROOT
HETATM    1  C   UNK N   1      -1.970   0.622  -0.000  0.00  0.00     0.015 A 
HETATM    2  C   UNK N   1      -0.771  -0.113  -0.000  0.00  0.00     0.010 A 
HETATM    3  C   UNK N   1      -0.843  -1.529  -0.000  0.00  0.00     0.110 A 
HETATM    4  C   UNK N   1      -2.092  -2.166   0.000  0.00  0.00     0.099 A 
HETATM    5  C   UNK N   1      -3.266  -1.411   0.000  0.00  0.00     0.039 A 
HETATM    6  C   UNK N   1      -3.206  -0.020   0.000  0.00  0.00     0.004 A 
ENDROOT
BRANCH   2   7
HETATM    7  C   UNK N   1       0.517   0.634  -0.000  0.00  0.00    -0.023 A 
HETATM    8  C   UNK N   1       0.503   2.039  -0.000  0.00  0.00     0.012 A 
HETATM    9  C   UNK N   1       1.696   2.763  -0.000  0.00  0.00     0.001 A 
HETATM   10  C   UNK N   1       2.919   2.091   0.000  0.00  0.00     0.000 A 
HETATM   11  C   UNK N   1       2.949   0.695   0.000  0.00  0.00     0.001 A 
HETATM   12  C   UNK N   1       1.755  -0.029   0.000  0.00  0.00     0.012 A 
ENDBRANCH   2   7
BRANCH   3  13
HETATM   13  O   UNK N   1       0.272  -2.285  -0.000  0.00  0.00    -0.357 OA
HETATM   14  H   UNK N   1       0.204  -3.220  -0.000  0.00  0.00     0.217 HD
ENDBRANCH   3  13
BRANCH   4  15
HETATM   15  O   UNK N   1      -2.166  -3.506   0.000  0.00  0.00    -0.358 OA
HETATM   16  H   UNK N   1      -3.003  -3.929   0.000  0.00  0.00     0.217 HD
ENDBRANCH   4  15
TORSDOF 3
