REMARK  12 active torsions:
REMARK  status: ('A' for Active; 'I' for Inactive)
REMARK    1  A    between atoms: C_1  and  O_3 
REMARK    2  A    between atoms: C_1  and  C_4 
REMARK    3  A    between atoms: C_4  and  C_5 
REMARK    4  A    between atoms: C_5  and  C_6 
REMARK    5  A    between atoms: C_6  and  C_7 
REMARK    6  A    between atoms: C_7  and  C_8 
REMARK    7  A    between atoms: C_8  and  C_9 
REMARK    8  A    between atoms: C_9  and  C_10 
REMARK    9  A    between atoms: C_10  and  C_11 
REMARK   10  A    between atoms: C_11  and  C_12 
REMARK   11  A    between atoms: C_12  and  C_13 
REMARK   12  A    between atoms: C_13  and  C_14 
ROOT
HETATM    1  C   UNK N   1      -1.861   0.134  -0.000  0.00  0.00     0.000 C 
ENDROOT
BRANCH   1   2
HETATM    2  C   UNK N   1      -3.098  -0.728  -0.000  0.00  0.00     0.001 C 
BRANCH   2   3
HETATM    3  C   UNK N   1      -4.284   0.201   0.000  0.00  0.00     0.010 C 
BRANCH   3   4
HETATM    4  C   UNK N   1      -5.577  -0.586   0.000  0.00  0.00     0.110 C 
BRANCH   4   5
HETATM    5  C   UNK N   1      -6.761   0.332  -0.000  0.00  0.00     0.139 C 
HETATM    6  O   UNK N   1      -7.885  -0.139  -0.000  0.00  0.00    -0.650 OA
BRANCH   5   7
HETATM    7  O   UNK N   1      -6.600   1.672   0.000  0.00  0.00    -0.776 OA
HETATM    8  H   UNK N   1      -5.739   2.040   0.000  0.00  0.00     0.167 HD
ENDBRANCH   5   7
ENDBRANCH   4   5
ENDBRANCH   3   4
ENDBRANCH   2   3
ENDBRANCH   1   2
BRANCH   1   9
HETATM    9  C   UNK N   1      -0.628  -0.730  -0.000  0.00  0.00     0.000 C 
BRANCH   9  10
HETATM   10  C   UNK N   1       0.572   0.182  -0.000  0.00  0.00     0.000 C 
BRANCH  10  11
HETATM   11  C   UNK N   1       1.828  -0.650   0.000  0.00  0.00     0.000 C 
BRANCH  11  12
HETATM   12  C   UNK N   1       3.015   0.280   0.000  0.00  0.00     0.000 C 
BRANCH  12  13
HETATM   13  C   UNK N   1       4.283  -0.537   0.000  0.00  0.00     0.001 C 
BRANCH  13  14
HETATM   14  C   UNK N   1       5.463   0.404  -0.000  0.00  0.00     0.011 C 
BRANCH  14  15
HETATM   15  C   UNK N   1       6.743  -0.397   0.000  0.00  0.00     0.085 C 
HETATM   16 Br   UNK N   1       8.240   0.822  -0.000  0.00  0.00    -0.097 Br
ENDBRANCH  14  15
ENDBRANCH  13  14
ENDBRANCH  12  13
ENDBRANCH  11  12
ENDBRANCH  10  11
ENDBRANCH   9  10
ENDBRANCH   1   9
TORSDOF 12
