REMARK  5 active torsions:
REMARK  status: ('A' for Active; 'I' for Inactive)
REMARK    1  A    between atoms: C_3  and  S_11 
REMARK    2  A    between atoms: C_6  and  C_7 
REMARK       I    between atoms: C_7  and  N_9 
REMARK    3  A    between atoms: N_9  and  C_10 
REMARK    4  A    between atoms: C_10  and  C_15 
REMARK    5  A    between atoms: S_11  and  N_12 
ROOT
HETATM    1  C   UNK N   1       0.718  -0.832   0.585  0.00  0.00     0.018 A 
HETATM    2  C   UNK N   1       2.000  -1.345   0.439  0.00  0.00     0.026 A 
HETATM    3  C   UNK N   1       2.176  -2.678   0.077  0.00  0.00     0.079 A 
HETATM    4  C   UNK N   1       1.062  -3.508  -0.113  0.00  0.00     0.026 A 
HETATM    5  C   UNK N   1      -0.232  -2.990   0.029  0.00  0.00     0.018 A 
HETATM    6  C   UNK N   1      -0.408  -1.640   0.360  0.00  0.00     0.032 A 
ENDROOT
BRANCH   6   7
HETATM    7  C   UNK N   1      -1.733  -0.996   0.354  0.00  0.00     0.251 C 
HETATM    8  O   UNK N   1      -2.739  -1.613   0.021  0.00  0.00    -0.268 OA
HETATM    9  N   UNK N   1      -1.785   0.325   0.617  0.00  0.00    -0.353 N 
HETATM   10  H   UNK N   1      -0.967   0.738   0.976  0.00  0.00     0.163 HD
BRANCH   9  11
HETATM   11  C   UNK N   1      -2.917   1.192   0.424  0.00  0.00     0.161 C 
BRANCH  11  12
HETATM   12  C   UNK N   1      -2.397   2.580   0.145  0.00  0.00    -0.041 A 
HETATM   13  C   UNK N   1      -3.289   3.624  -0.114  0.00  0.00     0.009 A 
HETATM   14  C   UNK N   1      -2.805   4.913  -0.371  0.00  0.00     0.001 A 
HETATM   15  C   UNK N   1      -1.428   5.163  -0.370  0.00  0.00     0.000 A 
HETATM   16  C   UNK N   1      -0.531   4.127  -0.113  0.00  0.00     0.001 A 
HETATM   17  C   UNK N   1      -1.012   2.844   0.142  0.00  0.00     0.009 A 
ENDBRANCH  11  12
ENDBRANCH   9  11
ENDBRANCH   6   7
BRANCH   3  18
HETATM   18  S   UNK N   1       3.814  -3.258  -0.326  0.00  0.00     0.256 S 
HETATM   19  O   UNK N   1       4.847  -2.119  -0.351  0.00  0.00    -0.201 OA
HETATM   20  O   UNK N   1       3.875  -3.745  -1.781  0.00  0.00    -0.201 OA
BRANCH  18  21
HETATM   21  N   UNK N   1       4.559  -4.544   0.622  0.00  0.00    -0.324 N 
HETATM   22  H   UNK N   1       4.130  -5.289   1.170  0.00  0.00     0.169 HD
HETATM   23  H   UNK N   1       5.579  -4.543   0.622  0.00  0.00     0.169 HD
ENDBRANCH  18  21
ENDBRANCH   3  18
TORSDOF 5
