REMARK  6 active torsions:
REMARK  status: ('A' for Active; 'I' for Inactive)
REMARK    1  A    between atoms: C_1  and  O_3 
REMARK    2  A    between atoms: C_1  and  C_4 
REMARK    3  A    between atoms: C_4  and  C_5 
REMARK    4  A    between atoms: C_4  and  C_12 
REMARK    5  A    between atoms: C_5  and  C_6 
REMARK    6  A    between atoms: C_12  and  S_13 
ROOT
HETATM    1  C   UNK N   1       1.152   0.641   0.396  0.00  0.00     0.097 C 
ENDROOT
BRANCH   1   2
HETATM    2  C   UNK N   1       2.285   1.532  -0.054  0.00  0.00     0.144 C 
HETATM    3  O   UNK N   1       2.151   2.752  -0.087  0.00  0.00    -0.650 OA
BRANCH   2   4
HETATM    4  O   UNK N   1       3.461   0.992  -0.413  0.00  0.00    -0.776 OA
HETATM    5  H   UNK N   1       3.546   0.093  -0.663  0.00  0.00     0.167 HD
ENDBRANCH   2   4
ENDBRANCH   1   2
BRANCH   1   6
HETATM    6  C   UNK N   1       0.801  -0.338  -0.739  0.00  0.00     0.054 C 
BRANCH   6   7
HETATM    7  C   UNK N   1      -0.368  -1.223  -0.432  0.00  0.00    -0.057 A 
HETATM    8  C   UNK N   1      -0.172  -2.512   0.074  0.00  0.00     0.007 A 
HETATM    9  C   UNK N   1      -1.275  -3.329   0.351  0.00  0.00     0.001 A 
HETATM   10  C   UNK N   1      -2.572  -2.858   0.117  0.00  0.00     0.000 A 
HETATM   11  C   UNK N   1      -2.767  -1.576  -0.400  0.00  0.00     0.001 A 
HETATM   12  C   UNK N   1      -1.667  -0.763  -0.678  0.00  0.00     0.007 A 
ENDBRANCH   6   7
ENDBRANCH   1   6
BRANCH   1  13
HETATM   13  C   UNK N   1      -0.069   1.435   0.896  0.00  0.00     0.086 C 
BRANCH  13  14
HETATM   14  S   UNK N   1      -0.886   2.433  -0.396  0.00  0.00    -0.181 SA
HETATM   15  H   UNK N   1      -0.546   3.332  -1.359  0.00  0.00     0.101 HD
ENDBRANCH  13  14
ENDBRANCH   1  13
TORSDOF 6
