REMARK  9 active torsions:
REMARK  status: ('A' for Active; 'I' for Inactive)
REMARK    1  A    between atoms: C_1  and  C_2 
REMARK    2  A    between atoms: C_1  and  C_5 
REMARK    3  A    between atoms: C_1  and  C_12 
REMARK    4  A    between atoms: C_2  and  O_4 
REMARK    5  A    between atoms: C_5  and  C_6 
REMARK    6  A    between atoms: C_12  and  C_13 
REMARK    7  A    between atoms: C_12  and  C_16 
REMARK    8  A    between atoms: C_13  and  O_15 
REMARK    9  A    between atoms: C_16  and  C_17 
ROOT
HETATM    1  C   UNK N   1      -0.303  -0.818  -0.566  0.00  0.00     0.102 C 
ENDROOT
BRANCH   1   2
HETATM    2  C   UNK N   1      -1.204   0.281   0.080  0.00  0.00     0.102 C 
BRANCH   2   3
HETATM    3  C   UNK N   1      -0.919   1.691  -0.454  0.00  0.00     0.145 C 
HETATM    4  O   UNK N   1      -0.147   1.876  -1.382  0.00  0.00    -0.650 OA
BRANCH   3   5
HETATM    5  O   UNK N   1      -1.480   2.762   0.136  0.00  0.00    -0.776 OA
HETATM    6  H   UNK N   1      -1.030   3.473   0.546  0.00  0.00     0.167 HD
ENDBRANCH   3   5
ENDBRANCH   2   3
BRANCH   2   7
HETATM    7  C   UNK N   1      -2.636  -0.163  -0.288  0.00  0.00     0.054 C 
BRANCH   7   8
HETATM    8  C   UNK N   1      -3.891   0.602  -0.043  0.00  0.00    -0.057 A 
HETATM    9  C   UNK N   1      -5.059   0.097  -0.624  0.00  0.00     0.007 A 
HETATM   10  C   UNK N   1      -6.271   0.771  -0.478  0.00  0.00     0.001 A 
HETATM   11  C   UNK N   1      -6.319   1.960   0.251  0.00  0.00     0.000 A 
HETATM   12  C   UNK N   1      -5.157   2.467   0.841  0.00  0.00     0.001 A 
HETATM   13  C   UNK N   1      -3.944   1.786   0.697  0.00  0.00     0.007 A 
ENDBRANCH   7   8
ENDBRANCH   2   7
ENDBRANCH   1   2
BRANCH   1  14
HETATM   14  C   UNK N   1      -0.522  -2.223  -0.006  0.00  0.00     0.145 C 
HETATM   15  O   UNK N   1       0.401  -2.889   0.423  0.00  0.00    -0.650 OA
BRANCH  14  16
HETATM   16  O   UNK N   1      -1.751  -2.772  -0.038  0.00  0.00    -0.776 OA
HETATM   17  H   UNK N   1      -2.510  -2.223  -0.060  0.00  0.00     0.167 HD
ENDBRANCH  14  16
ENDBRANCH   1  14
BRANCH   1  18
HETATM   18  C   UNK N   1       1.146  -0.364  -0.753  0.00  0.00     0.054 C 
BRANCH  18  19
HETATM   19  C   UNK N   1       2.406  -0.503   0.020  0.00  0.00    -0.054 A 
HETATM   20  C   UNK N   1       3.458   0.267  -0.491  0.00  0.00     0.047 A 
HETATM   21  C   UNK N   1       4.752  -0.117  -0.199  0.00  0.00     0.105 A 
HETATM   22  O   UNK N   1       5.877   0.406  -0.661  0.00  0.00    -0.323 OA
HETATM   23  C   UNK N   1       5.021  -1.190   0.549  0.00  0.00     0.105 A 
HETATM   24  C   UNK N   1       6.941  -0.386  -0.216  0.00  0.00     0.352 A 
HETATM   25  O   UNK N   1       6.341  -1.378   0.567  0.00  0.00    -0.323 OA
HETATM   26  C   UNK N   1       4.024  -1.962   1.136  0.00  0.00     0.040 A 
HETATM   27  C   UNK N   1       2.688  -1.620   0.841  0.00  0.00     0.010 A 
ENDBRANCH  18  19
ENDBRANCH   1  18
TORSDOF 9
