REMARK  16 active torsions:
REMARK  status: ('A' for Active; 'I' for Inactive)
REMARK    1  A    between atoms: C_1  and  C_2 
REMARK    2  A    between atoms: C_1  and  S_19 
REMARK    3  A    between atoms: C_2  and  C_3 
REMARK    4  A    between atoms: C_3  and  N_8 
REMARK    5  A    between atoms: C_5  and  C_6 
REMARK    6  A    between atoms: C_6  and  C_7 
REMARK    7  A    between atoms: C_7  and  C_11 
REMARK    8  A    between atoms: N_8  and  C_18 
REMARK    9  A    between atoms: C_11  and  C_12 
REMARK   10  A    between atoms: C_12  and  C_13 
REMARK   11  A    between atoms: C_13  and  C_14 
REMARK   12  A    between atoms: C_14  and  C_15 
REMARK   13  A    between atoms: C_15  and  C_16 
REMARK   14  A    between atoms: C_16  and  C_17 
REMARK   15  A    between atoms: C_17  and  C_18 
REMARK   16  A    between atoms: S_19  and  O_22 
ROOT
HETATM    1  C   UNK N   1       2.298  -0.100   0.534  0.00  0.00     0.236 C 
ENDROOT
BRANCH   1   2
HETATM    2  N   UNK N   1       3.541   0.021  -0.231  0.00  0.00    -0.075 N 
HETATM    3  C   UNK N   1       3.758  -1.193  -1.010  0.00  0.00     0.272 C 
HETATM    4  C   UNK N   1       3.478   1.176  -1.129  0.00  0.00     0.272 C 
BRANCH   2   5
HETATM    5  C   UNK N   1       4.621   0.176   0.746  0.00  0.00     0.237 C 
BRANCH   5   6
HETATM    6  C   UNK N   1       5.971   0.555   0.135  0.00  0.00     0.044 C 
BRANCH   6   7
HETATM    7  C   UNK N   1       6.393   1.912   0.686  0.00  0.00     0.157 C 
BRANCH   7   8
HETATM    8  S   UNK N   1       6.394   3.170  -0.632  0.00  0.00     0.094 S 
HETATM    9  O   UNK N   1       6.453   4.647  -0.214  0.00  0.00    -0.601 OA
HETATM   10  O   UNK N   1       7.766   3.150   0.060  0.00  0.00    -0.601 OA
BRANCH   8  11
HETATM   11  O   UNK N   1       5.225   3.300   0.620  0.00  0.00    -0.296 OA
HETATM   12  H   UNK N   1       4.958   3.908   1.327  0.00  0.00     0.232 HD
ENDBRANCH   8  11
ENDBRANCH   7   8
ENDBRANCH   6   7
ENDBRANCH   5   6
ENDBRANCH   2   5
ENDBRANCH   1   2
BRANCH   1  13
HETATM   13  C   UNK N   1       1.040  -0.076  -0.337  0.00  0.00     0.028 C 
BRANCH  13  14
HETATM   14  C   UNK N   1      -0.191  -0.439   0.479  0.00  0.00     0.002 C 
BRANCH  14  15
HETATM   15  C   UNK N   1      -0.231  -1.929   0.787  0.00  0.00     0.000 C 
BRANCH  15  16
HETATM   16  C   UNK N   1      -0.298  -2.735  -0.502  0.00  0.00     0.000 C 
BRANCH  16  17
HETATM   17  C   UNK N   1      -0.447  -4.216  -0.212  0.00  0.00     0.000 C 
BRANCH  17  18
HETATM   18  C   UNK N   1      -1.889  -4.517   0.141  0.00  0.00     0.000 C 
BRANCH  18  19
HETATM   19  C   UNK N   1      -2.160  -6.001   0.017  0.00  0.00     0.000 C 
BRANCH  19  20
HETATM   20  C   UNK N   1      -3.646  -6.226   0.198  0.00  0.00     0.000 C 
BRANCH  20  21
HETATM   21  C   UNK N   1      -3.995  -7.680  -0.030  0.00  0.00    -0.000 C 
BRANCH  21  22
HETATM   22  C   UNK N   1      -5.501  -7.832   0.041  0.00  0.00    -0.005 C 
HETATM   23  C   UNK N   1      -5.876  -9.295  -0.068  0.00  0.00     0.005 C 
ENDBRANCH  21  22
ENDBRANCH  20  21
ENDBRANCH  19  20
ENDBRANCH  18  19
ENDBRANCH  17  18
ENDBRANCH  16  17
ENDBRANCH  15  16
ENDBRANCH  14  15
ENDBRANCH  13  14
ENDBRANCH   1  13
TORSDOF 16
