REMARK  1 active torsions:
REMARK  status: ('A' for Active; 'I' for Inactive)
REMARK    1  A    between atoms: C_6  and  O_7 
ROOT
HETATM    1  C   UNK N   1      -0.540  -0.927  -0.823  0.00  0.00     0.026 C 
HETATM    2  C   UNK N   1      -1.339  -1.275   0.387  0.00  0.00     0.136 C 
HETATM    3  O   UNK N   1      -2.302  -2.027   0.400  0.00  0.00    -0.297 OA
HETATM    4  C   UNK N   1      -0.975  -0.375   1.512  0.00  0.00     0.087 C 
HETATM    5  C   UNK N   1       0.063   0.512   0.769  0.00  0.00     0.030 C 
HETATM    6  C   UNK N   1       1.339  -0.344   0.575  0.00  0.00     0.124 C 
HETATM    7  C   UNK N   1       0.904  -1.356  -0.502  0.00  0.00     0.049 C 
HETATM    8  C   UNK N   1      -0.504   0.599  -0.670  0.00  0.00    -0.027 C 
HETATM    9  C   UNK N   1      -1.877   1.280  -0.742  0.00  0.00     0.016 C 
HETATM   10  C   UNK N   1       0.399   1.310  -1.681  0.00  0.00     0.016 C 
HETATM   11  C   UNK N   1      -1.061  -1.489  -2.137  0.00  0.00     0.024 C 
ENDROOT
BRANCH   6  12
HETATM   12  O   UNK N   1       2.389   0.434   0.080  0.00  0.00    -0.395 OA
HETATM   13  H   UNK N   1       3.221   0.073  -0.264  0.00  0.00     0.210 HD
ENDBRANCH   6  12
TORSDOF 1
