REMARK  4 active torsions:
REMARK  status: ('A' for Active; 'I' for Inactive)
REMARK    1  A    between atoms: O_1  and  C_2 
REMARK    2  A    between atoms: C_2  and  O_3 
REMARK    3  A    between atoms: C_2  and  C_4 
REMARK    4  A    between atoms: C_5  and  C_4 
ROOT
HETATM    1  C   UNK N   1       0.407   0.508   0.149  0.00  0.00     0.011 C 
HETATM    2  C   UNK N   1       0.106  -0.987  -0.098  0.00  0.00    -0.033 C 
HETATM    3  C   UNK N   1       1.000  -1.919   0.706  0.00  0.00     0.016 C 
HETATM    4  C   UNK N   1       0.294  -1.309  -1.590  0.00  0.00     0.016 C 
HETATM    5  C   UNK N   1      -1.380  -1.102   0.314  0.00  0.00     0.059 C 
HETATM    6  C   UNK N   1      -2.110  -2.270  -0.344  0.00  0.00     0.018 C 
HETATM    7  C   UNK N   1      -1.897   0.231  -0.107  0.00  0.00     0.131 C 
HETATM    8  O   UNK N   1      -3.075   0.543  -0.042  0.00  0.00    -0.298 OA
HETATM    9  C   UNK N   1      -0.827   1.214  -0.426  0.00  0.00     0.084 C 
ENDROOT
BRANCH   1  10
HETATM   10  C   UNK N   1       1.715   0.997  -0.489  0.00  0.00     0.112 C 
BRANCH  10  11
HETATM   11  C   UNK N   1       2.039   2.422  -0.150  0.00  0.00     0.106 C 
BRANCH  11  12
HETATM   12  O   UNK N   1       3.240   2.725   0.375  0.00  0.00    -0.778 OA
HETATM   13  H   UNK N   1       3.841   2.106   0.740  0.00  0.00     0.167 HD
ENDBRANCH  11  12
BRANCH  11  14
HETATM   14  O   UNK N   1       1.153   3.404  -0.401  0.00  0.00    -0.778 OA
HETATM   15  H   UNK N   1       1.436   4.280  -0.575  0.00  0.00     0.167 HD
ENDBRANCH  11  14
ENDBRANCH  10  11
ENDBRANCH   1  10
TORSDOF 4
