REMARK  10 active torsions:
REMARK  status: ('A' for Active; 'I' for Inactive)
REMARK    1  A    between atoms: C_1  and  C_9 
REMARK    2  A    between atoms: C_3  and  O_8 
REMARK    3  A    between atoms: C_4  and  N_6 
REMARK    4  A    between atoms: C_5  and  O_7 
REMARK       I    between atoms: C_15  and  N_6 
REMARK    5  A    between atoms: C_9  and  O_11 
REMARK    6  A    between atoms: O_11  and  P_10 
REMARK    7  A    between atoms: O_13  and  P_10 
REMARK    8  A    between atoms: O_14  and  P_10 
REMARK    9  A    between atoms: C_17  and  C_15 
REMARK   10  A    between atoms: N_18  and  C_17 
ROOT
HETATM    1  C   UNK N   1       7.438  -9.518   0.118  0.00  0.00     0.180 C 
HETATM    2  O   UNK N   1       8.308  -9.334  -0.966  0.00  0.00    -0.354 OA
HETATM    3  C   UNK N   1       7.620 -10.943   0.617  0.00  0.00     0.182 C 
HETATM    4  C   UNK N   1       9.483  -9.995  -0.564  0.00  0.00     0.255 C 
HETATM    5  C   UNK N   1       9.066 -11.200   0.284  0.00  0.00     0.198 C 
ENDROOT
BRANCH   1   6
HETATM    6  C   UNK N   1       6.004  -9.199  -0.275  0.00  0.00     0.215 C 
BRANCH   6   7
HETATM    7  O   UNK N   1       5.489  -8.196   0.553  0.00  0.00    -0.294 OA
BRANCH   7   8
HETATM    8  P   UNK N   1       4.571  -7.165  -0.507  0.00  0.00     0.390 P 
HETATM    9  O   UNK N   1       3.805  -6.089   0.307  0.00  0.00    -0.632 OA
BRANCH   8  10
HETATM   10  O   UNK N   1       5.838  -6.234   0.230  0.00  0.00    -0.307 OA
HETATM   11  H   UNK N   1       6.642  -6.587   0.641  0.00  0.00     0.222 HD
ENDBRANCH   8  10
BRANCH   8  12
HETATM   12  O   UNK N   1       3.476  -8.087   0.480  0.00  0.00    -0.307 OA
HETATM   13  H   UNK N   1       2.725  -7.815   1.030  0.00  0.00     0.222 HD
ENDBRANCH   8  12
ENDBRANCH   7   8
ENDBRANCH   6   7
ENDBRANCH   1   6
BRANCH   3  14
HETATM   14  O   UNK N   1       6.844 -11.828  -0.135  0.00  0.00    -0.390 OA
HETATM   15  H   UNK N   1       6.042 -11.669  -0.657  0.00  0.00     0.210 HD
ENDBRANCH   3  14
BRANCH   4  16
HETATM   16  N   UNK N   1      10.427  -9.119   0.129  0.00  0.00    -0.331 N 
HETATM   17  C   UNK N   1      10.246  -7.806   0.441  0.00  0.00     0.236 C 
HETATM   18  O   UNK N   1       9.208  -7.223   0.172  0.00  0.00    -0.272 OA
HETATM   19  H   UNK N   1      11.283  -9.522   0.400  0.00  0.00     0.165 HD
BRANCH  17  20
HETATM   20  C   UNK N   1      11.344  -7.064   1.125  0.00  0.00     0.214 C 
BRANCH  20  21
HETATM   21  N   UNK N   1      11.789  -5.964   0.288  0.00  0.00    -0.422 N 
HETATM   22  H   UNK N   1      12.614  -5.848  -0.300  0.00  0.00     0.150 HD
HETATM   23  H   UNK N   1      11.161  -5.160   0.288  0.00  0.00     0.150 HD
ENDBRANCH  20  21
ENDBRANCH  17  20
ENDBRANCH   4  16
BRANCH   5  24
HETATM   24  O   UNK N   1       9.836 -11.331   1.442  0.00  0.00    -0.389 OA
HETATM   25  H   UNK N   1      10.024 -11.840   2.246  0.00  0.00     0.210 HD
ENDBRANCH   5  24
TORSDOF 10
