REMARK  4 active torsions:
REMARK  status: ('A' for Active; 'I' for Inactive)
REMARK    1  A    between atoms: C_14  and  N_11 
REMARK    2  A    between atoms: C_12  and  O_19 
REMARK    3  A    between atoms: C_16  and  C_17 
REMARK    4  A    between atoms: O_18  and  C_17 
ROOT
HETATM    1  N   UNK N   1       6.828 -15.988  -0.074  0.00  0.00    -0.318 N 
HETATM    2  C   UNK N   1       6.688 -17.349   0.041  0.00  0.00     0.185 A 
HETATM    3  N   UNK N   1       7.791 -18.154   0.119  0.00  0.00    -0.336 N 
ATOM      4  HN  UNK N   1       7.696 -19.165   0.213  1.00  0.00     0.168 HD
HETATM    5  C   UNK N   1       9.011 -17.570   0.068  0.00  0.00     0.144 A 
HETATM    6  C   UNK N   1       9.185 -16.242  -0.052  0.00  0.00     0.146 A 
HETATM    7  C   UNK N   1       8.078 -15.408  -0.120  0.00  0.00     0.277 A 
HETATM    8  N   UNK N   1      10.501 -15.954  -0.070  0.00  0.00    -0.345 N 
ATOM      9  HN  UNK N   1      10.940 -15.037  -0.155  1.00  0.00     0.167 HD
HETATM   10  C   UNK N   1      11.114 -17.169   0.050  0.00  0.00     0.188 A 
HETATM   11  N   UNK N   1      10.201 -18.171   0.139  0.00  0.00    -0.300 N 
HETATM   12  O   UNK N   1       8.199 -14.200  -0.210  0.00  0.00    -0.266 OA
HETATM   13  H   UNK N   1       6.027 -15.419  -0.123  0.00  0.00     0.169 HD
ENDROOT
BRANCH  11  14
HETATM   14  C   UNK N   1      10.390 -19.602   0.337  0.00  0.00     0.233 C 
HETATM   15  C   UNK N   1      11.809 -20.085   0.415  0.00  0.00     0.088 C 
HETATM   16  C   UNK N   1      11.534 -21.566   0.352  0.00  0.00     0.153 C 
HETATM   17  C   UNK N   1      10.206 -21.657  -0.399  0.00  0.00     0.176 C 
HETATM   18  O   UNK N   1       9.785 -20.345  -0.679  0.00  0.00    -0.356 OA
BRANCH  16  19
HETATM   19  O   UNK N   1      12.541 -22.221  -0.354  0.00  0.00    -0.393 OA
HETATM   20  H   UNK N   1      12.497 -23.056  -0.845  0.00  0.00     0.210 HD
ENDBRANCH  16  19
BRANCH  17  21
HETATM   21  C   UNK N   1       9.165 -22.352   0.472  0.00  0.00     0.198 C 
BRANCH  21  22
HETATM   22  O   UNK N   1       7.923 -22.340  -0.166  0.00  0.00    -0.398 OA
HETATM   23  H   UNK N   1       7.499 -21.589  -0.609  0.00  0.00     0.209 HD
ENDBRANCH  21  22
ENDBRANCH  17  21
ENDBRANCH  11  14
TORSDOF 4
