REMARK  5 active torsions:
REMARK  status: ('A' for Active; 'I' for Inactive)
REMARK    1  A    between atoms: C_1  and  C_7 
REMARK    2  A    between atoms: C_4  and  C_10 
REMARK    3  A    between atoms: C_8  and  C_9 
REMARK    4  A    between atoms: C_9  and  O_12 
REMARK    5  A    between atoms: C_10  and  O_14 
ROOT
HETATM    1  C   UNK N   1       0.211   0.393   0.000  0.00  0.00    -0.036 A 
HETATM    2  C   UNK N   1       0.245  -1.009   0.002  0.00  0.00     0.012 A 
HETATM    3  C   UNK N   1      -0.935  -1.746   0.002  0.00  0.00     0.019 A 
HETATM    4  C   UNK N   1      -2.173  -1.097   0.000  0.00  0.00     0.037 A 
HETATM    5  C   UNK N   1      -2.216   0.308  -0.001  0.00  0.00     0.019 A 
HETATM    6  C   UNK N   1      -1.026   1.050  -0.001  0.00  0.00     0.012 A 
ENDROOT
BRANCH   1   7
HETATM    7  C   UNK N   1       1.468   1.165  -0.001  0.00  0.00     0.018 C 
HETATM    8  C   UNK N   1       2.646   0.530   0.004  0.00  0.00     0.082 C 
BRANCH   8   9
HETATM    9  C   UNK N   1       3.939   1.225   0.000  0.00  0.00     0.165 C 
HETATM   10  O   UNK N   1       4.968   0.570   0.007  0.00  0.00    -0.647 OA
BRANCH   9  11
HETATM   11  O   UNK N   1       4.001   2.570  -0.012  0.00  0.00    -0.773 OA
HETATM   12  H   UNK N   1       4.834   3.000  -0.020  0.00  0.00     0.167 HD
ENDBRANCH   9  11
ENDBRANCH   8   9
ENDBRANCH   1   7
BRANCH   4  13
HETATM   13  C   UNK N   1      -3.417  -1.891  -0.000  0.00  0.00     0.176 C 
HETATM   14  O   UNK N   1      -3.364  -3.114   0.000  0.00  0.00    -0.646 OA
BRANCH  13  15
HETATM   15  O   UNK N   1      -4.616  -1.281  -0.001  0.00  0.00    -0.773 OA
HETATM   16  H   UNK N   1      -4.665  -0.346  -0.002  0.00  0.00     0.167 HD
ENDBRANCH  13  15
ENDBRANCH   4  13
TORSDOF 5
