REMARK  2 active torsions:
REMARK  status: ('A' for Active; 'I' for Inactive)
REMARK    1  A    between atoms: C_3  and  N_7 
REMARK       I    between atoms: N_7  and  C_8 
REMARK       I    between atoms: C_8  and  N_10 
REMARK    2  A    between atoms: N_10  and  C_11 
ROOT
HETATM    1  N   UNK N   1       0.602   1.797  -0.442  0.00  0.00    -0.338 N 
HETATM    2  C   UNK N   1       0.571   0.570   0.133  0.00  0.00     0.321 C 
HETATM    3  O   UNK N   1      -0.496   0.068   0.463  0.00  0.00    -0.247 OA
HETATM    4  N   UNK N   1       1.719  -0.147   0.240  0.00  0.00    -0.309 N 
HETATM    5  H   UNK N   1       1.482   2.229  -0.529  0.00  0.00     0.164 HD
HETATM    6  H   UNK N   1       2.577   0.335   0.243  0.00  0.00     0.170 HD
ENDROOT
BRANCH   1   7
HETATM    7  C   UNK N   1      -0.555   2.533  -0.942  0.00  0.00     0.086 C 
HETATM    8  C   UNK N   1      -0.863   3.796  -0.150  0.00  0.00     0.025 C 
HETATM    9  C   UNK N   1      -1.760   3.483   1.040  0.00  0.00     0.002 C 
HETATM   10  C   UNK N   1      -3.055   2.836   0.560  0.00  0.00     0.000 C 
HETATM   11  C   UNK N   1      -2.752   1.508  -0.122  0.00  0.00     0.002 C 
HETATM   12  C   UNK N   1      -1.809   1.711  -1.313  0.00  0.00     0.025 C 
ENDBRANCH   1   7
BRANCH   4  13
HETATM   13  C   UNK N   1       1.736  -1.569   0.347  0.00  0.00     0.036 A 
HETATM   14  C   UNK N   1       2.937  -2.239   0.607  0.00  0.00     0.031 A 
HETATM   15  C   UNK N   1       2.989  -3.639   0.531  0.00  0.00     0.020 A 
HETATM   16  C   UNK N   1       1.847  -4.367   0.174  0.00  0.00     0.006 A 
HETATM   17  I   UNK N   1       1.919  -6.456  -0.041  0.00  0.00    -0.045 I 
HETATM   18  C   UNK N   1       0.651  -3.705  -0.086  0.00  0.00     0.020 A 
HETATM   19  C   UNK N   1       0.599  -2.320  -0.006  0.00  0.00     0.031 A 
ENDBRANCH   4  13
TORSDOF 2
