REMARK  3 active torsions:
REMARK  status: ('A' for Active; 'I' for Inactive)
REMARK    1  A    between atoms: C_2  and  C_5 
REMARK    2  A    between atoms: C_10  and  N_11 
REMARK       I    between atoms: N_11  and  C_12 
REMARK    3  A    between atoms: C_19  and  C_20 
ROOT
HETATM    1  N   UNK N   1      -1.206   0.585   0.342  0.00  0.00    -0.192 N 
HETATM    2  C   UNK N   1       0.033  -0.107   0.253  0.00  0.00     0.683 A 
HETATM    3  N   UNK N   1       1.199   0.581   0.087  0.00  0.00    -0.202 N 
ATOM      4  HN  UNK N   1       1.179   1.601   0.082  1.00  0.00     0.183 HD
HETATM    5  C   UNK N   1       2.380  -0.059  -0.072  0.00  0.00     0.108 A 
HETATM    6  C   UNK N   1       2.415  -1.445  -0.085  0.00  0.00     0.049 A 
HETATM    7  N   UNK N   1       0.052  -1.468   0.237  0.00  0.00    -0.190 N 
ATOM      8  HN  UNK N   1      -0.821  -1.984   0.348  1.00  0.00     0.184 HD
HETATM    9  C   UNK N   1       1.219  -2.151   0.073  0.00  0.00     0.069 A 
HETATM   10  H   UNK N   1      -2.034   0.056   0.405  0.00  0.00     0.184 HD
ENDROOT
BRANCH   1  11
HETATM   11  C   UNK N   1      -1.308   2.004   0.345  0.00  0.00     0.049 A 
HETATM   12  C   UNK N   1      -0.252   2.808   0.802  0.00  0.00     0.031 A 
HETATM   13  C   UNK N   1      -0.312   4.194   0.680  0.00  0.00     0.018 A 
HETATM   14  C   UNK N   1      -1.424   4.799   0.087  0.00  0.00     0.048 A 
HETATM   15  C   UNK N   1      -2.501   4.003  -0.335  0.00  0.00     0.018 A 
HETATM   16  C   UNK N   1      -2.445   2.611  -0.199  0.00  0.00     0.031 A 
BRANCH  14  17
HETATM   17  C   UNK N   1      -1.423   6.283  -0.128  0.00  0.00     0.417 C 
HETATM   18  F   UNK N   1      -1.340   6.934   1.088  0.00  0.00    -0.166 F 
HETATM   19  F   UNK N   1      -2.570   6.693  -0.785  0.00  0.00    -0.166 F 
HETATM   20  F   UNK N   1      -0.326   6.625  -0.900  0.00  0.00    -0.166 F 
ENDBRANCH  14  17
ENDBRANCH   1  11
BRANCH   9  21
HETATM   21  C   UNK N   1       1.240  -3.626   0.042  0.00  0.00     0.056 A 
HETATM   22  S   UNK N   1       2.592  -4.565  -0.154  0.00  0.00    -0.073 SA
HETATM   23  C   UNK N   1       1.846  -6.033  -0.088  0.00  0.00     0.048 A 
HETATM   24  N   UNK N   1       0.511  -5.861   0.087  0.00  0.00    -0.357 N 
HETATM   25  C   UNK N   1       2.516  -7.355  -0.202  0.00  0.00     0.076 C 
HETATM   26  C   UNK N   1       0.162  -4.528   0.161  0.00  0.00     0.025 A 
ATOM     27  HN  UNK N   1      -0.157  -6.628   0.157  1.00  0.00     0.166 HD
HETATM   28  C   UNK N   1      -1.256  -4.112   0.349  0.00  0.00     0.070 C 
ENDBRANCH   9  21
TORSDOF 3
