REMARK  4 active torsions:
REMARK  status: ('A' for Active; 'I' for Inactive)
REMARK    1  A    between atoms: N_1  and  C_2 
REMARK    2  A    between atoms: C_8  and  C_9 
REMARK       I    between atoms: C_16  and  N_17 
REMARK    3  A    between atoms: N_17  and  C_18 
REMARK    4  A    between atoms: C_21  and  N_22 
ROOT
HETATM    1  C   UNK N   1      -1.860   1.627  -0.073  0.00  0.00     0.069 A 
HETATM    2  N   UNK N   1      -1.214   0.435  -0.090  0.00  0.00    -0.190 N 
ATOM      3  HN  UNK N   1      -0.195   0.427  -0.132  1.00  0.00     0.184 HD
HETATM    4  C   UNK N   1      -3.256   1.640  -0.022  0.00  0.00     0.049 A 
HETATM    5  C   UNK N   1      -3.935   0.419  -0.006  0.00  0.00     0.108 A 
HETATM    6  N   UNK N   1      -3.240  -0.751  -0.020  0.00  0.00    -0.202 N 
ATOM      7  HN  UNK N   1      -3.744  -1.638  -0.004  1.00  0.00     0.183 HD
HETATM    8  C   UNK N   1      -1.881  -0.750  -0.054  0.00  0.00     0.683 A 
HETATM    9  N   UNK N   1      -1.166  -1.986  -0.039  0.00  0.00    -0.192 N 
HETATM   10  H   UNK N   1      -1.687  -2.818  -0.108  0.00  0.00     0.184 HD
ENDROOT
BRANCH   9  11
HETATM   11  C   UNK N   1       0.255  -2.095   0.068  0.00  0.00     0.051 A 
HETATM   12  C   UNK N   1       1.056  -0.969   0.292  0.00  0.00     0.030 A 
HETATM   13  C   UNK N   1       2.440  -1.071   0.381  0.00  0.00     0.005 A 
HETATM   14  C   UNK N   1       3.049  -2.313   0.255  0.00  0.00     0.036 A 
HETATM   15  C   UNK N   1       2.276  -3.462   0.048  0.00  0.00     0.105 A 
HETATM   16  C   UNK N   1       0.872  -3.349  -0.045  0.00  0.00     0.066 A 
BRANCH  15  17
HETATM   17  N   UNK N   1       2.916  -4.725  -0.068  0.00  0.00    -0.116 N 
HETATM   18  O   UNK N   1       4.229  -4.806  -0.005  0.00  0.00    -0.532 OA
HETATM   19  O   UNK N   1       2.273  -5.718  -0.220  0.00  0.00    -0.532 OA
ENDBRANCH  15  17
ENDBRANCH   9  11
BRANCH   1  20
HETATM   20  C   UNK N   1      -1.077   2.884  -0.071  0.00  0.00     0.058 A 
HETATM   21  C   UNK N   1       0.324   3.043  -0.211  0.00  0.00     0.027 A 
HETATM   22  N   UNK N   1       0.774   4.343  -0.143  0.00  0.00    -0.340 N 
HETATM   23  C   UNK N   1       1.280   1.930  -0.435  0.00  0.00     0.070 C 
HETATM   24  C   UNK N   1      -0.241   5.218   0.047  0.00  0.00     0.143 A 
ATOM     25  HN  UNK N   1       1.754   4.614  -0.225  1.00  0.00     0.168 HD
HETATM   26  S   UNK N   1      -1.682   4.416   0.125  0.00  0.00    -0.050 SA
BRANCH  24  27
HETATM   27  N   UNK N   1      -0.064   6.609   0.166  0.00  0.00    -0.380 N 
HETATM   28  H   UNK N   1       0.841   6.989   0.250  0.00  0.00     0.158 HD
HETATM   29  H   UNK N   1      -0.847   7.206   0.166  0.00  0.00     0.158 HD
ENDBRANCH  24  27
ENDBRANCH   1  20
TORSDOF 4
