REMARK  6 active torsions:
REMARK  status: ('A' for Active; 'I' for Inactive)
REMARK       I    between atoms: C_1  and  N_20 
REMARK    1  A    between atoms: C_2  and  N_23 
REMARK    2  A    between atoms: C_5  and  N_27 
REMARK    3  A    between atoms: C_9  and  C_11 
REMARK    4  A    between atoms: C_9  and  N_27 
REMARK    5  A    between atoms: C_12  and  O_25 
REMARK    6  A    between atoms: C_15  and  O_26 
ROOT
HETATM    1  C   UNK N   1      -5.673  -2.311   0.151  0.00  0.00     0.677 A 
HETATM    2  C   UNK N   1      -4.717  -0.211  -0.377  0.00  0.00     0.127 A 
HETATM    3  C   UNK N   1      -3.440  -0.727  -0.132  0.00  0.00     0.037 A 
HETATM    4  C   UNK N   1      -2.294   0.060  -0.262  0.00  0.00     0.046 A 
HETATM    5  C   UNK N   1      -1.026  -0.459   0.053  0.00  0.00     0.031 A 
HETATM    6  C   UNK N   1      -0.925  -1.793   0.487  0.00  0.00     0.031 A 
HETATM    7  C   UNK N   1      -3.325  -2.067   0.279  0.00  0.00     0.063 A 
HETATM    8  N   UNK N   1      -4.442  -2.831   0.405  0.00  0.00    -0.191 N 
ATOM      9  HN  UNK N   1      -4.356  -3.806   0.694  1.00  0.00     0.184 HD
HETATM   10  N   UNK N   1      -6.819  -3.118   0.293  0.00  0.00    -0.234 N 
HETATM   11  N   UNK N   1      -5.805  -1.012  -0.229  0.00  0.00    -0.176 N 
ATOM     12  HN  UNK N   1      -6.735  -0.633  -0.405  1.00  0.00     0.186 HD
HETATM   13  C   UNK N   1      -2.067  -2.599   0.578  0.00  0.00     0.033 A 
HETATM   14  H   UNK N   1      -7.708  -2.707   0.393  0.00  0.00     0.174 HD
HETATM   15  H   UNK N   1      -6.731  -4.099   0.293  0.00  0.00     0.174 HD
ENDROOT
BRANCH   5  16
HETATM   16  N   UNK N   1       0.123   0.389   0.005  0.00  0.00    -0.381 N 
HETATM   17  C   UNK N   1       0.004   1.678  -0.635  0.00  0.00     0.150 C 
BRANCH  16  18
HETATM   18  C   UNK N   1       1.210   0.143   0.942  0.00  0.00     0.164 C 
BRANCH  18  19
HETATM   19  C   UNK N   1       2.603   0.434   0.448  0.00  0.00    -0.004 A 
HETATM   20  C   UNK N   1       3.064   1.752   0.220  0.00  0.00     0.076 A 
HETATM   21  C   UNK N   1       4.399   1.956  -0.171  0.00  0.00     0.040 A 
HETATM   22  C   UNK N   1       5.272   0.878  -0.301  0.00  0.00     0.039 A 
HETATM   23  C   UNK N   1       4.827  -0.428  -0.046  0.00  0.00     0.069 A 
HETATM   24  C   UNK N   1       3.494  -0.639   0.322  0.00  0.00     0.048 A 
BRANCH  20  25
HETATM   25  O   UNK N   1       2.232   2.807   0.404  0.00  0.00    -0.355 OA
HETATM   26  C   UNK N   1       2.592   4.113   0.157  0.00  0.00     0.210 C 
ENDBRANCH  20  25
BRANCH  23  27
HETATM   27  O   UNK N   1       5.664  -1.489  -0.130  0.00  0.00    -0.356 OA
HETATM   28  C   UNK N   1       7.004  -1.370  -0.426  0.00  0.00     0.210 C 
ENDBRANCH  23  27
ENDBRANCH  18  19
ENDBRANCH  16  18
ENDBRANCH   5  16
BRANCH   2  29
HETATM   29  N   UNK N   1      -4.891   1.139  -0.755  0.00  0.00    -0.384 N 
HETATM   30  H   UNK N   1      -4.137   1.714  -1.018  0.00  0.00     0.157 HD
HETATM   31  H   UNK N   1      -5.800   1.518  -0.755  0.00  0.00     0.157 HD
ENDBRANCH   2  29
TORSDOF 6
