REMARK  5 active torsions:
REMARK  status: ('A' for Active; 'I' for Inactive)
REMARK    1  A    between atoms: C_8  and  N_13 
REMARK    2  A    between atoms: C_9  and  C_10 
REMARK    3  A    between atoms: C_10  and  O_11 
REMARK       I    between atoms: N_13  and  C_14 
REMARK    4  A    between atoms: C_14  and  C_15 
REMARK    5  A    between atoms: C_15  and  O_16 
ROOT
HETATM    1  S   UNK N   1       4.317  -0.285  -0.525  0.00  0.00    -0.164 SA
HETATM    2  C   UNK N   1       2.985  -1.368   0.099  0.00  0.00     0.120 C 
HETATM    3  C   UNK N   1       1.649  -0.695   0.043  0.00  0.00     0.001 A 
HETATM    4  C   UNK N   1       1.398   0.687  -0.011  0.00  0.00    -0.024 A 
HETATM    5  C   UNK N   1       2.502   1.708  -0.032  0.00  0.00     0.051 C 
HETATM    6  C   UNK N   1       3.809   1.129   0.500  0.00  0.00     0.079 C 
HETATM    7  S   UNK N   1       0.190  -1.465   0.079  0.00  0.00    -0.074 SA
HETATM    8  C   UNK N   1      -0.817  -0.141   0.020  0.00  0.00     0.095 A 
HETATM    9  C   UNK N   1      -0.005   1.008  -0.024  0.00  0.00     0.079 A 
ENDROOT
BRANCH   8  10
HETATM   10  N   UNK N   1      -2.243  -0.151   0.019  0.00  0.00    -0.311 N 
HETATM   11  C   UNK N   1      -3.019  -1.270   0.017  0.00  0.00     0.320 C 
HETATM   12  O   UNK N   1      -2.517  -2.384   0.012  0.00  0.00    -0.261 OA
HETATM   13  H   UNK N   1      -2.702   0.720   0.020  0.00  0.00     0.170 HD
BRANCH  11  14
HETATM   14  C   UNK N   1      -4.487  -1.145   0.008  0.00  0.00     0.237 C 
HETATM   15  O   UNK N   1      -5.013  -0.044   0.013  0.00  0.00    -0.643 OA
BRANCH  14  16
HETATM   16  O   UNK N   1      -5.256  -2.251  -0.008  0.00  0.00    -0.769 OA
HETATM   17  H   UNK N   1      -6.190  -2.173  -0.020  0.00  0.00     0.168 HD
ENDBRANCH  14  16
ENDBRANCH  11  14
ENDBRANCH   8  10
BRANCH   9  18
HETATM   18  C   UNK N   1      -0.547   2.393  -0.063  0.00  0.00     0.179 C 
HETATM   19  O   UNK N   1       0.205   3.353  -0.098  0.00  0.00    -0.646 OA
BRANCH  18  20
HETATM   20  O   UNK N   1      -1.878   2.603  -0.049  0.00  0.00    -0.773 OA
HETATM   21  H   UNK N   1      -2.214   3.478  -0.040  0.00  0.00     0.167 HD
ENDBRANCH  18  20
ENDBRANCH   9  18
TORSDOF 5
