REMARK  3 active torsions:
REMARK  status: ('A' for Active; 'I' for Inactive)
REMARK    1  A    between atoms: C_13  and  C_10 
REMARK    2  A    between atoms: N_16  and  C_18 
REMARK    3  A    between atoms: C_18  and  C_20 
ROOT
HETATM    1  C   UNK N   1       1.021  -1.016  -1.470  0.00  0.00     0.173 C 
HETATM    2  C   UNK N   1       1.130   0.514  -1.439  0.00  0.00     0.163 C 
HETATM    3  O   UNK N   1       2.204  -1.594  -0.954  0.00  0.00    -0.370 OA
HETATM    4  N   UNK N   1       1.570   0.998  -0.146  0.00  0.00    -0.343 N 
HETATM    5  C   UNK N   1       2.372  -1.297   0.418  0.00  0.00     0.271 C 
HETATM    6  C   UNK N   1       2.169   0.158   0.748  0.00  0.00     0.243 C 
HETATM    7  O   UNK N   1       2.516   0.568   1.848  0.00  0.00    -0.271 OA
ENDROOT
BRANCH   1   8
HETATM    8  C   UNK N   1      -0.250  -1.557  -0.841  0.00  0.00    -0.027 A 
HETATM    9  C   UNK N   1      -1.251  -0.685  -0.366  0.00  0.00     0.020 A 
HETATM   10  C   UNK N   1      -2.461  -1.213   0.078  0.00  0.00    -0.014 A 
HETATM   11  C   UNK N   1      -2.692  -2.554   0.065  0.00  0.00     0.051 A 
HETATM   12  C   UNK N   1      -3.637  -0.405   0.521  0.00  0.00     0.204 A 
HETATM   13  N   UNK N   1      -3.982  -2.913   0.472  0.00  0.00    -0.279 N 
HETATM   14  C   UNK N   1      -1.709  -3.453  -0.365  0.00  0.00     0.031 A 
HETATM   15  S   UNK N   1      -5.047  -1.568   0.919  0.00  0.00     0.236 S 
HETATM   16  C   UNK N   1      -4.389  -4.290   0.618  0.00  0.00     0.169 C 
HETATM   17  O   UNK N   1      -6.175  -2.202   0.086  0.00  0.00    -0.205 OA
HETATM   18  O   UNK N   1      -5.054  -0.867  -0.454  0.00  0.00    -0.205 OA
HETATM   19  C   UNK N   1      -0.486  -2.946  -0.830  0.00  0.00     0.012 A 
ENDBRANCH   1   8
BRANCH   4  20
HETATM   20  C   UNK N   1       1.303   2.380   0.192  0.00  0.00     0.164 C 
BRANCH  20  21
HETATM   21  C   UNK N   1       2.518   3.258   0.122  0.00  0.00    -0.040 A 
HETATM   22  C   UNK N   1       2.400   4.596   0.513  0.00  0.00     0.009 A 
HETATM   23  C   UNK N   1       3.504   5.450   0.445  0.00  0.00     0.001 A 
HETATM   24  C   UNK N   1       4.731   4.970  -0.021  0.00  0.00     0.000 A 
HETATM   25  C   UNK N   1       4.855   3.636  -0.417  0.00  0.00     0.001 A 
HETATM   26  C   UNK N   1       3.752   2.781  -0.347  0.00  0.00     0.009 A 
ENDBRANCH  20  21
ENDBRANCH   4  20
TORSDOF 3
