REMARK  5 active torsions:
REMARK  status: ('A' for Active; 'I' for Inactive)
REMARK    1  A    between atoms: S_1  and  O_2 
REMARK    2  A    between atoms: S_1  and  O_5 
REMARK    3  A    between atoms: O_2  and  C_12 
REMARK    4  A    between atoms: O_6  and  C_14 
REMARK    5  A    between atoms: N_10  and  C_15 
ROOT
HETATM    1  C   UNK N   1       0.469   1.410   0.157  0.00  0.00     0.077 A 
HETATM    2  C   UNK N   1      -2.047   0.302  -0.325  0.00  0.00     0.042 A 
HETATM    3  C   UNK N   1       0.332   0.020   0.096  0.00  0.00     0.126 A 
HETATM    4  C   UNK N   1      -1.892   1.689  -0.284  0.00  0.00     0.039 A 
HETATM    5  C   UNK N   1      -0.945  -0.538  -0.144  0.00  0.00     0.100 A 
HETATM    6  C   UNK N   1      -0.631   2.253  -0.044  0.00  0.00     0.105 A 
ENDROOT
BRANCH   3   7
HETATM    7  O   UNK N   1       1.447  -0.739   0.260  0.00  0.00    -0.218 OA
BRANCH   7   8
HETATM    8  S   UNK N   1       1.759  -2.169  -0.614  0.00  0.00     0.245 S 
HETATM    9  O   UNK N   1       2.924  -2.980  -0.031  0.00  0.00    -0.579 OA
HETATM   10  O   UNK N   1       2.967  -1.236  -0.796  0.00  0.00    -0.579 OA
BRANCH   8  11
HETATM   11  O   UNK N   1       1.427  -2.496   1.038  0.00  0.00    -0.273 OA
HETATM   12  H   UNK N   1       1.173  -2.427   1.972  0.00  0.00     0.234 HD
ENDBRANCH   8  11
ENDBRANCH   7   8
ENDBRANCH   3   7
BRANCH   5  13
HETATM   13  O   UNK N   1      -1.128  -1.868  -0.185  0.00  0.00    -0.358 OA
HETATM   14  H   UNK N   1      -1.996  -2.221  -0.213  0.00  0.00     0.217 HD
ENDBRANCH   5  13
BRANCH   6  15
HETATM   15  N   UNK N   1      -0.459   3.665  -0.032  0.00  0.00    -0.116 N 
HETATM   16  O   UNK N   1      -1.390   4.388  -0.233  0.00  0.00    -0.532 OA
HETATM   17  O   UNK N   1       0.734   4.185   0.158  0.00  0.00    -0.532 OA
ENDBRANCH   6  15
TORSDOF 5
