REMARK  6 active torsions:
REMARK  status: ('A' for Active; 'I' for Inactive)
REMARK    1  A    between atoms: B_1  and  O_2 
REMARK    2  A    between atoms: B_1  and  O_3 
REMARK    3  A    between atoms: B_1  and  C_4 
REMARK    4  A    between atoms: C_4  and  N_5 
REMARK       I    between atoms: N_5  and  C_6 
REMARK    5  A    between atoms: C_6  and  C_8 
REMARK    6  A    between atoms: C_8  and  C_9 
ROOT
HETATM    1  N   UNK N   1      -1.983  -0.366   0.000  0.00  0.00    -0.364 N 
HETATM    2  C   UNK N   1      -0.677  -0.716  -0.000  0.00  0.00     0.221 C 
HETATM    3  O   UNK N   1      -0.394  -1.899  -0.000  0.00  0.00    -0.273 OA
HETATM    4  H   UNK N   1      -2.656  -1.084   0.000  0.00  0.00     0.161 HD
ENDROOT
BRANCH   1   5
HETATM    5  C   UNK N   1      -2.444   0.997   0.000  0.00  0.00     0.143 C 
BRANCH   5   6
HETATM    6  B   UNK N   1      -4.033   0.985   0.000  0.00  0.00     0.510 B 
BRANCH   6   7
HETATM    7  O   UNK N   1      -4.758  -0.285  -0.000  0.00  0.00    -0.436 OA
HETATM    8  H   UNK N   1      -5.728  -0.290  -0.000  0.00  0.00     0.184 HD
ENDBRANCH   6   7
BRANCH   6   9
HETATM    9  O   UNK N   1      -4.774   2.242   0.000  0.00  0.00    -0.436 OA
HETATM   10  H   UNK N   1      -4.297   3.086   0.000  0.00  0.00     0.184 HD
ENDBRANCH   6   9
ENDBRANCH   5   6
ENDBRANCH   1   5
BRANCH   2  11
HETATM   11  C   UNK N   1       0.408   0.344  -0.000  0.00  0.00     0.148 C 
BRANCH  11  12
HETATM   12  C   UNK N   1       1.841  -0.128  -0.000  0.00  0.00    -0.009 A 
HETATM   13  C   UNK N   1       2.944   0.722  -0.000  0.00  0.00     0.015 A 
HETATM   14  C   UNK N   1       4.187   0.024  -0.000  0.00  0.00     0.008 A 
HETATM   15  C   UNK N   1       4.061  -1.372   0.000  0.00  0.00     0.050 A 
HETATM   16  S   UNK N   1       2.434  -1.678   0.000  0.00  0.00    -0.106 SA
ENDBRANCH  11  12
ENDBRANCH   2  11
TORSDOF 6
