REMARK  6 active torsions:
REMARK  status: ('A' for Active; 'I' for Inactive)
REMARK    1  A    between atoms: B_1  and  O_2 
REMARK    2  A    between atoms: B_1  and  O_3 
REMARK    3  A    between atoms: B_1  and  C_4 
REMARK    4  A    between atoms: C_7  and  C_8 
REMARK    5  A    between atoms: C_9  and  C_10 
REMARK    6  A    between atoms: C_10  and  O_11 
ROOT
HETATM    1  C   UNK N   1       2.041   0.876   0.000  0.00  0.00    -0.032 A 
HETATM    2  C   UNK N   1       2.070  -0.526   0.000  0.00  0.00     0.001 A 
HETATM    3  C   UNK N   1       0.872  -1.254   0.000  0.00  0.00     0.011 A 
HETATM    4  C   UNK N   1      -0.357  -0.581  -0.000  0.00  0.00    -0.036 A 
HETATM    5  C   UNK N   1      -0.375   0.822   0.000  0.00  0.00     0.011 A 
HETATM    6  C   UNK N   1       0.815   1.544   0.000  0.00  0.00     0.001 A 
ENDROOT
BRANCH   4   7
HETATM    7  C   UNK N   1      -1.621  -1.342   0.000  0.00  0.00     0.018 C 
HETATM    8  C   UNK N   1      -2.797  -0.702  -0.000  0.00  0.00     0.082 C 
BRANCH   8   9
HETATM    9  C   UNK N   1      -4.088  -1.400  -0.000  0.00  0.00     0.165 C 
HETATM   10  O   UNK N   1      -5.119  -0.749  -0.000  0.00  0.00    -0.647 OA
BRANCH   9  11
HETATM   11  O   UNK N   1      -4.146  -2.746   0.000  0.00  0.00    -0.773 OA
HETATM   12  H   UNK N   1      -4.977  -3.179   0.000  0.00  0.00     0.167 HD
ENDBRANCH   9  11
ENDBRANCH   8   9
ENDBRANCH   4   7
BRANCH   1  13
HETATM   13  B   UNK N   1       3.362   1.712   0.000  0.00  0.00     0.529 B 
BRANCH  13  14
HETATM   14  O   UNK N   1       3.299   3.173   0.000  0.00  0.00    -0.433 OA
HETATM   15  H   UNK N   1       4.117   3.694   0.000  0.00  0.00     0.185 HD
ENDBRANCH  13  14
BRANCH  13  16
HETATM   16  O   UNK N   1       4.661   1.045  -0.000  0.00  0.00    -0.433 OA
HETATM   17  H   UNK N   1       4.708   0.076  -0.000  0.00  0.00     0.185 HD
ENDBRANCH  13  16
ENDBRANCH   1  13
TORSDOF 6
