REMARK  11 active torsions:
REMARK  status: ('A' for Active; 'I' for Inactive)
REMARK    1  A    between atoms: O_2  and  C_3 
REMARK    2  A    between atoms: C_3  and  C_4 
REMARK    3  A    between atoms: C_4  and  C_5 
REMARK    4  A    between atoms: C_5  and  C_6 
REMARK    5  A    between atoms: C_6  and  C_7 
REMARK    6  A    between atoms: C_7  and  C_8 
REMARK    7  A    between atoms: C_8  and  C_9 
REMARK    8  A    between atoms: C_9  and  C_10 
REMARK    9  A    between atoms: C_10  and  C_11 
REMARK   10  A    between atoms: C_11  and  C_12 
REMARK   11  A    between atoms: C_12  and  C_13 
ROOT
HETATM    1  C   UNK N   1      -1.404  -0.186   0.000  0.00  0.00     0.000 C 
ENDROOT
BRANCH   1   2
HETATM    2  C   UNK N   1      -2.627   0.700   0.000  0.00  0.00     0.001 C 
BRANCH   2   3
HETATM    3  C   UNK N   1      -3.832  -0.208  -0.000  0.00  0.00     0.010 C 
BRANCH   3   4
HETATM    4  C   UNK N   1      -5.117   0.594  -0.000  0.00  0.00     0.110 C 
BRANCH   4   5
HETATM    5  C   UNK N   1      -6.312  -0.313  -0.000  0.00  0.00     0.139 C 
HETATM    6  O   UNK N   1      -7.431   0.169   0.000  0.00  0.00    -0.650 OA
BRANCH   5   7
HETATM    7  O   UNK N   1      -6.164  -1.654  -0.000  0.00  0.00    -0.776 OA
HETATM    8  H   UNK N   1      -6.919  -2.209  -0.000  0.00  0.00     0.167 HD
ENDBRANCH   5   7
ENDBRANCH   4   5
ENDBRANCH   3   4
ENDBRANCH   2   3
ENDBRANCH   1   2
BRANCH   1   9
HETATM    9  C   UNK N   1      -0.151   0.653   0.000  0.00  0.00     0.000 C 
BRANCH   9  10
HETATM   10  C   UNK N   1       1.044  -0.271   0.000  0.00  0.00     0.000 C 
BRANCH  10  11
HETATM   11  C   UNK N   1       2.299   0.566  -0.000  0.00  0.00     0.000 C 
BRANCH  11  12
HETATM   12  C   UNK N   1       3.516  -0.329  -0.000  0.00  0.00     0.000 C 
BRANCH  12  13
HETATM   13  C   UNK N   1       4.743   0.553  -0.000  0.00  0.00    -0.000 C 
BRANCH  13  14
HETATM   14  C   UNK N   1       5.994  -0.295   0.000  0.00  0.00    -0.005 C 
HETATM   15  C   UNK N   1       7.202   0.617   0.000  0.00  0.00     0.005 C 
ENDBRANCH  13  14
ENDBRANCH  12  13
ENDBRANCH  11  12
ENDBRANCH  10  11
ENDBRANCH   9  10
ENDBRANCH   1   9
TORSDOF 11
