REMARK  0 active torsions:
REMARK  status: ('A' for Active; 'I' for Inactive)
ROOT
HETATM    1  C   UNK N   1       0.863   2.963  -0.000  0.00  0.00     0.049 C 
HETATM    2  C   UNK N   1      -0.465   0.785  -0.000  0.00  0.00     0.025 A 
HETATM    3  C   UNK N   1      -0.103  -0.549  -0.000  0.00  0.00     0.088 A 
HETATM    4  C   UNK N   1       1.751   0.582   0.000  0.00  0.00     0.094 A 
HETATM    5  C   UNK N   1       0.719   1.485  -0.000  0.00  0.00    -0.045 A 
HETATM    6  N   UNK N   1       1.242  -0.664   0.000  0.00  0.00    -0.375 N 
HETATM    7  H   UNK N   1       1.755  -1.504   0.000  0.00  0.00     0.164 HD
ENDROOT
TORSDOF 0
