REMARK  4 active torsions:
REMARK  status: ('A' for Active; 'I' for Inactive)
REMARK    1  A    between atoms: C_4  and  O_10 
REMARK    2  A    between atoms: C_5  and  O_11 
REMARK    3  A    between atoms: C_7  and  O_12 
REMARK    4  A    between atoms: C_8  and  O_13 
ROOT
HETATM    1  C   UNK N   1      -1.460   1.454  -1.120  0.00  0.00     0.064 C 
HETATM    2  C   UNK N   1      -0.881   0.123  -0.673  0.00  0.00     0.276 C 
HETATM    3  C   UNK N   1       1.437  -0.054  -0.494  0.00  0.00     0.307 C 
HETATM    4  C   UNK N   1      -1.211   2.296   0.090  0.00  0.00     0.155 C 
HETATM    5  C   UNK N   1       2.729   0.502   0.099  0.00  0.00     0.177 C 
HETATM    6  C   UNK N   1       0.196   1.866   0.505  0.00  0.00     0.282 C 
HETATM    7  C   UNK N   1       2.688   2.047   0.229  0.00  0.00     0.179 C 
HETATM    8  C   UNK N   1       1.337   2.628  -0.225  0.00  0.00     0.185 C 
HETATM    9  N   UNK N   1       0.240   0.403   0.231  0.00  0.00     0.101 N 
ENDROOT
BRANCH   4  10
HETATM   10  O   UNK N   1      -1.340   3.661  -0.177  0.00  0.00    -0.393 OA
HETATM   11  H   UNK N   1      -0.564   4.212  -0.363  0.00  0.00     0.210 HD
ENDBRANCH   4  10
BRANCH   8  12
HETATM   12  O   UNK N   1       1.300   3.993   0.078  0.00  0.00    -0.391 OA
HETATM   13  H   UNK N   1       2.107   4.488   0.289  0.00  0.00     0.210 HD
ENDBRANCH   8  12
BRANCH   7  14
HETATM   14  O   UNK N   1       3.722   2.650  -0.495  0.00  0.00    -0.390 OA
HETATM   15  H   UNK N   1       4.442   2.238  -0.997  0.00  0.00     0.210 HD
ENDBRANCH   7  14
BRANCH   5  16
HETATM   16  O   UNK N   1       3.803   0.088  -0.693  0.00  0.00    -0.391 OA
HETATM   17  H   UNK N   1       3.926  -0.701  -1.243  0.00  0.00     0.210 HD
ENDBRANCH   5  16
TORSDOF 4
