REMARK  3 active torsions:
REMARK  status: ('A' for Active; 'I' for Inactive)
REMARK    1  A    between atoms: C_2  and  C_3 
REMARK    2  A    between atoms: C_3  and  O_4 
REMARK    3  A    between atoms: O_4  and  C_5 
ROOT
HETATM    1  O   UNK N   1       2.087   1.234  -0.000  0.00  0.00    -0.322 OA
ENDROOT
BRANCH   1   2
HETATM    2  C   UNK N   1       0.921   0.507   0.000  0.00  0.00     0.178 C 
BRANCH   2   3
HETATM    3  C   UNK N   1      -0.284   1.418  -0.000  0.00  0.00     0.022 C 
HETATM    4  C   UNK N   1      -1.528   0.555  -0.000  0.00  0.00     0.007 C 
ENDBRANCH   2   3
ENDBRANCH   1   2
BRANCH   1   5
HETATM    5  C   UNK N   1       3.295   0.627  -0.000  0.00  0.00     0.254 C 
HETATM    6  C   UNK N   1       4.540   1.440  -0.000  0.00  0.00     0.126 C 
HETATM    7  O   UNK N   1       3.378  -0.599   0.000  0.00  0.00    -0.266 OA
ENDBRANCH   1   5
TORSDOF 3
