REMARK  5 active torsions:
REMARK  status: ('A' for Active; 'I' for Inactive)
REMARK    1  A    between atoms: O_1  and  C_2 
REMARK    2  A    between atoms: C_2  and  C_3 
REMARK    3  A    between atoms: C_3  and  C_4 
REMARK    4  A    between atoms: C_4  and  C_5 
REMARK    5  A    between atoms: C_5  and  O_6 
ROOT
HETATM    1  C   UNK N   1       0.995   0.463   0.000  0.00  0.00     0.028 C 
ENDROOT
BRANCH   1   2
HETATM    2  C   UNK N   1      -0.265   1.297  -0.000  0.00  0.00     0.164 C 
BRANCH   2   3
HETATM    3  O   UNK N   1      -1.374   0.456   0.000  0.00  0.00    -0.401 OA
HETATM    4  H   UNK N   1      -2.268   0.831   0.000  0.00  0.00     0.209 HD
ENDBRANCH   2   3
ENDBRANCH   1   2
BRANCH   1   5
HETATM    5  C   UNK N   1       2.195   1.379   0.000  0.00  0.00     0.028 C 
BRANCH   5   6
HETATM    6  C   UNK N   1       3.455   0.544  -0.000  0.00  0.00     0.164 C 
BRANCH   6   7
HETATM    7  O   UNK N   1       4.563   1.386   0.000  0.00  0.00    -0.401 OA
HETATM    8  H   UNK N   1       5.458   1.010   0.000  0.00  0.00     0.209 HD
ENDBRANCH   6   7
ENDBRANCH   5   6
ENDBRANCH   1   5
TORSDOF 5
