REMARK  15 active torsions:
REMARK  status: ('A' for Active; 'I' for Inactive)
REMARK    1  A    between atoms: C_5  and  C_1 
REMARK    2  A    between atoms: C_7  and  C_1 
REMARK    3  A    between atoms: C_6  and  C_2 
REMARK    4  A    between atoms: O_31  and  C_2 
REMARK    5  A    between atoms: C_14  and  C_5 
REMARK    6  A    between atoms: C_5  and  N_15 
REMARK    7  A    between atoms: O_25  and  C_7 
REMARK    8  A    between atoms: C_9  and  O_26 
REMARK    9  A    between atoms: C_10  and  O_27 
REMARK   10  A    between atoms: N_16  and  C_11 
REMARK   11  A    between atoms: C_13  and  N_23 
REMARK   12  A    between atoms: O_33  and  C_14 
REMARK   13  A    between atoms: P_34  and  O_29 
REMARK   14  A    between atoms: P_34  and  O_31 
REMARK   15  A    between atoms: P_34  and  O_33 
ROOT
HETATM    1  C   UNK N   1       0.070  -0.900  -1.238  0.00  0.00     0.180 C 
HETATM    2  C   UNK N   1       1.311  -1.766  -1.070  0.00  0.00     0.182 C 
HETATM    3  C   UNK N   1       2.271  -0.661  -0.766  0.00  0.00     0.198 C 
HETATM    4  C   UNK N   1       1.426   0.140   0.236  0.00  0.00     0.262 C 
HETATM    5  O   UNK N   1       0.059  -0.060  -0.106  0.00  0.00    -0.353 OA
ENDROOT
BRANCH   1   6
HETATM    6  C   UNK N   1      -1.233  -1.671  -1.375  0.00  0.00     0.215 C 
BRANCH   6   7
HETATM    7  O   UNK N   1      -1.233  -2.785  -0.546  0.00  0.00    -0.294 OA
BRANCH   7   8
HETATM    8  P   UNK N   1      -2.207  -2.415   0.845  0.00  0.00     0.400 P 
HETATM    9  O   UNK N   1      -1.346  -1.656   1.888  0.00  0.00    -0.631 OA
BRANCH   8  10
HETATM   10  O   UNK N   1      -3.611  -1.474   0.446  0.00  0.00    -0.307 OA
HETATM   11  H   UNK N   1      -3.548  -0.532   0.223  0.00  0.00     0.222 HD
ENDBRANCH   8  10
BRANCH   8  12
HETATM   12  O   UNK N   1      -2.681  -3.912   1.531  0.00  0.00    -0.218 OA
BRANCH  12  13
HETATM   13  C   UNK N   1      -2.266  -5.060   0.948  0.00  0.00     0.290 C 
HETATM   14  O   UNK N   1      -1.107  -5.173   0.567  0.00  0.00    -0.262 OA
BRANCH  13  15
HETATM   15  C   UNK N   1      -3.277  -6.121   0.637  0.00  0.00     0.185 C 
BRANCH  15  16
HETATM   16  C   UNK N   1      -2.681  -7.174  -0.303  0.00  0.00     0.144 C 
BRANCH  16  17
HETATM   17  C   UNK N   1      -3.626  -8.290  -0.611  0.00  0.00     0.141 C 
HETATM   18  O   UNK N   1      -3.291  -9.440  -0.387  0.00  0.00    -0.650 OA
BRANCH  17  19
HETATM   19  O   UNK N   1      -4.827  -8.038  -1.165  0.00  0.00    -0.776 OA
HETATM   20  H   UNK N   1      -5.093  -7.226  -1.550  0.00  0.00     0.167 HD
ENDBRANCH  17  19
ENDBRANCH  16  17
ENDBRANCH  15  16
BRANCH  15  21
HETATM   21  N   UNK N   1      -4.408  -5.482  -0.020  0.00  0.00    -0.418 N 
HETATM   22  H   UNK N   1      -4.417  -4.572  -0.480  0.00  0.00     0.150 HD
HETATM   23  H   UNK N   1      -5.286  -6.001  -0.020  0.00  0.00     0.150 HD
ENDBRANCH  15  21
ENDBRANCH  13  15
ENDBRANCH  12  13
ENDBRANCH   8  12
ENDBRANCH   7   8
ENDBRANCH   6   7
ENDBRANCH   1   6
BRANCH   2  24
HETATM   24  O   UNK N   1       1.647  -2.484  -2.219  0.00  0.00    -0.390 OA
HETATM   25  H   UNK N   1       1.332  -2.936  -3.018  0.00  0.00     0.210 HD
ENDBRANCH   2  24
BRANCH   3  26
HETATM   26  O   UNK N   1       3.472  -1.126  -0.224  0.00  0.00    -0.388 OA
HETATM   27  H   UNK N   1       3.609  -2.010   0.152  0.00  0.00     0.210 HD
ENDBRANCH   3  26
BRANCH   4  28
HETATM   28  N   UNK N   1       1.732   1.575   0.207  0.00  0.00    -0.297 N 
HETATM   29  C   UNK N   1       0.810   2.572   0.113  0.00  0.00     0.188 A 
HETATM   30  N   UNK N   1       1.399   3.798   0.104  0.00  0.00    -0.346 N 
HETATM   31  C   UNK N   1       2.715   3.534   0.180  0.00  0.00     0.122 A 
ATOM     32  HN  UNK N   1       0.945   4.710   0.051  1.00  0.00     0.167 HD
HETATM   33  C   UNK N   1       3.790   4.403   0.180  0.00  0.00     0.131 A 
HETATM   34  C   UNK N   1       2.914   2.203   0.247  0.00  0.00     0.142 A 
HETATM   35  N   UNK N   1       5.045   3.866   0.236  0.00  0.00    -0.337 N 
HETATM   36  C   UNK N   1       5.229   2.504   0.296  0.00  0.00     0.183 A 
ATOM     37  HN  UNK N   1       5.857   4.484   0.233  1.00  0.00     0.168 HD
HETATM   38  N   UNK N   1       4.153   1.656   0.306  0.00  0.00    -0.336 N 
ATOM     39  HN  UNK N   1       4.280   0.646   0.355  1.00  0.00     0.168 HD
BRANCH  33  40
HETATM   40  N   UNK N   1       3.604   5.799   0.114  0.00  0.00    -0.383 N 
HETATM   41  H   UNK N   1       4.384   6.398   0.068  0.00  0.00     0.157 HD
HETATM   42  H   UNK N   1       2.694   6.174   0.114  0.00  0.00     0.157 HD
ENDBRANCH  33  40
ENDBRANCH   4  28
TORSDOF 15
