REMARK  6 active torsions:
REMARK  status: ('A' for Active; 'I' for Inactive)
REMARK    1  A    between atoms: C_3  and  O_2 
REMARK    2  A    between atoms: C_5  and  C_6 
REMARK    3  A    between atoms: C_6  and  O_7 
REMARK    4  A    between atoms: C_8  and  S_9 
REMARK    5  A    between atoms: C_10  and  O_11 
REMARK    6  A    between atoms: C_12  and  O_13 
ROOT
HETATM    1  C   UNK N   1       1.881   1.211  -0.057  0.00  0.00     0.290 C 
HETATM    2  O   UNK N   1       1.887  -0.094   0.480  0.00  0.00    -0.350 OA
HETATM    3  C   UNK N   1       0.883  -0.838  -0.172  0.00  0.00     0.164 C 
HETATM    4  C   UNK N   1      -0.499  -0.316   0.259  0.00  0.00     0.107 C 
HETATM    5  C   UNK N   1      -0.602   1.153  -0.152  0.00  0.00     0.167 C 
HETATM    6  C   UNK N   1       0.598   1.933   0.371  0.00  0.00     0.203 C 
ENDROOT
BRANCH   3   7
HETATM    7  C   UNK N   1       1.036  -2.308   0.197  0.00  0.00     0.197 C 
BRANCH   7   8
HETATM    8  O   UNK N   1       2.240  -2.805  -0.300  0.00  0.00    -0.398 OA
HETATM    9  H   UNK N   1       2.359  -3.704  -0.646  0.00  0.00     0.209 HD
ENDBRANCH   7   8
ENDBRANCH   3   7
BRANCH   4  10
HETATM   10  S   UNK N   1      -1.847  -1.260  -0.529  0.00  0.00    -0.172 SA
HETATM   11  H   UNK N   1      -2.959  -0.742  -1.117  0.00  0.00     0.102 HD
ENDBRANCH   4  10
BRANCH   1  12
HETATM   12  O   UNK N   1       2.995   1.908   0.418  0.00  0.00    -0.363 OA
HETATM   13  C   UNK N   1       3.536   2.550  -0.698  0.00  0.00     0.204 C 
ENDBRANCH   1  12
BRANCH   5  14
HETATM   14  O   UNK N   1      -1.783   1.714   0.338  0.00  0.00    -0.392 OA
HETATM   15  H   UNK N   1      -1.856   2.619   0.678  0.00  0.00     0.210 HD
ENDBRANCH   5  14
BRANCH   6  16
HETATM   16  O   UNK N   1       0.577   3.228  -0.154  0.00  0.00    -0.388 OA
HETATM   17  H   UNK N   1       1.348   3.690  -0.518  0.00  0.00     0.210 HD
ENDBRANCH   6  16
TORSDOF 6
