REMARK  5 active torsions:
REMARK  status: ('A' for Active; 'I' for Inactive)
REMARK    1  A    between atoms: O_1  and  C_2 
REMARK    2  A    between atoms: C_3  and  C_2 
REMARK    3  A    between atoms: C_5  and  O_6 
REMARK    4  A    between atoms: C_7  and  O_8 
REMARK    5  A    between atoms: C_9  and  O_10 
ROOT
HETATM    1  C   UNK N   1       1.652   0.510  -0.000  0.00  0.00     0.179 A 
HETATM    2  O   UNK N   1       1.193  -0.835  -0.000  0.00  0.00    -0.349 OA
HETATM    3  C   UNK N   1      -0.216  -0.705   0.001  0.00  0.00     0.288 A 
HETATM    4  C   UNK N   1      -0.706   0.708  -0.001  0.00  0.00     0.204 A 
HETATM    5  C   UNK N   1       0.520   1.513   0.001  0.00  0.00     0.182 A 
ENDROOT
BRANCH   1   6
HETATM    6  C   UNK N   1       3.145   0.792   0.000  0.00  0.00     0.198 C 
BRANCH   6   7
HETATM    7  O   UNK N   1       3.380   2.166  -0.000  0.00  0.00    -0.398 OA
HETATM    8  H   UNK N   1       4.290   2.502  -0.000  0.00  0.00     0.209 HD
ENDBRANCH   6   7
ENDBRANCH   1   6
BRANCH   5   9
HETATM    9  O   UNK N   1       0.613   2.906  -0.000  0.00  0.00    -0.390 OA
HETATM   10  H   UNK N   1       1.484   3.333  -0.001  0.00  0.00     0.210 HD
ENDBRANCH   5   9
BRANCH   3  11
HETATM   11  O   UNK N   1      -1.022  -1.843  -0.000  0.00  0.00    -0.369 OA
HETATM   12  H   UNK N   1      -1.988  -1.752  -0.001  0.00  0.00     0.212 HD
ENDBRANCH   3  11
BRANCH   4  13
HETATM   13  O   UNK N   1      -2.027   1.152   0.000  0.00  0.00    -0.388 OA
HETATM   14  H   UNK N   1      -2.219   2.102   0.001  0.00  0.00     0.210 HD
ENDBRANCH   4  13
TORSDOF 5
