REMARK  7 active torsions:
REMARK  status: ('A' for Active; 'I' for Inactive)
REMARK       I    between atoms: C_2  and  N_4 
REMARK    1  A    between atoms: C_5  and  N_4 
REMARK    2  A    between atoms: C_5  and  C_6 
REMARK    3  A    between atoms: C_5  and  C_14 
REMARK    4  A    between atoms: C_6  and  C_7 
REMARK    5  A    between atoms: C_7  and  C_8 
REMARK    6  A    between atoms: C_8  and  N_9 
REMARK       I    between atoms: N_9  and  C_10 
REMARK       I    between atoms: C_10  and  N_11 
REMARK    7  A    between atoms: C_14  and  O_15 
ROOT
HETATM    1  C   UNK N   1       5.249   1.403  -0.547  0.00  0.00     0.038 C 
ENDROOT
BRANCH   1   2
HETATM    2  C   UNK N   1       4.278   2.132   0.371  0.00  0.00     0.182 C 
BRANCH   2   3
HETATM    3  N   UNK N   1       2.981   1.463   0.279  0.00  0.00    -0.347 N 
HETATM    4  C   UNK N   1       1.716   1.920   0.075  0.00  0.00     0.214 C 
HETATM    5  C   UNK N   1       0.600   0.937   0.028  0.00  0.00     0.117 C 
HETATM    6  O   UNK N   1       1.465   3.103  -0.056  0.00  0.00    -0.274 OA
HETATM    7  H   UNK N   1       3.033   0.486   0.386  0.00  0.00     0.163 HD
ENDBRANCH   2   3
BRANCH   2   8
HETATM    8  C   UNK N   1       4.419   3.642   0.220  0.00  0.00     0.163 C 
HETATM    9  O   UNK N   1       3.542   4.337  -0.254  0.00  0.00    -0.648 OA
BRANCH   8  10
HETATM   10  O   UNK N   1       5.579   4.224   0.581  0.00  0.00    -0.775 OA
HETATM   11  H   UNK N   1       6.333   3.728   0.833  0.00  0.00     0.167 HD
ENDBRANCH   8  10
ENDBRANCH   2   8
ENDBRANCH   1   2
BRANCH   1  12
HETATM   12  C   UNK N   1       6.666   1.536  -0.037  0.00  0.00     0.023 C 
BRANCH  12  13
HETATM   13  C   UNK N   1       7.488   2.358  -1.012  0.00  0.00     0.138 C 
BRANCH  13  14
HETATM   14  N   UNK N   1       8.654   2.897  -0.353  0.00  0.00    -0.227 N 
HETATM   15  C   UNK N   1       9.671   2.079   0.207  0.00  0.00     0.665 C 
HETATM   16  N   UNK N   1      10.800   2.677   0.801  0.00  0.00    -0.235 N 
HETATM   17  N   UNK N   1       9.572   0.798   0.178  0.00  0.00    -0.235 N 
HETATM   18  H   UNK N   1      11.556   2.203   1.217  0.00  0.00     0.174 HD
HETATM   19  H   UNK N   1      10.836   3.661   0.801  0.00  0.00     0.174 HD
HETATM   20  H   UNK N   1       8.684   0.373   0.156  0.00  0.00     0.174 HD
ATOM     21  HN  UNK N   1      10.413   0.221   0.178  1.00  0.00     0.174 HD
HETATM   22  H   UNK N   1       8.748   3.875  -0.289  0.00  0.00     0.177 HD
ENDBRANCH  13  14
ENDBRANCH  12  13
ENDBRANCH   1  12
TORSDOF 7
