REMARK  14 active torsions:
REMARK  status: ('A' for Active; 'I' for Inactive)
REMARK    1  A    between atoms: C_2  and  O_1 
REMARK    2  A    between atoms: C_3  and  O_4 
REMARK    3  A    between atoms: C_5  and  O_14 
REMARK    4  A    between atoms: C_7  and  C_8 
REMARK    5  A    between atoms: C_8  and  O_9 
REMARK    6  A    between atoms: O_9  and  P_10 
REMARK    7  A    between atoms: P_10  and  O_11 
REMARK    8  A    between atoms: P_10  and  O_12 
REMARK    9  A    between atoms: P_15  and  O_14 
REMARK   10  A    between atoms: P_15  and  O_16 
REMARK   11  A    between atoms: P_15  and  O_18 
REMARK   12  A    between atoms: O_18  and  P_19 
REMARK   13  A    between atoms: P_19  and  O_20 
REMARK   14  A    between atoms: P_19  and  O_21 
ROOT
HETATM    1  C   UNK N   1      -2.091   2.212   0.468  0.00  0.00     0.182 C 
HETATM    2  C   UNK N   1      -1.184   3.208  -0.156  0.00  0.00     0.205 C 
HETATM    3  C   UNK N   1       0.135   2.517   0.076  0.00  0.00     0.303 C 
HETATM    4  O   UNK N   1      -0.073   1.138  -0.122  0.00  0.00    -0.348 OA
HETATM    5  C   UNK N   1      -1.466   0.936  -0.047  0.00  0.00     0.180 C 
ENDROOT
BRANCH   3   6
HETATM    6  O   UNK N   1       1.093   2.992  -0.827  0.00  0.00    -0.263 OA
BRANCH   6   7
HETATM    7  P   UNK N   1       2.622   2.812  -0.012  0.00  0.00     0.404 P 
HETATM    8  O   UNK N   1       2.689   4.275  -0.529  0.00  0.00    -0.631 OA
BRANCH   7   9
HETATM    9  O   UNK N   1       2.540   1.700  -1.347  0.00  0.00    -0.307 OA
HETATM   10  H   UNK N   1       1.981   1.430  -2.092  0.00  0.00     0.222 HD
ENDBRANCH   7   9
BRANCH   7  11
HETATM   11  O   UNK N   1       4.102   2.834  -0.929  0.00  0.00    -0.195 OA
BRANCH  11  12
HETATM   12  P   UNK N   1       5.369   2.294   0.145  0.00  0.00     0.399 P 
HETATM   13  O   UNK N   1       5.193   2.977   1.529  0.00  0.00    -0.631 OA
BRANCH  12  14
HETATM   14  O   UNK N   1       6.916   2.802  -0.455  0.00  0.00    -0.307 OA
HETATM   15  H   UNK N   1       7.595   2.195  -0.790  0.00  0.00     0.222 HD
ENDBRANCH  12  14
BRANCH  12  16
HETATM   16  O   UNK N   1       5.343   0.575   0.385  0.00  0.00    -0.307 OA
HETATM   17  H   UNK N   1       4.504   0.108   0.520  0.00  0.00     0.222 HD
ENDBRANCH  12  16
ENDBRANCH  11  12
ENDBRANCH   7  11
ENDBRANCH   6   7
ENDBRANCH   3   6
BRANCH   2  18
HETATM   18  O   UNK N   1      -1.239   4.433   0.509  0.00  0.00    -0.388 OA
HETATM   19  H   UNK N   1      -0.521   4.893   0.971  0.00  0.00     0.210 HD
ENDBRANCH   2  18
BRANCH   1  20
HETATM   20  O   UNK N   1      -3.399   2.360   0.002  0.00  0.00    -0.390 OA
HETATM   21  H   UNK N   1      -3.764   3.198  -0.322  0.00  0.00     0.210 HD
ENDBRANCH   1  20
BRANCH   5  22
HETATM   22  C   UNK N   1      -1.751  -0.234   0.882  0.00  0.00     0.215 C 
BRANCH  22  23
HETATM   23  O   UNK N   1      -3.074  -0.681   0.760  0.00  0.00    -0.294 OA
BRANCH  23  24
HETATM   24  P   UNK N   1      -3.024  -1.955  -0.432  0.00  0.00     0.390 P 
HETATM   25  O   UNK N   1      -4.421  -1.328  -0.690  0.00  0.00    -0.632 OA
BRANCH  24  26
HETATM   26  O   UNK N   1      -4.076  -3.332  -0.355  0.00  0.00    -0.307 OA
HETATM   27  H   UNK N   1      -5.037  -3.208  -0.312  0.00  0.00     0.222 HD
ENDBRANCH  24  26
BRANCH  24  28
HETATM   28  O   UNK N   1      -3.021  -2.685   1.146  0.00  0.00    -0.307 OA
HETATM   29  H   UNK N   1      -3.373  -2.890   2.027  0.00  0.00     0.222 HD
ENDBRANCH  24  28
ENDBRANCH  23  24
ENDBRANCH  22  23
ENDBRANCH   5  22
TORSDOF 14
