REMARK  15 active torsions:
REMARK  status: ('A' for Active; 'I' for Inactive)
REMARK    1  A    between atoms: C_2  and  C_3 
REMARK    2  A    between atoms: C_3  and  C_4 
REMARK    3  A    between atoms: C_4  and  C_5 
REMARK    4  A    between atoms: C_5  and  C_6 
REMARK    5  A    between atoms: C_9  and  C_12 
REMARK       I    between atoms: C_12  and  N_14 
REMARK    6  A    between atoms: N_14  and  C_15 
REMARK    7  A    between atoms: C_18  and  S_21 
REMARK    8  A    between atoms: S_21  and  N_24 
REMARK    9  A    between atoms: N_24  and  C_25 
REMARK   10  A    between atoms: C_33  and  N_24 
REMARK   11  A    between atoms: C_25  and  C_26 
REMARK   12  A    between atoms: C_26  and  N_27 
REMARK   13  A    between atoms: C_33  and  C_34 
REMARK   14  A    between atoms: C_33  and  C_37 
REMARK       I    between atoms: C_37  and  N_39 
REMARK   15  A    between atoms: N_39  and  O_40 
ROOT
HETATM    1  S   UNK N   1       1.644  -1.116  -1.134  0.00  0.00     0.244 S 
HETATM    2  O   UNK N   1       0.358  -1.901  -1.444  0.00  0.00    -0.206 OA
HETATM    3  O   UNK N   1       1.934  -0.493  -2.509  0.00  0.00    -0.206 OA
ENDROOT
BRANCH   1   4
HETATM    4  C   UNK N   1       1.382   0.131   0.070  0.00  0.00     0.074 C 
HETATM    5  C   UNK N   1       2.097   1.311  -0.064  0.00  0.00     0.027 C 
HETATM    6  C   UNK N   1       1.693   2.434   0.601  0.00  0.00     0.031 C 
HETATM    7  C   UNK N   1       0.546   2.394   1.371  0.00  0.00     0.035 C 
HETATM    8  C   UNK N   1      -0.101   1.170   1.624  0.00  0.00     0.031 C 
HETATM    9  C   UNK N   1       0.326   0.026   0.969  0.00  0.00     0.027 C 
BRANCH   7  10
HETATM   10  N   UNK N   1      -0.266   3.501   1.173  0.00  0.00    -0.323 N 
HETATM   11  C   UNK N   1      -1.189   3.448   0.168  0.00  0.00     0.256 C 
HETATM   12  O   UNK N   1      -1.416   2.410  -0.449  0.00  0.00    -0.267 OA
HETATM   13  H   UNK N   1      -0.178   4.301   1.739  0.00  0.00     0.169 HD
BRANCH  11  14
HETATM   14  C   UNK N   1      -1.935   4.625  -0.116  0.00  0.00     0.032 A 
HETATM   15  C   UNK N   1      -1.285   5.854  -0.028  0.00  0.00     0.017 A 
HETATM   16  C   UNK N   1      -2.021   7.022  -0.011  0.00  0.00     0.008 A 
HETATM   17  C   UNK N   1      -3.410   6.953  -0.033  0.00  0.00    -0.058 A 
HETATM   18  C   UNK N   1      -4.057   5.714  -0.162  0.00  0.00     0.008 A 
HETATM   19  C   UNK N   1      -3.317   4.544  -0.228  0.00  0.00     0.017 A 
BRANCH  17  20
HETATM   20  C   UNK N   1      -4.180   8.190   0.252  0.00  0.00     0.038 C 
BRANCH  20  21
HETATM   21  C   UNK N   1      -5.116   8.619  -0.864  0.00  0.00     0.005 C 
BRANCH  21  22
HETATM   22  C   UNK N   1      -6.202   7.598  -1.224  0.00  0.00    -0.000 C 
BRANCH  22  23
HETATM   23  C   UNK N   1      -6.808   6.838  -0.040  0.00  0.00    -0.005 C 
HETATM   24  C   UNK N   1      -7.362   7.766   1.022  0.00  0.00     0.005 C 
ENDBRANCH  22  23
ENDBRANCH  21  22
ENDBRANCH  20  21
ENDBRANCH  17  20
ENDBRANCH  11  14
ENDBRANCH   7  10
ENDBRANCH   1   4
BRANCH   1  25
HETATM   25  N   UNK N   1       2.936  -2.289  -0.868  0.00  0.00    -0.191 NA
BRANCH  25  26
HETATM   26  C   UNK N   1       2.380  -3.289   0.029  0.00  0.00     0.139 C 
BRANCH  26  27
HETATM   27  C   UNK N   1       1.780  -4.420  -0.774  0.00  0.00     0.288 C 
BRANCH  27  28
HETATM   28  N   UNK N   1       0.885  -5.191   0.065  0.00  0.00     0.093 N 
HETATM   29  C   UNK N   1       0.998  -6.581  -0.376  0.00  0.00     0.298 C 
HETATM   30  C   UNK N   1      -0.100  -7.414   0.283  0.00  0.00     0.198 C 
HETATM   31  O   UNK N   1      -1.353  -6.921  -0.120  0.00  0.00    -0.388 OA
HETATM   32  C   UNK N   1      -1.488  -5.649   0.463  0.00  0.00     0.198 C 
HETATM   33  C   UNK N   1      -0.475  -4.695  -0.173  0.00  0.00     0.298 C 
ENDBRANCH  27  28
ENDBRANCH  26  27
ENDBRANCH  25  26
BRANCH  25  34
HETATM   34  C   UNK N   1       4.110  -1.737  -0.162  0.00  0.00     0.171 C 
BRANCH  34  35
HETATM   35  C   UNK N   1       4.439  -0.255  -0.435  0.00  0.00     0.005 C 
HETATM   36  C   UNK N   1       5.393   0.335   0.590  0.00  0.00     0.011 C 
HETATM   37  C   UNK N   1       4.903   0.044  -1.850  0.00  0.00     0.011 C 
ENDBRANCH  34  35
BRANCH  34  38
HETATM   38  C   UNK N   1       5.308  -2.615  -0.429  0.00  0.00     0.260 C 
HETATM   39  O   UNK N   1       5.286  -3.419  -1.339  0.00  0.00    -0.270 OA
HETATM   40  N   UNK N   1       6.400  -2.500   0.359  0.00  0.00    -0.236 N 
HETATM   41  H   UNK N   1       6.410  -1.842   1.091  0.00  0.00     0.197 HD
BRANCH  40  42
HETATM   42  O   UNK N   1       7.471  -3.280   0.144  0.00  0.00    -0.287 OA
HETATM   43  H   UNK N   1       7.369  -4.232  -0.011  0.00  0.00     0.244 HD
ENDBRANCH  40  42
ENDBRANCH  34  38
ENDBRANCH  25  34
ENDBRANCH   1  25
TORSDOF 15
