REMARK  1 active torsions:
REMARK  status: ('A' for Active; 'I' for Inactive)
REMARK    1  A    between atoms: N_2  and  C_4 
ROOT
HETATM    1  C   UNK N   1       2.850  -1.093   0.000  0.00  0.00     0.151 C 
HETATM    2  N   UNK N   1       1.425  -0.909  -0.000  0.00  0.00    -0.368 N 
HETATM    3  C   UNK N   1       0.566  -2.066  -0.000  0.00  0.00     0.151 C 
ENDROOT
BRANCH   2   4
HETATM    4  C   UNK N   1       0.923   0.348   0.000  0.00  0.00     0.350 C 
HETATM    5  O   UNK N   1      -0.284   0.548  -0.000  0.00  0.00    -0.284 OA
ENDBRANCH   2   4
TORSDOF 1
