REMARK  4 active torsions:
REMARK  status: ('A' for Active; 'I' for Inactive)
REMARK    1  A    between atoms: O_1  and  C_2 
REMARK    2  A    between atoms: C_2  and  C_4 
REMARK    3  A    between atoms: C_5  and  C_6 
REMARK    4  A    between atoms: C_6  and  O_7 
ROOT
HETATM    1  C   UNK N   1       1.075   0.020   0.000  0.00  0.00     0.088 C 
HETATM    2  C   UNK N   1      -0.257  -0.011   0.000  0.00  0.00     0.088 C 
ENDROOT
BRANCH   1   3
HETATM    3  C   UNK N   1       1.811   1.288   0.000  0.00  0.00     0.165 C 
HETATM    4  O   UNK N   1       1.215   2.356  -0.000  0.00  0.00    -0.647 OA
BRANCH   3   5
HETATM    5  O   UNK N   1       3.155   1.274  -0.000  0.00  0.00    -0.773 OA
HETATM    6  H   UNK N   1       3.615   0.457  -0.000  0.00  0.00     0.167 HD
ENDBRANCH   3   5
ENDBRANCH   1   3
BRANCH   2   7
HETATM    7  C   UNK N   1      -0.973  -1.290   0.000  0.00  0.00     0.165 C 
HETATM    8  O   UNK N   1      -2.190  -1.300  -0.000  0.00  0.00    -0.647 OA
BRANCH   7   9
HETATM    9  O   UNK N   1      -0.291  -2.453  -0.000  0.00  0.00    -0.773 OA
HETATM   10  H   UNK N   1      -0.755  -3.268  -0.000  0.00  0.00     0.167 HD
ENDBRANCH   7   9
ENDBRANCH   2   7
TORSDOF 4
