REMARK  5 active torsions:
REMARK  status: ('A' for Active; 'I' for Inactive)
REMARK    1  A    between atoms: N_3  and  C_14 
REMARK    2  A    between atoms: C_5  and  C_6 
REMARK    3  A    between atoms: C_6  and  C_7 
REMARK    4  A    between atoms: C_19  and  C_20 
REMARK    5  A    between atoms: C_30  and  C_32 
ROOT
HETATM    1  C   UNK N   1      -1.425   1.677   0.079  0.00  0.00     0.118 A 
HETATM    2  N   UNK N   1      -0.189   2.168   0.310  0.00  0.00    -0.285 N 
ATOM      3  HN  UNK N   1      -0.057   3.174   0.415  1.00  0.00     0.188 HD
HETATM    4  N   UNK N   1       0.855   1.354   0.404  0.00  0.00    -0.298 N 
ATOM      5  HN  UNK N   1       1.775   1.765   0.568  1.00  0.00     0.187 HD
HETATM    6  C   UNK N   1       0.762  -0.011   0.291  0.00  0.00     0.069 A 
HETATM    7  C   UNK N   1      -0.552  -0.584   0.157  0.00  0.00     0.007 A 
HETATM    8  C   UNK N   1      -1.608   0.307   0.037  0.00  0.00     0.064 A 
ENDROOT
BRANCH   1   9
HETATM    9  N   UNK N   1      -2.467   2.524  -0.349  0.00  0.00    -0.363 N 
HETATM   10  C   UNK N   1      -2.515   3.925  -0.021  0.00  0.00     0.143 C 
HETATM   11  C   UNK N   1      -3.947   4.239   0.421  0.00  0.00     0.134 C 
HETATM   12  N   UNK N   1      -4.914   3.803  -0.600  0.00  0.00    -0.414 N 
HETATM   13  C   UNK N   1      -4.798   2.362  -0.883  0.00  0.00     0.098 C 
HETATM   14  H   UNK N   1      -5.584   4.423  -1.055  0.00  0.00     0.153 HD
HETATM   15  C   UNK N   1      -3.403   2.027  -1.324  0.00  0.00     0.149 C 
BRANCH  13  16
HETATM   16  C   UNK N   1      -5.218   1.498   0.298  0.00  0.00     0.065 C 
BRANCH  16  17
HETATM   17  C   UNK N   1      -6.688   1.597   0.386  0.00  0.00    -0.056 A 
HETATM   18  C   UNK N   1      -7.485   0.767  -0.408  0.00  0.00     0.007 A 
HETATM   19  C   UNK N   1      -8.868   0.950  -0.430  0.00  0.00     0.001 A 
HETATM   20  C   UNK N   1      -9.449   1.973   0.327  0.00  0.00     0.000 A 
HETATM   21  C   UNK N   1      -8.648   2.804   1.116  0.00  0.00     0.001 A 
HETATM   22  C   UNK N   1      -7.266   2.619   1.142  0.00  0.00     0.007 A 
ENDBRANCH  16  17
ENDBRANCH  13  16
ENDBRANCH   1   9
BRANCH   7  23
HETATM   23  C   UNK N   1      -0.959  -2.017  -0.006  0.00  0.00    -0.021 A 
HETATM   24  C   UNK N   1      -0.176  -2.962  -0.670  0.00  0.00     0.029 A 
HETATM   25  C   UNK N   1      -0.664  -4.255  -0.882  0.00  0.00     0.088 A 
HETATM   26  N   UNK N   1      -1.907  -4.599  -0.448  0.00  0.00    -0.375 N 
HETATM   27  C   UNK N   1      -2.703  -3.702   0.188  0.00  0.00     0.088 A 
ATOM     28  HN  UNK N   1      -2.246  -5.548  -0.604  1.00  0.00     0.164 HD
HETATM   29  C   UNK N   1      -2.253  -2.401   0.402  0.00  0.00     0.029 A 
ENDBRANCH   7  23
BRANCH   6  30
HETATM   30  C   UNK N   1       2.063  -0.740   0.307  0.00  0.00    -0.006 A 
HETATM   31  C   UNK N   1       3.229   0.030   0.150  0.00  0.00     0.026 A 
HETATM   32  C   UNK N   1       4.482  -0.566   0.082  0.00  0.00    -0.025 A 
HETATM   33  C   UNK N   1       5.621   0.222  -0.096  0.00  0.00     0.012 A 
HETATM   34  C   UNK N   1       4.597  -1.966   0.179  0.00  0.00    -0.026 A 
HETATM   35  C   UNK N   1       6.878  -0.382  -0.176  0.00  0.00     0.001 A 
HETATM   36  C   UNK N   1       6.996  -1.773  -0.080  0.00  0.00     0.001 A 
HETATM   37  C   UNK N   1       5.856  -2.566   0.099  0.00  0.00     0.012 A 
HETATM   38  C   UNK N   1       3.450  -2.743   0.357  0.00  0.00     0.013 A 
HETATM   39  C   UNK N   1       2.193  -2.129   0.421  0.00  0.00     0.014 A 
ENDBRANCH   6  30
TORSDOF 5
