REMARK  14 active torsions:
REMARK  status: ('A' for Active; 'I' for Inactive)
REMARK    1  A    between atoms: C_29  and  C_20 
REMARK    2  A    between atoms: C_31  and  C_20 
REMARK    3  A    between atoms: C_26  and  C_21 
REMARK    4  A    between atoms: N_44  and  C_21 
REMARK    5  A    between atoms: C_29  and  C_22 
REMARK    6  A    between atoms: N_45  and  C_22 
REMARK    7  A    between atoms: C_27  and  C_25 
REMARK    8  A    between atoms: C_31  and  C_25 
REMARK    9  A    between atoms: C_29  and  O_46 
REMARK   10  A    between atoms: C_31  and  C_37 
REMARK   11  A    between atoms: C_32  and  C_38 
REMARK   12  A    between atoms: C_36  and  N_40 
REMARK   13  A    between atoms: O_49  and  C_38 
REMARK   14  A    between atoms: N_42  and  C_39 
ROOT
HETATM    1  C   UNK N   1      12.381  -6.774   0.001  0.00  0.00     0.001 A 
HETATM    2  C   UNK N   1      13.003  -5.512  -0.021  0.00  0.00     0.001 A 
HETATM    3  C   UNK N   1      10.988  -6.878  -0.139  0.00  0.00     0.008 A 
HETATM    4  C   UNK N   1      12.233  -4.355  -0.190  0.00  0.00     0.010 A 
HETATM    5  C   UNK N   1       8.769  -5.609  -0.376  0.00  0.00     0.073 C 
HETATM    6  C   UNK N   1      10.246  -5.712  -0.328  0.00  0.00    -0.047 A 
HETATM    7  C   UNK N   1      10.855  -4.488  -0.368  0.00  0.00    -0.027 A 
HETATM    8  C   UNK N   1       8.583  -4.145  -0.816  0.00  0.00     0.149 C 
HETATM    9  C   UNK N   1       9.877  -3.391  -0.411  0.00  0.00     0.146 C 
HETATM   10  O   UNK N   1       8.500  -4.155  -2.213  0.00  0.00    -0.393 OA
HETATM   11  H   UNK N   1       8.466  -4.109  -3.181  0.00  0.00     0.210 HD
ENDROOT
BRANCH   9  12
HETATM   12  N   UNK N   1       9.837  -2.889   0.941  0.00  0.00    -0.363 N 
HETATM   13  C   UNK N   1       9.762  -1.669   1.355  0.00  0.00     0.116 C 
HETATM   14  O   UNK N   1       9.804  -1.475   2.691  0.00  0.00    -0.349 OA
HETATM   15  H   UNK N   1       9.936  -1.433   3.618  0.00  0.00     0.219 HD
ATOM     16  HN  UNK N   1       9.874  -3.598   1.673  1.00  0.00     0.162 HD
BRANCH  13  17
HETATM   17  C   UNK N   1       9.504  -0.453   0.455  0.00  0.00     0.070 C 
BRANCH  17  18
HETATM   18  C   UNK N   1       9.229   0.736   1.398  0.00  0.00     0.047 C 
BRANCH  18  19
HETATM   19  C   UNK N   1       8.231   1.765   0.882  0.00  0.00     0.147 C 
BRANCH  19  20
HETATM   20  C   UNK N   1       6.938   1.076   0.461  0.00  0.00     0.305 C 
BRANCH  20  21
HETATM   21  N   UNK N   1       6.793   1.106  -1.004  0.00  0.00     0.106 N 
HETATM   22  C   UNK N   1       6.816  -0.216  -1.627  0.00  0.00     0.303 C 
HETATM   23  C   UNK N   1       5.788  -1.151  -1.013  0.00  0.00     0.303 C 
HETATM   24  N   UNK N   1       4.545  -0.484  -0.621  0.00  0.00     0.097 N 
HETATM   25  C   UNK N   1       4.324   0.947  -0.982  0.00  0.00     0.317 C 
HETATM   26  C   UNK N   1       5.554   1.769  -1.396  0.00  0.00     0.324 C 
BRANCH  24  27
HETATM   27  C   UNK N   1       4.283  -0.729   0.805  0.00  0.00     0.311 C 
BRANCH  27  28
HETATM   28  C   UNK N   1       2.912  -0.241   1.076  0.00  0.00    -0.027 A 
HETATM   29  C   UNK N   1       2.739   0.970   1.785  0.00  0.00     0.012 A 
HETATM   30  C   UNK N   1       1.516   1.657   1.702  0.00  0.00     0.040 A 
HETATM   31  C   UNK N   1       0.529   1.114   0.876  0.00  0.00     0.105 A 
HETATM   32  C   UNK N   1       0.699  -0.044   0.229  0.00  0.00     0.105 A 
HETATM   33  O   UNK N   1      -0.660   1.617   0.570  0.00  0.00    -0.323 OA
HETATM   34  C   UNK N   1       1.869  -0.767   0.293  0.00  0.00     0.048 A 
HETATM   35  O   UNK N   1      -0.385  -0.303  -0.500  0.00  0.00    -0.323 OA
HETATM   36  C   UNK N   1      -1.290   0.746  -0.329  0.00  0.00     0.352 A 
ENDBRANCH  27  28
ENDBRANCH  24  27
BRANCH  26  37
HETATM   37  C   UNK N   1       5.545   3.173  -0.830  0.00  0.00     0.148 C 
HETATM   38  N   UNK N   1       6.593   3.910  -1.015  0.00  0.00    -0.364 N 
ATOM     39  HN  UNK N   1       7.339   3.520  -1.590  1.00  0.00     0.162 HD
BRANCH  38  40
HETATM   40  C   UNK N   1       6.801   5.240  -0.478  0.00  0.00     0.021 C 
HETATM   41  C   UNK N   1       6.666   5.255   1.036  0.00  0.00     0.037 C 
HETATM   42  C   UNK N   1       5.832   6.229  -1.095  0.00  0.00     0.037 C 
HETATM   43  C   UNK N   1       8.214   5.664  -0.822  0.00  0.00     0.037 C 
ENDBRANCH  38  40
BRANCH  37  44
HETATM   44  O   UNK N   1       4.512   3.608  -0.075  0.00  0.00    -0.348 OA
HETATM   45  H   UNK N   1       4.415   4.379   0.449  0.00  0.00     0.219 HD
ENDBRANCH  37  44
ENDBRANCH  26  37
ENDBRANCH  20  21
ENDBRANCH  19  20
BRANCH  19  46
HETATM   46  O   UNK N   1       7.943   2.642   1.924  0.00  0.00    -0.394 OA
HETATM   47  H   UNK N   1       8.372   3.122   2.650  0.00  0.00     0.210 HD
ENDBRANCH  19  46
ENDBRANCH  18  19
ENDBRANCH  17  18
BRANCH  17  48
HETATM   48  C   UNK N   1      10.505  -0.008  -0.669  0.00  0.00     0.026 C 
HETATM   49  C   UNK N   1      10.038  -0.437  -2.063  0.00  0.00     0.016 C 
BRANCH  48  50
HETATM   50  C   UNK N   1      11.943  -0.372  -0.392  0.00  0.00    -0.054 A 
HETATM   51  C   UNK N   1      12.578   0.119   0.756  0.00  0.00     0.007 A 
HETATM   52  C   UNK N   1      13.915  -0.200   1.010  0.00  0.00     0.001 A 
HETATM   53  C   UNK N   1      14.626  -1.010   0.120  0.00  0.00     0.000 A 
HETATM   54  C   UNK N   1      14.002  -1.501  -1.028  0.00  0.00     0.001 A 
HETATM   55  C   UNK N   1      12.668  -1.182  -1.284  0.00  0.00     0.007 A 
ENDBRANCH  48  50
ENDBRANCH  17  48
ENDBRANCH  13  17
ENDBRANCH   9  12
TORSDOF 14
