REMARK  18 active torsions:
REMARK  status: ('A' for Active; 'I' for Inactive)
REMARK    1  A    between atoms: C_20  and  C_13 
REMARK    2  A    between atoms: C_25  and  C_13 
REMARK    3  A    between atoms: C_19  and  C_17 
REMARK    4  A    between atoms: O_46  and  C_17 
REMARK    5  A    between atoms: O_37  and  C_18 
REMARK    6  A    between atoms: C_29  and  C_23 
REMARK    7  A    between atoms: C_24  and  N_35 
REMARK    8  A    between atoms: C_30  and  C_25 
REMARK    9  A    between atoms: C_25  and  N_33 
REMARK   10  A    between atoms: O_46  and  C_26 
REMARK   11  A    between atoms: P_47  and  C_27 
REMARK   12  A    between atoms: P_48  and  C_28 
REMARK   13  A    between atoms: O_38  and  C_29 
REMARK   14  A    between atoms: C_30  and  O_39 
REMARK   15  A    between atoms: P_47  and  O_40 
REMARK   16  A    between atoms: P_47  and  O_41 
REMARK   17  A    between atoms: P_48  and  O_43 
REMARK   18  A    between atoms: P_48  and  O_44 
ROOT
HETATM    1  C   UNK N   1       4.310   3.640  -0.784  0.00  0.00     0.135 C 
HETATM    2  N   UNK N   1       3.883   3.253   0.364  0.00  0.00    -0.364 N 
ATOM      3  HN  UNK N   1       3.640   3.999   1.016  1.00  0.00     0.162 HD
ENDROOT
BRANCH   1   4
HETATM    4  C   UNK N   1       4.159   5.092  -1.095  0.00  0.00     0.162 C 
BRANCH   4   5
HETATM    5  C   UNK N   1       2.625   5.266  -1.116  0.00  0.00     0.072 C 
BRANCH   5   6
HETATM    6  C   UNK N   1       2.022   6.593  -0.793  0.00  0.00    -0.055 A 
HETATM    7  C   UNK N   1       0.644   6.671  -0.595  0.00  0.00     0.008 A 
HETATM    8  C   UNK N   1       0.056   7.876  -0.213  0.00  0.00     0.021 A 
HETATM    9  C   UNK N   1       0.846   9.012  -0.012  0.00  0.00     0.068 A 
HETATM   10  C   UNK N   1       2.244   8.928  -0.201  0.00  0.00     0.068 A 
HETATM   11  C   UNK N   1       2.808   7.722  -0.596  0.00  0.00     0.027 A 
BRANCH   9  12
HETATM   12  P   UNK N   1       0.005  10.575   0.452  0.00  0.00     0.272 P 
HETATM   13  O   UNK N   1       0.190  11.615  -0.685  0.00  0.00    -0.650 OA
BRANCH  12  14
HETATM   14  O   UNK N   1       0.598  11.370   1.875  0.00  0.00    -0.326 OA
HETATM   15  H   UNK N   1       1.149  11.305   2.671  0.00  0.00     0.220 HD
ENDBRANCH  12  14
BRANCH  12  16
HETATM   16  O   UNK N   1      -1.718  10.436   0.612  0.00  0.00    -0.326 OA
HETATM   17  H   UNK N   1      -2.266  11.231   0.701  0.00  0.00     0.220 HD
ENDBRANCH  12  16
ENDBRANCH   9  12
BRANCH  10  18
HETATM   18  P   UNK N   1       3.398  10.321   0.102  0.00  0.00     0.272 P 
HETATM   19  O   UNK N   1       4.832   9.884  -0.305  0.00  0.00    -0.650 OA
BRANCH  18  20
HETATM   20  O   UNK N   1       3.567  10.752   1.774  0.00  0.00    -0.326 OA
HETATM   21  H   UNK N   1       3.823  10.791   2.709  0.00  0.00     0.220 HD
ENDBRANCH  18  20
BRANCH  18  22
HETATM   22  O   UNK N   1       3.122  11.770  -0.807  0.00  0.00    -0.326 OA
HETATM   23  H   UNK N   1       3.747  12.310  -1.316  0.00  0.00     0.220 HD
ENDBRANCH  18  22
ENDBRANCH  10  18
ENDBRANCH   5   6
ENDBRANCH   4   5
BRANCH   4  24
HETATM   24  N   UNK N   1       4.761   5.875  -0.023  0.00  0.00    -0.362 N 
HETATM   25  C   UNK N   1       6.027   5.985   0.199  0.00  0.00     0.107 C 
HETATM   26  C   UNK N   1       7.043   5.323  -0.677  0.00  0.00     0.097 C 
ATOM     27  HN  UNK N   1       4.130   6.376   0.603  1.00  0.00     0.162 HD
BRANCH  25  28
HETATM   28  O   UNK N   1       6.448   6.727   1.240  0.00  0.00    -0.350 OA
HETATM   29  H   UNK N   1       7.042   6.732   1.965  0.00  0.00     0.219 HD
ENDBRANCH  25  28
ENDBRANCH   4  24
ENDBRANCH   1   4
BRANCH   1  30
HETATM   30  O   UNK N   1       4.784   2.772  -1.700  0.00  0.00    -0.348 OA
HETATM   31  H   UNK N   1       4.426   2.186  -2.337  0.00  0.00     0.219 HD
ENDBRANCH   1  30
BRANCH   2  32
HETATM   32  C   UNK N   1       3.699   1.916   0.858  0.00  0.00     0.117 C 
HETATM   33  C   UNK N   1       4.957   1.040   0.904  0.00  0.00     0.030 C 
HETATM   34  C   UNK N   1       5.250   0.269  -0.377  0.00  0.00     0.003 C 
HETATM   35  C   UNK N   1       4.183  -0.772  -0.741  0.00  0.00     0.005 C 
HETATM   36  C   UNK N   1       3.178  -1.042   0.383  0.00  0.00     0.039 C 
HETATM   37  C   UNK N   1       2.085  -0.020   0.346  0.00  0.00    -0.047 C 
HETATM   38  C   UNK N   1       0.761  -0.454   0.305  0.00  0.00     0.045 C 
HETATM   39  C   UNK N   1       2.352   1.361   0.445  0.00  0.00    -0.028 C 
HETATM   40  C   UNK N   1      -0.310   0.466   0.290  0.00  0.00     0.083 C 
HETATM   41  C   UNK N   1      -0.031   1.847   0.204  0.00  0.00     0.048 C 
HETATM   42  C   UNK N   1       1.282   2.269   0.323  0.00  0.00     0.028 C 
BRANCH  40  43
HETATM   43  O   UNK N   1      -1.578   0.055   0.415  0.00  0.00    -0.350 OA
BRANCH  43  44
HETATM   44  C   UNK N   1      -1.931  -1.113   1.059  0.00  0.00     0.180 C 
BRANCH  44  45
HETATM   45  C   UNK N   1      -2.843  -1.928   0.178  0.00  0.00     0.010 C 
HETATM   46  C   UNK N   1      -2.015  -2.468  -0.984  0.00  0.00     0.007 C 
HETATM   47  C   UNK N   1      -2.907  -3.173  -1.991  0.00  0.00     0.000 C 
HETATM   48  C   UNK N   1      -3.953  -2.196  -2.511  0.00  0.00     0.000 C 
HETATM   49  C   UNK N   1      -4.835  -1.730  -1.359  0.00  0.00     0.000 C 
HETATM   50  C   UNK N   1      -3.989  -1.030  -0.307  0.00  0.00     0.007 C 
ENDBRANCH  44  45
ENDBRANCH  43  44
ENDBRANCH  40  43
BRANCH  41  51
HETATM   51  C   UNK N   1      -1.120   2.866   0.082  0.00  0.00     0.146 C 
HETATM   52  N   UNK N   1      -2.348   2.544   0.089  0.00  0.00    -0.379 N 
HETATM   53  H   UNK N   1      -3.041   3.243   0.095  0.00  0.00     0.158 HD
ATOM     54  HN  UNK N   1      -2.617   1.560   0.089  1.00  0.00     0.158 HD
BRANCH  51  55
HETATM   55  O   UNK N   1      -0.783   4.167  -0.080  0.00  0.00    -0.346 OA
HETATM   56  H   UNK N   1       0.114   4.415  -0.192  0.00  0.00     0.219 HD
ENDBRANCH  51  55
ENDBRANCH  41  51
ENDBRANCH   2  32
TORSDOF 18
