REMARK  14 active torsions:
REMARK  status: ('A' for Active; 'I' for Inactive)
REMARK    1  A    between atoms: C_3  and  C_1 
REMARK    2  A    between atoms: O_28  and  C_1 
REMARK    3  A    between atoms: C_5  and  O_19 
REMARK    4  A    between atoms: O_21  and  C_8 
REMARK    5  A    between atoms: C_9  and  N_18 
REMARK       I    between atoms: N_11  and  C_10 
REMARK    6  A    between atoms: P_32  and  O_22 
REMARK    7  A    between atoms: P_33  and  O_24 
REMARK    8  A    between atoms: P_34  and  O_26 
REMARK    9  A    between atoms: P_34  and  O_27 
REMARK   10  A    between atoms: P_32  and  O_28 
REMARK   11  A    between atoms: P_32  and  O_30 
REMARK   12  A    between atoms: P_33  and  O_30 
REMARK   13  A    between atoms: P_33  and  O_31 
REMARK   14  A    between atoms: P_34  and  O_31 
ROOT
HETATM    1  C   UNK N   1      -0.730  -4.409   0.443  0.00  0.00     0.180 C 
HETATM    2  C   UNK N   1       0.719  -4.745   0.051  0.00  0.00     0.182 C 
HETATM    3  C   UNK N   1       1.300  -3.378  -0.263  0.00  0.00     0.198 C 
HETATM    4  C   UNK N   1       0.274  -2.475   0.395  0.00  0.00     0.262 C 
HETATM    5  O   UNK N   1       1.278  -3.144  -1.644  0.00  0.00    -0.388 OA
HETATM    6  O   UNK N   1      -0.969  -3.062   0.064  0.00  0.00    -0.353 OA
HETATM    7  H   UNK N   1       1.410  -3.049  -2.600  0.00  0.00     0.210 HD
ENDROOT
BRANCH   2   8
HETATM    8  O   UNK N   1       0.816  -5.588  -1.064  0.00  0.00    -0.390 OA
HETATM    9  H   UNK N   1       0.345  -5.938  -1.837  0.00  0.00     0.210 HD
ENDBRANCH   2   8
BRANCH   4  10
HETATM   10  N   UNK N   1       0.388  -1.060   0.026  0.00  0.00    -0.297 N 
HETATM   11  C   UNK N   1      -0.610  -0.143  -0.099  0.00  0.00     0.188 A 
HETATM   12  N   UNK N   1      -0.108   1.124  -0.205  0.00  0.00    -0.346 N 
HETATM   13  C   UNK N   1       1.228   0.961  -0.124  0.00  0.00     0.130 A 
ATOM     14  HN  UNK N   1      -0.626   1.995  -0.321  1.00  0.00     0.167 HD
HETATM   15  C   UNK N   1       1.517  -0.344   0.005  0.00  0.00     0.157 A 
HETATM   16  C   UNK N   1       2.250   1.900  -0.106  0.00  0.00     0.186 A 
HETATM   17  N   UNK N   1       2.786  -0.802   0.132  0.00  0.00    -0.174 N 
HETATM   18  C   UNK N   1       3.805   0.104   0.110  0.00  0.00     0.679 A 
HETATM   19  H   UNK N   1       2.967  -1.763   0.237  0.00  0.00     0.186 HD
HETATM   20  N   UNK N   1       5.015  -0.302   0.198  0.00  0.00    -0.234 N 
HETATM   21  N   UNK N   1       3.538   1.447   0.004  0.00  0.00    -0.168 N 
HETATM   22  H   UNK N   1       5.210  -1.265   0.266  0.00  0.00     0.174 HD
ATOM     23  HN  UNK N   1       5.780   0.373   0.198  1.00  0.00     0.174 HD
ATOM     24  HN  UNK N   1       4.308   2.115   0.008  1.00  0.00     0.186 HD
BRANCH  16  25
HETATM   25  O   UNK N   1       1.994   3.217  -0.171  0.00  0.00    -0.344 OA
HETATM   26  H   UNK N   1       2.701   3.831  -0.217  0.00  0.00     0.219 HD
ENDBRANCH  16  25
ENDBRANCH   4  10
BRANCH   1  27
HETATM   27  C   UNK N   1      -1.720  -5.419  -0.102  0.00  0.00     0.215 C 
BRANCH  27  28
HETATM   28  O   UNK N   1      -2.987  -5.194   0.422  0.00  0.00    -0.294 OA
BRANCH  28  29
HETATM   29  P   UNK N   1      -4.038  -5.403  -0.939  0.00  0.00     0.401 P 
HETATM   30  O   UNK N   1      -3.975  -6.905  -1.327  0.00  0.00    -0.631 OA
BRANCH  29  31
HETATM   31  O   UNK N   1      -3.515  -4.488  -2.319  0.00  0.00    -0.307 OA
HETATM   32  H   UNK N   1      -2.927  -4.485  -3.090  0.00  0.00     0.222 HD
ENDBRANCH  29  31
BRANCH  29  33
HETATM   33  O   UNK N   1      -5.695  -5.081  -0.536  0.00  0.00    -0.195 OA
BRANCH  33  34
HETATM   34  P   UNK N   1      -5.707  -3.677   0.503  0.00  0.00     0.409 P 
HETATM   35  O   UNK N   1      -5.161  -4.131   1.884  0.00  0.00    -0.631 OA
BRANCH  34  36
HETATM   36  O   UNK N   1      -4.691  -2.388  -0.065  0.00  0.00    -0.307 OA
HETATM   37  H   UNK N   1      -3.783  -2.519  -0.382  0.00  0.00     0.222 HD
ENDBRANCH  34  36
BRANCH  34  38
HETATM   38  O   UNK N   1      -7.339  -3.128   0.803  0.00  0.00    -0.213 OA
BRANCH  38  39
HETATM   39  P   UNK N   1      -8.295  -3.671  -0.550  0.00  0.00     0.332 P 
HETATM   40  S   UNK N   1      -9.127  -2.173  -0.113  0.00  0.00    -0.007 SA
BRANCH  39  41
HETATM   41  O   UNK N   1      -9.932  -4.207  -0.349  0.00  0.00    -0.324 OA
HETATM   42  H   UNK N   1     -10.649  -3.564  -0.236  0.00  0.00     0.220 HD
ENDBRANCH  39  41
BRANCH  39  43
HETATM   43  O   UNK N   1      -8.461  -4.807   0.757  0.00  0.00    -0.324 OA
HETATM   44  H   UNK N   1      -9.056  -5.043   1.485  0.00  0.00     0.220 HD
ENDBRANCH  39  43
ENDBRANCH  38  39
ENDBRANCH  34  38
ENDBRANCH  33  34
ENDBRANCH  29  33
ENDBRANCH  28  29
ENDBRANCH  27  28
ENDBRANCH   1  27
TORSDOF 14
