REMARK  4 active torsions:
REMARK  status: ('A' for Active; 'I' for Inactive)
REMARK    1  A    between atoms: C_2  and  C_1 
REMARK    2  A    between atoms: O_7  and  C_1 
REMARK    3  A    between atoms: C_4  and  O_9 
REMARK    4  A    between atoms: C_5  and  O_10 
ROOT
HETATM    1  C   UNK N   1       1.814   0.646   0.250  0.00  0.00     0.186 C 
HETATM    2  C   UNK N   1       0.631   1.520  -0.231  0.00  0.00     0.181 C 
HETATM    3  C   UNK N   1      -0.658   0.878   0.277  0.00  0.00     0.188 C 
HETATM    4  C   UNK N   1      -0.835  -0.528  -0.318  0.00  0.00     0.248 C 
HETATM    5  C   UNK N   1       0.464  -1.299  -0.333  0.00  0.00     0.291 C 
HETATM    6  O   UNK N   1       0.610   1.614  -1.627  0.00  0.00    -0.390 OA
HETATM    7  O   UNK N   1       0.455  -2.479  -0.654  0.00  0.00    -0.262 OA
HETATM    8  O   UNK N   1       1.657  -0.694  -0.079  0.00  0.00    -0.309 OA
HETATM    9  H   UNK N   1       0.659   1.659  -2.595  0.00  0.00     0.210 HD
ENDROOT
BRANCH   1  10
HETATM   10  C   UNK N   1       3.145   1.149  -0.302  0.00  0.00     0.199 C 
BRANCH  10  11
HETATM   11  O   UNK N   1       3.421   2.433   0.175  0.00  0.00    -0.398 OA
HETATM   12  H   UNK N   1       4.288   2.713   0.507  0.00  0.00     0.209 HD
ENDBRANCH  10  11
ENDBRANCH   1  10
BRANCH   3  13
HETATM   13  O   UNK N   1      -1.766   1.671  -0.036  0.00  0.00    -0.390 OA
HETATM   14  H   UNK N   1      -1.673   2.612  -0.254  0.00  0.00     0.210 HD
ENDBRANCH   3  13
BRANCH   4  15
HETATM   15  O   UNK N   1      -1.803  -1.215   0.418  0.00  0.00    -0.383 OA
HETATM   16  H   UNK N   1      -2.552  -0.871   0.930  0.00  0.00     0.210 HD
ENDBRANCH   4  15
TORSDOF 4
