REMARK  5 active torsions:
REMARK  status: ('A' for Active; 'I' for Inactive)
REMARK    1  A    between atoms: C_4  and  C_3 
REMARK    2  A    between atoms: O_9  and  C_3 
REMARK    3  A    between atoms: C_5  and  N_8 
REMARK    4  A    between atoms: C_6  and  O_10 
REMARK    5  A    between atoms: C_7  and  O_11 
ROOT
HETATM    1  C   UNK N   1       0.984  -1.095  -0.142  0.00  0.00     0.005 C 
HETATM    2  C   UNK N   1       2.044   1.154  -0.401  0.00  0.00     0.070 C 
HETATM    3  C   UNK N   1       2.061  -0.355  -0.468  0.00  0.00    -0.056 C 
HETATM    4  C   UNK N   1      -0.320  -0.485   0.313  0.00  0.00     0.129 C 
HETATM    5  C   UNK N   1       0.870   1.715   0.409  0.00  0.00     0.153 C 
HETATM    6  C   UNK N   1      -0.430   1.018  -0.006  0.00  0.00     0.172 C 
ENDROOT
BRANCH   3   7
HETATM    7  C   UNK N   1       3.312  -1.049  -0.893  0.00  0.00     0.198 C 
BRANCH   7   8
HETATM    8  O   UNK N   1       4.345  -0.743  -0.004  0.00  0.00    -0.397 OA
HETATM    9  H   UNK N   1       4.888  -1.259   0.613  0.00  0.00     0.209 HD
ENDBRANCH   7   8
ENDBRANCH   3   7
BRANCH   4  10
HETATM   10  N   UNK N   1      -1.439  -1.205  -0.279  0.00  0.00    -0.421 N 
HETATM   11  H   UNK N   1      -2.268  -0.778  -0.693  0.00  0.00     0.150 HD
HETATM   12  H   UNK N   1      -1.390  -2.223  -0.279  0.00  0.00     0.150 HD
ENDBRANCH   4  10
BRANCH   5  13
HETATM   13  O   UNK N   1       0.775   3.088   0.193  0.00  0.00    -0.393 OA
HETATM   14  H   UNK N   1       1.569   3.624   0.043  0.00  0.00     0.210 HD
ENDBRANCH   5  13
BRANCH   6  15
HETATM   15  O   UNK N   1      -0.651   1.218  -1.374  0.00  0.00    -0.391 OA
HETATM   16  H   UNK N   1      -0.607   1.419  -2.321  0.00  0.00     0.210 HD
ENDBRANCH   6  15
TORSDOF 5
