REMARK  12 active torsions:
REMARK  status: ('A' for Active; 'I' for Inactive)
REMARK    1  A    between atoms: C_25  and  C_21 
REMARK    2  A    between atoms: N_34  and  C_21 
REMARK    3  A    between atoms: C_26  and  C_22 
REMARK    4  A    between atoms: N_35  and  C_22 
REMARK    5  A    between atoms: C_29  and  C_23 
REMARK    6  A    between atoms: O_39  and  C_23 
REMARK    7  A    between atoms: C_30  and  C_24 
REMARK    8  A    between atoms: O_40  and  C_24 
REMARK    9  A    between atoms: O_39  and  C_27 
REMARK   10  A    between atoms: O_40  and  C_28 
REMARK   11  A    between atoms: C_31  and  O_36 
REMARK   12  A    between atoms: C_32  and  O_37 
ROOT
HETATM    1  C   UNK N   1       1.305   5.111  -0.976  0.00  0.00     0.145 C 
HETATM    2  C   UNK N   1       2.105   2.574   0.387  0.00  0.00     0.145 C 
HETATM    3  C   UNK N   1       0.350   4.473   0.050  0.00  0.00     0.174 C 
HETATM    4  C   UNK N   1       1.008   3.463   1.002  0.00  0.00     0.174 C 
HETATM    5  C   UNK N   1       3.609   4.468  -0.339  0.00  0.00     0.322 C 
HETATM    6  N   UNK N   1       2.623   5.411  -0.450  0.00  0.00    -0.320 N 
HETATM    7  N   UNK N   1       3.395   3.241   0.226  0.00  0.00    -0.320 N 
HETATM    8  O   UNK N   1       4.773   4.828  -0.486  0.00  0.00    -0.247 OA
ENDROOT
BRANCH   1   9
HETATM    9  C   UNK N   1       0.743   6.415  -1.610  0.00  0.00     0.203 C 
BRANCH   9  10
HETATM   10  O   UNK N   1      -0.602   6.611  -1.361  0.00  0.00    -0.349 OA
BRANCH  10  11
HETATM   11  C   UNK N   1      -1.059   7.431  -0.378  0.00  0.00     0.068 A 
HETATM   12  C   UNK N   1      -2.423   7.418  -0.067  0.00  0.00     0.037 A 
HETATM   13  C   UNK N   1      -2.918   8.202   0.980  0.00  0.00     0.003 A 
HETATM   14  C   UNK N   1      -2.051   9.010   1.721  0.00  0.00     0.000 A 
HETATM   15  C   UNK N   1      -0.689   9.040   1.412  0.00  0.00     0.003 A 
HETATM   16  C   UNK N   1      -0.191   8.252   0.369  0.00  0.00     0.037 A 
ENDBRANCH  10  11
ENDBRANCH   9  10
ENDBRANCH   1   9
BRANCH   3  17
HETATM   17  O   UNK N   1      -0.689   3.863  -0.666  0.00  0.00    -0.391 OA
HETATM   18  H   UNK N   1      -1.415   4.274  -1.161  0.00  0.00     0.210 HD
ENDBRANCH   3  17
BRANCH   6  19
HETATM   19  C   UNK N   1       2.690   6.489   0.538  0.00  0.00     0.166 C 
BRANCH  19  20
HETATM   20  C   UNK N   1       4.016   7.158   0.563  0.00  0.00    -0.040 A 
HETATM   21  C   UNK N   1       4.269   8.162  -0.363  0.00  0.00     0.009 A 
HETATM   22  C   UNK N   1       5.550   8.696  -0.476  0.00  0.00     0.001 A 
HETATM   23  C   UNK N   1       6.590   8.198   0.314  0.00  0.00     0.000 A 
HETATM   24  C   UNK N   1       6.343   7.187   1.248  0.00  0.00     0.001 A 
HETATM   25  C   UNK N   1       5.052   6.672   1.383  0.00  0.00     0.009 A 
ENDBRANCH  19  20
ENDBRANCH   6  19
BRANCH   4  26
HETATM   26  O   UNK N   1       0.004   2.667   1.565  0.00  0.00    -0.391 OA
HETATM   27  H   UNK N   1      -0.822   2.995   1.955  0.00  0.00     0.210 HD
ENDBRANCH   4  26
BRANCH   2  28
HETATM   28  C   UNK N   1       1.735   1.925  -0.945  0.00  0.00     0.203 C 
BRANCH  28  29
HETATM   29  O   UNK N   1       0.669   1.069  -0.817  0.00  0.00    -0.349 OA
BRANCH  29  30
HETATM   30  C   UNK N   1       0.781  -0.202  -0.367  0.00  0.00     0.068 A 
HETATM   31  C   UNK N   1       2.021  -0.750   0.015  0.00  0.00     0.037 A 
HETATM   32  C   UNK N   1       2.094  -2.063   0.485  0.00  0.00     0.003 A 
HETATM   33  C   UNK N   1       0.934  -2.838   0.570  0.00  0.00     0.000 A 
HETATM   34  C   UNK N   1      -0.297  -2.299   0.185  0.00  0.00     0.003 A 
HETATM   35  C   UNK N   1      -0.371  -0.985  -0.281  0.00  0.00     0.037 A 
ENDBRANCH  29  30
ENDBRANCH  28  29
ENDBRANCH   2  28
BRANCH   7  36
HETATM   36  C   UNK N   1       4.522   2.690   0.959  0.00  0.00     0.166 C 
BRANCH  36  37
HETATM   37  C   UNK N   1       5.116   1.526   0.295  0.00  0.00    -0.040 A 
HETATM   38  C   UNK N   1       5.753   1.670  -0.939  0.00  0.00     0.009 A 
HETATM   39  C   UNK N   1       6.331   0.558  -1.549  0.00  0.00     0.001 A 
HETATM   40  C   UNK N   1       6.272  -0.691  -0.920  0.00  0.00     0.000 A 
HETATM   41  C   UNK N   1       5.644  -0.824   0.322  0.00  0.00     0.001 A 
HETATM   42  C   UNK N   1       5.070   0.288   0.933  0.00  0.00     0.009 A 
ENDBRANCH  36  37
ENDBRANCH   7  36
TORSDOF 12
