REMARK  6 active torsions:
REMARK  status: ('A' for Active; 'I' for Inactive)
REMARK    1  A    between atoms: N_23  and  C_16 
REMARK    2  A    between atoms: N_29  and  C_16 
REMARK    3  A    between atoms: O_42  and  C_17 
REMARK    4  A    between atoms: C_18  and  N_29 
REMARK    5  A    between atoms: O_41  and  C_18 
REMARK    6  A    between atoms: P_45  and  O_43 
ROOT
HETATM    1  C   UNK N   1      -0.010  -8.318  -0.000  0.00  0.00     0.073 A 
HETATM    2  C   UNK N   1       0.076  -7.497   0.000  0.00  0.00     0.103 A 
HETATM    3  C   UNK N   1      -0.868  -1.194   0.000  0.00  0.00     0.198 A 
HETATM    4  C   UNK N   1       0.590  -4.359  -0.000  0.00  0.00     0.215 A 
HETATM    5  C   UNK N   1       0.399  -0.709  -0.000  0.00  0.00     0.180 A 
HETATM    6  C   UNK N   1       0.038  -4.973  -0.000  0.00  0.00     0.180 A 
HETATM    7  C   UNK N   1      -1.364  -8.653   0.000  0.00  0.00     0.144 A 
HETATM    8  C   UNK N   1       1.669  -0.297   0.000  0.00  0.00     0.199 A 
HETATM    9  C   UNK N   1      -1.119  -5.040   0.000  0.00  0.00     0.199 A 
HETATM   10  C   UNK N   1       1.184  -0.964  -0.000  0.00  0.00     0.197 A 
HETATM   11  C   UNK N   1      -1.383  -4.886  -0.000  0.00  0.00     0.197 A 
HETATM   12  C   UNK N   1      -0.505  -5.592  -0.000  0.00  0.00     0.264 A 
HETATM   13  C   UNK N   1       0.584  -0.229  -0.000  0.00  0.00     0.263 A 
HETATM   14  C   UNK N   1      -1.945  -7.348  -0.000  0.00  0.00     0.330 A 
HETATM   15  N   UNK N   1      -2.031  -8.168   0.000  0.00  0.00    -0.289 N 
ATOM     16  HN  UNK N   1      -2.963  -8.583   0.000  1.00  0.00     0.172 HD
HETATM   17  N   UNK N   1      -0.592  -6.413  -0.000  0.00  0.00    -0.280 N 
HETATM   18  O   UNK N   1      -1.622  -0.858  -0.000  0.00  0.00    -0.398 OA
HETATM   19  O   UNK N   1      -1.450  -9.474  -0.000  0.00  0.00    -0.346 OA
HETATM   20  O   UNK N   1       2.494  -0.897  -0.000  0.00  0.00    -0.388 OA
HETATM   21  O   UNK N   1      -2.525  -5.212   0.000  0.00  0.00    -0.388 OA
HETATM   22  O   UNK N   1      -2.613  -6.863  -0.000  0.00  0.00    -0.246 OA
HETATM   23  O   UNK N   1      -0.668  -3.870   0.000  0.00  0.00    -0.307 OA
HETATM   24  O   UNK N   1      -2.097  -2.445  -0.000  0.00  0.00    -0.307 OA
HETATM   25  O   UNK N   1      -0.970  -2.743   0.000  0.00  0.00    -0.632 OA
HETATM   26  O   UNK N   1      -0.326  -2.410  -0.000  0.00  0.00    -0.307 OA
HETATM   27  O   UNK N   1       1.500  -2.914  -0.000  0.00  0.00    -0.631 OA
HETATM   28  O   UNK N   1       0.335  -2.975   0.000  0.00  0.00    -0.294 OA
HETATM   29  O   UNK N   1      -0.201  -0.484  -0.000  0.00  0.00    -0.353 OA
HETATM   30  O   UNK N   1       0.209  -5.179  -0.000  0.00  0.00    -0.353 OA
HETATM   31  O   UNK N   1      -1.795  -3.572   0.000  0.00  0.00    -0.286 OA
HETATM   32  O   UNK N   1       1.439  -2.349   0.000  0.00  0.00    -0.286 OA
HETATM   33  P   UNK N   1      -1.383  -2.857   0.000  0.00  0.00     0.391 P 
HETATM   34  P   UNK N   1       0.887  -2.962   0.000  0.00  0.00     0.393 P 
HETATM   35  H   UNK N   1      -1.723   0.106  -0.000  0.00  0.00     0.209 HD
HETATM   36  H   UNK N   1      -2.306  -9.855  -0.000  0.00  0.00     0.219 HD
HETATM   37  H   UNK N   1       2.392  -1.861  -0.000  0.00  0.00     0.210 HD
HETATM   38  H   UNK N   1      -3.108  -4.436  -0.000  0.00  0.00     0.210 HD
HETATM   39  H   UNK N   1      -1.075  -4.750  -0.000  0.00  0.00     0.222 HD
HETATM   40  H   UNK N   1      -2.097  -1.475  -0.000  0.00  0.00     0.222 HD
HETATM   41  H   UNK N   1      -0.420  -1.444  -0.000  0.00  0.00     0.222 HD
ENDROOT
BRANCH  13  42
HETATM   42  N   UNK N   1       0.839   1.155  -0.000  0.00  0.00    -0.286 N 
HETATM   43  C   UNK N   1       0.354   1.823   0.000  0.00  0.00     0.189 A 
HETATM   44  N   UNK N   1       0.839   2.490  -0.000  0.00  0.00    -0.345 N 
HETATM   45  C   UNK N   1       1.623   2.235   0.000  0.00  0.00     0.136 A 
ATOM     46  HN  UNK N   1       0.524   3.460  -0.000  1.00  0.00     0.167 HD
HETATM   47  C   UNK N   1       2.938   2.648   0.000  0.00  0.00     0.132 A 
HETATM   48  C   UNK N   1       2.223   1.410  -0.000  0.00  0.00     0.216 A 
HETATM   49  N   UNK N   1       2.938   3.473  -0.000  0.00  0.00    -0.383 N 
HETATM   50  N   UNK N   1       3.652   2.235   0.000  0.00  0.00    -0.326 N 
HETATM   51  H   UNK N   1       3.790   3.965  -0.000  0.00  0.00     0.157 HD
HETATM   52  H   UNK N   1       2.085   3.965  -0.000  0.00  0.00     0.157 HD
HETATM   53  C   UNK N   1       3.652   0.810  -0.000  0.00  0.00     0.279 A 
ATOM     54  HN  UNK N   1       4.536   2.745  -0.000  1.00  0.00     0.169 HD
HETATM   55  N   UNK N   1       2.938   0.998  -0.000  0.00  0.00    -0.380 NA
BRANCH  55  56
ENDBRANCH  55  56
BRANCH  48  56
ENDBRANCH  48  56
BRANCH  48  56
ENDBRANCH  48  56
ENDBRANCH  13  42
TORSDOF 6
