REMARK  5 active torsions:
REMARK  status: ('A' for Active; 'I' for Inactive)
REMARK    1  A    between atoms: C_2  and  C_4 
REMARK    2  A    between atoms: C_4  and  C_5 
REMARK    3  A    between atoms: C_5  and  N_6 
REMARK    4  A    between atoms: C_5  and  C_7 
REMARK    5  A    between atoms: C_7  and  O_8 
ROOT
HETATM    1  C   UNK N   1       2.196   1.223   0.402  0.00  0.00     0.173 C 
ENDROOT
BRANCH   1   2
HETATM    2  C   UNK N   1       0.980   0.686  -0.348  0.00  0.00     0.039 C 
BRANCH   2   3
HETATM    3  C   UNK N   1      -0.321   1.171   0.282  0.00  0.00    -0.020 C 
HETATM    4  C   UNK N   1      -1.461   0.275  -0.153  0.00  0.00     0.009 C 
HETATM    5  C   UNK N   1      -0.628   2.597  -0.136  0.00  0.00     0.009 C 
ENDBRANCH   2   3
ENDBRANCH   1   2
BRANCH   1   6
HETATM    6  N   UNK N   1       2.377   2.640   0.121  0.00  0.00    -0.418 N 
HETATM    7  H   UNK N   1       3.300   3.027  -0.077  0.00  0.00     0.150 HD
HETATM    8  H   UNK N   1       1.565   3.258   0.121  0.00  0.00     0.150 HD
ENDBRANCH   1   6
BRANCH   1   9
HETATM    9  C   UNK N   1       3.436   0.454   0.045  0.00  0.00     0.163 C 
HETATM   10  O   UNK N   1       3.464  -0.757   0.196  0.00  0.00    -0.648 OA
BRANCH   9  11
HETATM   11  O   UNK N   1       4.533   1.092  -0.408  0.00  0.00    -0.775 OA
HETATM   12  H   UNK N   1       5.299   0.653  -0.723  0.00  0.00     0.167 HD
ENDBRANCH   9  11
ENDBRANCH   1   9
TORSDOF 5
