REMARK  3 active torsions:
REMARK  status: ('A' for Active; 'I' for Inactive)
REMARK    1  A    between atoms: C_2  and  N_1 
REMARK    2  A    between atoms: C_2  and  C_3 
REMARK    3  A    between atoms: C_2  and  C_5 
ROOT
HETATM    1  C   UNK N   1       1.462   0.587  -0.000  0.00  0.00     0.297 C 
ENDROOT
BRANCH   1   2
HETATM    2  N   UNK N   1       2.797   0.017   0.000  0.00  0.00    -0.064 N 
HETATM    3  H   UNK N   1       2.919  -0.995   0.000  0.00  0.00     0.275 HD
HETATM    4  H   UNK N   1       3.613   0.630   0.000  0.00  0.00     0.275 HD
HETATM    5  H   UNK N   1       3.735  -0.383   0.000  0.00  0.00     0.275 HD
ENDBRANCH   1   2
BRANCH   1   6
HETATM    6  C   UNK N   1       1.404   2.119   0.000  0.00  0.00     0.158 C 
HETATM    7 Cl   UNK N   1      -0.227   2.839  -0.000  0.00  0.00    -0.128 Cl
ENDBRANCH   1   6
BRANCH   1   8
HETATM    8  C   UNK N   1       0.320  -0.397   0.000  0.00  0.00     0.205 C 
HETATM    9  O   UNK N   1       0.581  -1.719   0.000  0.00  0.00    -0.646 OA
HETATM   10  O   UNK N   1      -0.838  -0.016   0.000  0.00  0.00    -0.646 OA
ENDBRANCH   1   8
TORSDOF 3
