REMARK  9 active torsions:
REMARK  status: ('A' for Active; 'I' for Inactive)
REMARK    1  A    between atoms: C_2  and  C_1 
REMARK    2  A    between atoms: C_3  and  C_1 
REMARK    3  A    between atoms: C_4  and  C_2 
REMARK    4  A    between atoms: C_2  and  C_5 
REMARK    5  A    between atoms: O_8  and  C_3 
REMARK    6  A    between atoms: C_6  and  C_4 
REMARK    7  A    between atoms: C_4  and  O_14 
REMARK    8  A    between atoms: O_10  and  C_5 
REMARK    9  A    between atoms: O_12  and  C_6 
ROOT
HETATM    1  C   UNK N   1       1.394  -0.202   0.037  0.00  0.00     0.136 C 
ENDROOT
BRANCH   1   2
HETATM    2  C   UNK N   1       2.450   0.142  -1.032  0.00  0.00     0.128 C 
BRANCH   2   3
HETATM    3  C   UNK N   1       3.843   0.136  -0.474  0.00  0.00     0.140 C 
HETATM    4  O   UNK N   1       4.312  -0.881   0.010  0.00  0.00    -0.650 OA
BRANCH   3   5
HETATM    5  O   UNK N   1       4.572   1.268  -0.491  0.00  0.00    -0.776 OA
HETATM    6  H   UNK N   1       5.507   1.223  -0.502  0.00  0.00     0.167 HD
ENDBRANCH   3   5
ENDBRANCH   2   3
ENDBRANCH   1   2
BRANCH   1   7
HETATM    7  C   UNK N   1       0.225   0.812   0.002  0.00  0.00     0.272 C 
BRANCH   7   8
HETATM    8  C   UNK N   1       0.633   2.258   0.174  0.00  0.00     0.174 C 
HETATM    9  O   UNK N   1       1.805   2.575   0.306  0.00  0.00    -0.648 OA
BRANCH   8  10
HETATM   10  O   UNK N   1      -0.314   3.215   0.184  0.00  0.00    -0.774 OA
HETATM   11  H   UNK N   1      -0.067   4.119   0.191  0.00  0.00     0.167 HD
ENDBRANCH   8  10
ENDBRANCH   7   8
BRANCH   7  12
HETATM   12  O   UNK N   1      -0.497   0.680  -1.189  0.00  0.00    -0.223 OA
HETATM   13 Ca   UNK N   1      -2.495  -0.232  -0.537  0.00  0.00     0.000 Ca
ENDBRANCH   7  12
ENDBRANCH   1   7
BRANCH   1  14
HETATM   14  C   UNK N   1       0.873  -1.613  -0.152  0.00  0.00     0.147 C 
HETATM   15  O   UNK N   1       1.262  -2.307  -1.082  0.00  0.00    -0.650 OA
BRANCH  14  16
HETATM   16  O   UNK N   1      -0.039  -2.111   0.704  0.00  0.00    -0.776 OA
HETATM   17  H   UNK N   1      -0.656  -1.734   1.300  0.00  0.00     0.167 HD
ENDBRANCH  14  16
ENDBRANCH   1  14
TORSDOF 9
