REMARK  12 active torsions:
REMARK  status: ('A' for Active; 'I' for Inactive)
REMARK    1  A    between atoms: S_1  and  C_20 
REMARK    2  A    between atoms: S_1  and  C_24 
REMARK    3  A    between atoms: C_16  and  O_3 
REMARK    4  A    between atoms: C_17  and  O_4 
REMARK    5  A    between atoms: O_5  and  C_29 
REMARK    6  A    between atoms: C_19  and  N_7 
REMARK    7  A    between atoms: N_14  and  C_26 
REMARK    8  A    between atoms: C_27  and  N_15 
REMARK    9  A    between atoms: C_18  and  C_20 
REMARK   10  A    between atoms: C_24  and  C_25 
REMARK   11  A    between atoms: C_25  and  C_27 
REMARK   12  A    between atoms: C_27  and  C_29 
ROOT
HETATM    1  O   UNK N   1      15.267 -11.087   1.354  0.00  0.00    -0.355 OA
HETATM    2  C   UNK N   1      17.426 -10.270   0.884  0.00  0.00     0.180 C 
HETATM    3  C   UNK N   1      17.194 -11.479   0.012  0.00  0.00     0.198 C 
HETATM    4  C   UNK N   1      16.054  -9.931   1.462  0.00  0.00     0.165 C 
HETATM    5  C   UNK N   1      15.677 -11.641   0.131  0.00  0.00     0.262 C 
ENDROOT
BRANCH   5   6
HETATM    6  N   UNK N   1      15.124 -12.985  -0.047  0.00  0.00    -0.297 N 
HETATM    7  C   UNK N   1      13.823 -13.286  -0.080  0.00  0.00     0.142 A 
HETATM    8  N   UNK N   1      12.772 -12.437   0.028  0.00  0.00    -0.336 N 
HETATM    9  C   UNK N   1      13.671 -14.612  -0.245  0.00  0.00     0.122 A 
HETATM   10  C   UNK N   1      11.511 -12.967  -0.035  0.00  0.00     0.183 A 
ATOM     11  HN  UNK N   1      12.915 -11.435   0.152  1.00  0.00     0.168 HD
HETATM   12  N   UNK N   1      11.331 -14.320  -0.198  0.00  0.00    -0.337 N 
HETATM   13  C   UNK N   1      12.402 -15.164  -0.304  0.00  0.00     0.131 A 
ATOM     14  HN  UNK N   1      10.386 -14.700  -0.240  1.00  0.00     0.168 HD
HETATM   15  N   UNK N   1      14.878 -15.203  -0.326  0.00  0.00    -0.346 N 
HETATM   16  C   UNK N   1      15.765 -14.174  -0.204  0.00  0.00     0.188 A 
ATOM     17  HN  UNK N   1      15.083 -16.194  -0.450  1.00  0.00     0.167 HD
BRANCH  13  18
HETATM   18  N   UNK N   1      12.211 -16.550  -0.468  0.00  0.00    -0.383 N 
HETATM   19  H   UNK N   1      11.305 -16.919  -0.582  0.00  0.00     0.157 HD
HETATM   20  H   UNK N   1      12.988 -17.154  -0.468  0.00  0.00     0.157 HD
ENDBRANCH  13  18
ENDBRANCH   5   6
BRANCH   3  21
HETATM   21  O   UNK N   1      17.872 -12.548   0.597  0.00  0.00    -0.388 OA
HETATM   22  H   UNK N   1      17.464 -13.328   1.004  0.00  0.00     0.210 HD
ENDBRANCH   3  21
BRANCH   4  23
HETATM   23  C   UNK N   1      15.331  -8.704   0.880  0.00  0.00     0.108 C 
BRANCH  23  24
HETATM   24  S   UNK N   1      14.880  -8.831  -0.890  0.00  0.00    -0.166 SA
BRANCH  24  25
HETATM   25  C   UNK N   1      16.040  -7.530  -1.408  0.00  0.00     0.076 C 
BRANCH  25  26
HETATM   26  C   UNK N   1      15.418  -6.169  -1.156  0.00  0.00     0.045 C 
BRANCH  26  27
HETATM   27  C   UNK N   1      15.746  -5.714   0.255  0.00  0.00     0.174 C 
BRANCH  27  28
HETATM   28  N   UNK N   1      14.564  -5.143   0.876  0.00  0.00    -0.418 N 
HETATM   29  H   UNK N   1      14.496  -4.223   1.312  0.00  0.00     0.150 HD
HETATM   30  H   UNK N   1      13.721  -5.717   0.876  0.00  0.00     0.150 HD
ENDBRANCH  27  28
BRANCH  27  31
HETATM   31  C   UNK N   1      16.852  -4.711   0.240  0.00  0.00     0.163 C 
HETATM   32  O   UNK N   1      17.903  -4.957   0.807  0.00  0.00    -0.648 OA
BRANCH  31  33
HETATM   33  O   UNK N   1      16.691  -3.532  -0.393  0.00  0.00    -0.775 OA
HETATM   34  H   UNK N   1      17.345  -3.026  -0.833  0.00  0.00     0.167 HD
ENDBRANCH  31  33
ENDBRANCH  27  31
ENDBRANCH  26  27
ENDBRANCH  25  26
ENDBRANCH  24  25
ENDBRANCH  23  24
ENDBRANCH   4  23
BRANCH   2  35
HETATM   35  O   UNK N   1      18.010  -9.209   0.190  0.00  0.00    -0.390 OA
HETATM   36  H   UNK N   1      18.852  -9.192  -0.292  0.00  0.00     0.210 HD
ENDBRANCH   2  35
TORSDOF 12
