REMARK  18 active torsions:
REMARK  status: ('A' for Active; 'I' for Inactive)
REMARK    1  A    between atoms: C_4  and  C_1 
REMARK    2  A    between atoms: O_19  and  C_1 
REMARK    3  A    between atoms: C_5  and  C_2 
REMARK    4  A    between atoms: O_20  and  C_2 
REMARK    5  A    between atoms: C_6  and  C_3 
REMARK    6  A    between atoms: O_21  and  C_3 
REMARK    7  A    between atoms: C_7  and  O_22 
REMARK    8  A    between atoms: C_8  and  O_23 
REMARK    9  A    between atoms: C_9  and  O_24 
REMARK   10  A    between atoms: C_10  and  O_25 
REMARK   11  A    between atoms: C_11  and  O_26 
REMARK   12  A    between atoms: C_12  and  O_27 
REMARK   13  A    between atoms: C_13  and  O_28 
REMARK   14  A    between atoms: C_14  and  O_33 
REMARK   15  A    between atoms: C_15  and  O_34 
REMARK   16  A    between atoms: C_16  and  O_29 
REMARK   17  A    between atoms: C_17  and  O_34 
REMARK   18  A    between atoms: C_18  and  O_33 
ROOT
HETATM    1  C   UNK N   1       1.064  -3.718   0.310  0.00  0.00     0.180 C 
HETATM    2  C   UNK N   1      -0.361  -5.730   0.367  0.00  0.00     0.183 C 
HETATM    3  C   UNK N   1       0.389  -6.199  -0.894  0.00  0.00     0.204 C 
HETATM    4  C   UNK N   1      -0.404  -4.178   0.447  0.00  0.00     0.187 C 
HETATM    5  C   UNK N   1       1.794  -5.542  -1.013  0.00  0.00     0.292 C 
HETATM    6  O   UNK N   1       1.648  -4.137  -0.912  0.00  0.00    -0.348 OA
ENDROOT
BRANCH   4   7
HETATM    7  O   UNK N   1      -1.264  -3.615  -0.550  0.00  0.00    -0.348 OA
BRANCH   7   8
HETATM    8  C   UNK N   1      -1.979  -2.488  -0.033  0.00  0.00     0.292 C 
HETATM    9  C   UNK N   1      -3.093  -2.056  -1.009  0.00  0.00     0.204 C 
HETATM   10  C   UNK N   1      -3.796  -0.794  -0.457  0.00  0.00     0.183 C 
HETATM   11  C   UNK N   1      -2.743   0.292  -0.186  0.00  0.00     0.180 C 
HETATM   12  C   UNK N   1      -1.662  -0.288   0.740  0.00  0.00     0.179 C 
HETATM   13  O   UNK N   1      -1.075  -1.413   0.124  0.00  0.00    -0.348 OA
BRANCH   9  14
HETATM   14  O   UNK N   1      -4.021  -3.085  -1.181  0.00  0.00    -0.388 OA
HETATM   15  H   UNK N   1      -4.963  -2.885  -1.300  0.00  0.00     0.210 HD
ENDBRANCH   9  14
BRANCH  10  16
HETATM   16  O   UNK N   1      -4.471  -1.103   0.730  0.00  0.00    -0.390 OA
HETATM   17  H   UNK N   1      -4.891  -0.804   1.552  0.00  0.00     0.210 HD
ENDBRANCH  10  16
BRANCH  11  18
HETATM   18  O   UNK N   1      -3.338   1.414   0.399  0.00  0.00    -0.390 OA
HETATM   19  H   UNK N   1      -2.870   2.160   0.804  0.00  0.00     0.210 HD
ENDBRANCH  11  18
BRANCH  12  20
HETATM   20  C   UNK N   1      -0.561   0.736   1.019  0.00  0.00     0.198 C 
BRANCH  20  21
HETATM   21  O   UNK N   1       0.118   1.079  -0.153  0.00  0.00    -0.398 OA
HETATM   22  H   UNK N   1       0.560   0.790  -0.967  0.00  0.00     0.209 HD
ENDBRANCH  20  21
ENDBRANCH  12  20
ENDBRANCH   7   8
ENDBRANCH   4   7
BRANCH   1  23
HETATM   23  C   UNK N   1       1.383  -2.239   0.497  0.00  0.00     0.198 C 
BRANCH  23  24
HETATM   24  O   UNK N   1       1.368  -1.565  -0.729  0.00  0.00    -0.398 OA
HETATM   25  H   UNK N   1       1.769  -1.322  -1.579  0.00  0.00     0.209 HD
ENDBRANCH  23  24
ENDBRANCH   1  23
BRANCH   2  26
HETATM   26  O   UNK N   1      -1.655  -6.255   0.396  0.00  0.00    -0.390 OA
HETATM   27  H   UNK N   1      -2.420  -5.659   0.417  0.00  0.00     0.210 HD
ENDBRANCH   2  26
BRANCH   3  28
HETATM   28  O   UNK N   1       0.501  -7.595  -0.916  0.00  0.00    -0.388 OA
HETATM   29  H   UNK N   1      -0.298  -8.145  -0.932  0.00  0.00     0.210 HD
ENDBRANCH   3  28
BRANCH   5  30
HETATM   30  O   UNK N   1       2.820  -6.143  -0.205  0.00  0.00    -0.348 OA
BRANCH  30  31
HETATM   31  C   UNK N   1       3.747  -5.354   0.568  0.00  0.00     0.187 C 
HETATM   32  C   UNK N   1       4.401  -4.098  -0.125  0.00  0.00     0.180 C 
HETATM   33  O   UNK N   1       5.257  -4.453  -1.205  0.00  0.00    -0.349 OA
HETATM   34  C   UNK N   1       6.325  -5.303  -0.811  0.00  0.00     0.288 C 
HETATM   35  C   UNK N   1       5.807  -6.599  -0.169  0.00  0.00     0.204 C 
HETATM   36  C   UNK N   1       4.906  -6.262   1.023  0.00  0.00     0.183 C 
BRANCH  32  37
HETATM   37  C   UNK N   1       5.107  -3.185   0.891  0.00  0.00     0.198 C 
BRANCH  37  38
HETATM   38  O   UNK N   1       4.199  -2.698   1.836  0.00  0.00    -0.398 OA
HETATM   39  H   UNK N   1       4.177  -1.984   2.492  0.00  0.00     0.209 HD
ENDBRANCH  37  38
ENDBRANCH  32  37
BRANCH  34  40
HETATM   40  O   UNK N   1       7.222  -4.633   0.032  0.00  0.00    -0.369 OA
HETATM   41  H   UNK N   1       7.934  -4.939   0.615  0.00  0.00     0.212 HD
ENDBRANCH  34  40
BRANCH  35  42
HETATM   42  O   UNK N   1       6.884  -7.386   0.245  0.00  0.00    -0.388 OA
HETATM   43  H   UNK N   1       6.784  -8.307   0.532  0.00  0.00     0.210 HD
ENDBRANCH  35  42
BRANCH  36  44
HETATM   44  O   UNK N   1       4.407  -7.433   1.602  0.00  0.00    -0.390 OA
HETATM   45  H   UNK N   1       3.531  -7.540   2.004  0.00  0.00     0.210 HD
ENDBRANCH  36  44
ENDBRANCH  30  31
ENDBRANCH   5  30
TORSDOF 18
