REMARK  14 active torsions:
REMARK  status: ('A' for Active; 'I' for Inactive)
REMARK    1  A    between atoms: C_10  and  C_6 
REMARK    2  A    between atoms: N_18  and  C_6 
REMARK    3  A    between atoms: C_11  and  C_7 
REMARK    4  A    between atoms: O_33  and  C_7 
REMARK    5  A    between atoms: C_13  and  O_26 
REMARK    6  A    between atoms: C_14  and  O_27 
REMARK    7  A    between atoms: N_18  and  C_15 
REMARK    8  A    between atoms: C_17  and  N_25 
REMARK    9  A    between atoms: P_36  and  O_28 
REMARK   10  A    between atoms: P_36  and  O_29 
REMARK   11  A    between atoms: P_37  and  O_31 
REMARK   12  A    between atoms: P_37  and  O_33 
REMARK   13  A    between atoms: P_36  and  O_35 
REMARK   14  A    between atoms: P_37  and  O_35 
ROOT
HETATM    1  C   UNK N   1      -0.786  -1.589   0.280  0.00  0.00     0.180 C 
HETATM    2  C   UNK N   1       0.488  -2.449   0.359  0.00  0.00     0.182 C 
HETATM    3  C   UNK N   1       1.504  -1.497  -0.168  0.00  0.00     0.198 C 
HETATM    4  C   UNK N   1       1.013  -0.249   0.544  0.00  0.00     0.262 C 
HETATM    5  O   UNK N   1      -0.388  -0.229   0.354  0.00  0.00    -0.353 OA
ENDROOT
BRANCH   4   6
HETATM    6  N   UNK N   1       1.639   0.962   0.021  0.00  0.00    -0.297 N 
HETATM    7  C   UNK N   1       1.014   2.027  -0.544  0.00  0.00     0.188 A 
HETATM    8  N   UNK N   1       1.906   3.000  -0.880  0.00  0.00    -0.346 N 
HETATM    9  C   UNK N   1       3.096   2.500  -0.505  0.00  0.00     0.122 A 
ATOM     10  HN  UNK N   1       1.714   3.901  -1.317  1.00  0.00     0.167 HD
HETATM   11  C   UNK N   1       4.349   3.074  -0.569  0.00  0.00     0.133 A 
HETATM   12  C   UNK N   1       2.939   1.283   0.034  0.00  0.00     0.142 A 
HETATM   13  N   UNK N   1       5.411   2.365  -0.080  0.00  0.00    -0.337 N 
HETATM   14  C   UNK N   1       5.231   1.107   0.446  0.00  0.00     0.183 A 
ATOM     15  HN  UNK N   1       6.346   2.773  -0.106  1.00  0.00     0.168 HD
HETATM   16  N   UNK N   1       3.977   0.560   0.516  0.00  0.00    -0.336 N 
ATOM     17  HN  UNK N   1       3.830  -0.366   0.919  1.00  0.00     0.168 HD
BRANCH  11  18
HETATM   18  N   UNK N   1       4.496   4.370  -1.093  0.00  0.00    -0.370 N 
HETATM   19  H   UNK N   1       3.956   4.629  -1.875  0.00  0.00     0.161 HD
BRANCH  18  20
HETATM   20  C   UNK N   1       5.406   5.331  -0.532  0.00  0.00     0.160 C 
BRANCH  20  21
HETATM   21  C   UNK N   1       4.631   6.554  -0.126  0.00  0.00    -0.041 A 
HETATM   22  C   UNK N   1       3.225   6.529  -0.043  0.00  0.00     0.009 A 
HETATM   23  C   UNK N   1       2.514   7.686   0.278  0.00  0.00     0.001 A 
HETATM   24  C   UNK N   1       3.198   8.880   0.511  0.00  0.00     0.000 A 
HETATM   25  C   UNK N   1       4.595   8.912   0.436  0.00  0.00     0.001 A 
HETATM   26  C   UNK N   1       5.310   7.751   0.119  0.00  0.00     0.009 A 
ENDBRANCH  20  21
ENDBRANCH  18  20
ENDBRANCH  11  18
ENDBRANCH   4   6
BRANCH   3  27
HETATM   27  O   UNK N   1       2.797  -1.877   0.195  0.00  0.00    -0.388 OA
HETATM   28  H   UNK N   1       3.018  -2.787   0.448  0.00  0.00     0.210 HD
ENDBRANCH   3  27
BRANCH   2  29
HETATM   29  O   UNK N   1       0.463  -3.653  -0.349  0.00  0.00    -0.390 OA
HETATM   30  H   UNK N   1      -0.270  -4.056  -0.841  0.00  0.00     0.210 HD
ENDBRANCH   2  29
BRANCH   1  31
HETATM   31  C   UNK N   1      -1.641  -1.819  -0.976  0.00  0.00     0.215 C 
BRANCH  31  32
HETATM   32  O   UNK N   1      -1.925  -3.183  -1.188  0.00  0.00    -0.294 OA
BRANCH  32  33
HETATM   33  P   UNK N   1      -3.140  -3.720  -0.045  0.00  0.00     0.401 P 
HETATM   34  O   UNK N   1      -2.498  -3.826   1.369  0.00  0.00    -0.631 OA
BRANCH  33  35
HETATM   35  O   UNK N   1      -4.460  -2.600   0.082  0.00  0.00    -0.307 OA
HETATM   36  H   UNK N   1      -4.287  -1.648   0.153  0.00  0.00     0.222 HD
ENDBRANCH  33  35
BRANCH  33  37
HETATM   37  O   UNK N   1      -3.709  -5.316  -0.496  0.00  0.00    -0.195 OA
BRANCH  37  38
HETATM   38  P   UNK N   1      -2.735  -6.492   0.361  0.00  0.00     0.399 P 
HETATM   39  O   UNK N   1      -1.830  -6.261  -0.881  0.00  0.00    -0.631 OA
BRANCH  38  40
HETATM   40  O   UNK N   1      -2.489  -8.110  -0.214  0.00  0.00    -0.307 OA
HETATM   41  H   UNK N   1      -3.204  -8.681  -0.535  0.00  0.00     0.222 HD
ENDBRANCH  38  40
BRANCH  38  42
HETATM   42  O   UNK N   1      -4.218  -7.204  -0.190  0.00  0.00    -0.307 OA
HETATM   43  H   UNK N   1      -4.977  -6.685  -0.498  0.00  0.00     0.222 HD
ENDBRANCH  38  42
ENDBRANCH  37  38
ENDBRANCH  33  37
ENDBRANCH  32  33
ENDBRANCH  31  32
ENDBRANCH   1  31
TORSDOF 14
