REMARK  7 active torsions:
REMARK  status: ('A' for Active; 'I' for Inactive)
REMARK    1  A    between atoms: C_5  and  N_4 
REMARK    2  A    between atoms: C_7  and  O_8 
REMARK    3  A    between atoms: C_9  and  C_10 
REMARK    4  A    between atoms: C_10  and  O_11 
REMARK    5  A    between atoms: O_11  and  P_12 
REMARK    6  A    between atoms: P_12  and  O_13 
REMARK    7  A    between atoms: P_12  and  O_14 
ROOT
HETATM    1  C   UNK N   1      -0.380   2.380   0.881  0.00  0.00     0.235 C 
HETATM    2  C   UNK N   1       0.482   1.628  -0.116  0.00  0.00     0.088 C 
HETATM    3  C   UNK N   1       0.304   0.255   0.425  0.00  0.00     0.153 C 
HETATM    4  C   UNK N   1      -1.172   0.261   0.780  0.00  0.00     0.177 C 
HETATM    5  O   UNK N   1      -1.458   1.550   1.275  0.00  0.00    -0.356 OA
ENDROOT
BRANCH   1   6
HETATM    6  N   UNK N   1      -0.789   3.708   0.384  0.00  0.00    -0.282 N 
HETATM    7  C   UNK N   1       0.208   4.608   0.149  0.00  0.00     0.110 A 
HETATM    8  C   UNK N   1      -0.074   5.905  -0.270  0.00  0.00     0.022 A 
HETATM    9  C   UNK N   1       1.044   6.862  -0.510  0.00  0.00     0.056 C 
HETATM   10  C   UNK N   1      -1.406   6.281  -0.444  0.00  0.00     0.256 A 
HETATM   11  N   UNK N   1      -2.399   5.370  -0.214  0.00  0.00    -0.275 N 
HETATM   12  O   UNK N   1      -1.693   7.413  -0.795  0.00  0.00    -0.267 OA
HETATM   13  C   UNK N   1      -2.111   4.094   0.195  0.00  0.00     0.331 A 
HETATM   14  H   UNK N   1      -3.338   5.635  -0.346  0.00  0.00     0.173 HD
HETATM   15  O   UNK N   1      -3.027   3.317   0.393  0.00  0.00    -0.246 OA
ENDBRANCH   1   6
BRANCH   3  16
HETATM   16  O   UNK N   1       0.653  -0.733  -0.497  0.00  0.00    -0.393 OA
HETATM   17  H   UNK N   1       0.180  -1.286  -1.138  0.00  0.00     0.210 HD
ENDBRANCH   3  16
BRANCH   4  18
HETATM   18  C   UNK N   1      -2.103  -0.017  -0.407  0.00  0.00     0.215 C 
BRANCH  18  19
HETATM   19  O   UNK N   1      -2.048  -1.362  -0.798  0.00  0.00    -0.294 OA
BRANCH  19  20
HETATM   20  P   UNK N   1      -3.153  -2.209   0.253  0.00  0.00     0.390 P 
HETATM   21  O   UNK N   1      -4.022  -2.063  -1.026  0.00  0.00    -0.632 OA
BRANCH  20  22
HETATM   22  O   UNK N   1      -3.620  -3.850  -0.059  0.00  0.00    -0.307 OA
HETATM   23  H   UNK N   1      -4.545  -4.083  -0.233  0.00  0.00     0.222 HD
ENDBRANCH  20  22
BRANCH  20  24
HETATM   24  O   UNK N   1      -1.773  -3.197  -0.116  0.00  0.00    -0.307 OA
HETATM   25  H   UNK N   1      -1.866  -4.140  -0.322  0.00  0.00     0.222 HD
ENDBRANCH  20  24
ENDBRANCH  19  20
ENDBRANCH  18  19
ENDBRANCH   4  18
TORSDOF 7
