REMARK  11 active torsions:
REMARK  status: ('A' for Active; 'I' for Inactive)
REMARK    1  A    between atoms: O_40  and  C_11 
REMARK    2  A    between atoms: O_41  and  C_12 
REMARK    3  A    between atoms: C_12  and  O_42 
REMARK    4  A    between atoms: S_48  and  O_37 
REMARK    5  A    between atoms: S_49  and  O_38 
REMARK    6  A    between atoms: S_50  and  O_39 
REMARK    7  A    between atoms: S_51  and  O_43 
REMARK    8  A    between atoms: S_52  and  O_44 
REMARK    9  A    between atoms: S_53  and  O_45 
REMARK   10  A    between atoms: S_54  and  O_46 
REMARK   11  A    between atoms: S_55  and  O_47 
ROOT
HETATM    1  C   UNK N   1       0.408  -0.392   0.000  0.00  0.00     0.226 A 
HETATM    2  C   UNK N   1      -1.669   3.614   0.000  0.00  0.00     0.226 A 
HETATM    3  C   UNK N   1       0.109   1.754   0.000  0.00  0.00     0.263 A 
HETATM    4  C   UNK N   1       0.961   0.221   0.000  0.00  0.00     0.183 A 
HETATM    5  C   UNK N   1      -0.884   3.359   0.000  0.00  0.00     0.183 A 
HETATM    6  C   UNK N   1       1.767   0.049   0.000  0.00  0.00     0.208 A 
HETATM    7  C   UNK N   1      -0.217   3.844   0.000  0.00  0.00     0.211 A 
HETATM    8  C   UNK N   1       2.320   0.662   0.000  0.00  0.00     0.212 A 
HETATM    9  C   UNK N   1       2.064   1.447   0.000  0.00  0.00     0.232 A 
HETATM   10  C   UNK N   1       0.451   3.359   0.000  0.00  0.00     0.241 A 
HETATM   11  C   UNK N   1       1.258   1.619   0.000  0.00  0.00     0.297 A 
HETATM   12  C   UNK N   1       0.196   2.575   0.000  0.00  0.00     0.221 A 
HETATM   13  O   UNK N   1      -0.338  -1.386   0.000  0.00  0.00    -0.274 OA
HETATM   14  O   UNK N   1      -1.564  -0.282   0.000  0.00  0.00    -0.579 OA
HETATM   15  O   UNK N   1      -1.503  -1.447   0.000  0.00  0.00    -0.579 OA
HETATM   16  O   UNK N   1      -3.851   3.572   0.000  0.00  0.00    -0.274 OA
HETATM   17  O   UNK N   1      -3.322   2.533   0.000  0.00  0.00    -0.579 OA
HETATM   18  O   UNK N   1      -2.812   4.102   0.000  0.00  0.00    -0.579 OA
HETATM   19  O   UNK N   1      -1.057   2.688   0.000  0.00  0.00    -0.274 OA
HETATM   20  O   UNK N   1      -1.797   1.236   0.000  0.00  0.00    -0.579 OA
HETATM   21  O   UNK N   1      -1.979   2.389   0.000  0.00  0.00    -0.579 OA
HETATM   22  O   UNK N   1       0.857  -0.796   0.000  0.00  0.00    -0.274 OA
HETATM   23  O   UNK N   1       2.083  -1.901   0.000  0.00  0.00    -0.579 OA
HETATM   24  O   UNK N   1       0.918  -1.962   0.000  0.00  0.00    -0.579 OA
HETATM   25  O   UNK N   1      -1.344   4.367   0.000  0.00  0.00    -0.274 OA
HETATM   26  O   UNK N   1      -0.519   5.796   0.000  0.00  0.00    -0.579 OA
HETATM   27  O   UNK N   1      -1.646   5.494   0.000  0.00  0.00    -0.579 OA
HETATM   28  O   UNK N   1       2.597  -0.549   0.000  0.00  0.00    -0.274 OA
HETATM   29  O   UNK N   1       4.166  -0.039   0.000  0.00  0.00    -0.579 OA
HETATM   30  O   UNK N   1       3.636  -1.078   0.000  0.00  0.00    -0.579 OA
HETATM   31  O   UNK N   1       3.146   3.100   0.000  0.00  0.00    -0.274 OA
HETATM   32  O   UNK N   1       1.577   2.590   0.000  0.00  0.00    -0.579 OA
HETATM   33  O   UNK N   1       2.107   3.629   0.000  0.00  0.00    -0.579 OA
HETATM   34  O   UNK N   1       0.600   4.593   0.000  0.00  0.00    -0.274 OA
HETATM   35  O   UNK N   1       2.214   4.250   0.000  0.00  0.00    -0.579 OA
HETATM   36  O   UNK N   1       1.578   5.228   0.000  0.00  0.00    -0.579 OA
HETATM   37  O   UNK N   1      -0.399  -0.221   0.000  0.00  0.00    -0.261 OA
HETATM   38  O   UNK N   1      -2.282   3.062   0.000  0.00  0.00    -0.261 OA
HETATM   39  O   UNK N   1      -0.644   1.419   0.000  0.00  0.00    -0.258 OA
HETATM   40  O   UNK N   1       0.706   1.005   0.000  0.00  0.00    -0.348 OA
HETATM   41  O   UNK N   1      -0.629   2.575   0.000  0.00  0.00    -0.341 OA
HETATM   42  O   UNK N   1       1.003   2.403   0.000  0.00  0.00    -0.318 OA
HETATM   43  O   UNK N   1       2.022  -0.735   0.000  0.00  0.00    -0.253 OA
HETATM   44  O   UNK N   1      -0.217   4.669   0.000  0.00  0.00    -0.253 OA
HETATM   45  O   UNK N   1       3.126   0.491   0.000  0.00  0.00    -0.253 OA
HETATM   46  O   UNK N   1       2.617   2.060   0.000  0.00  0.00    -0.251 OA
HETATM   47  O   UNK N   1       1.235   3.614   0.000  0.00  0.00    -0.250 OA
HETATM   48  S   UNK N   1      -0.951  -0.834   0.000  0.00  0.00     0.240 SA
HETATM   49  S   UNK N   1      -3.067   3.317   0.000  0.00  0.00     0.240 SA
HETATM   50  S   UNK N   1      -1.312   1.904   0.000  0.00  0.00     0.240 SA
HETATM   51  S   UNK N   1       1.470  -1.348   0.000  0.00  0.00     0.240 SA
HETATM   52  S   UNK N   1      -0.931   5.082   0.000  0.00  0.00     0.240 SA
HETATM   53  S   UNK N   1       3.381  -0.294   0.000  0.00  0.00     0.240 SA
HETATM   54  S   UNK N   1       2.362   2.845   0.000  0.00  0.00     0.241 SA
HETATM   55  S   UNK N   1       1.407   4.421   0.000  0.00  0.00     0.241 SA
HETATM   56  H   UNK N   1      -0.539  -2.335   0.000  0.00  0.00     0.234 HD
HETATM   57  H   UNK N   1      -4.053   4.521   0.000  0.00  0.00     0.234 HD
HETATM   58  H   UNK N   1      -0.108   2.890   0.000  0.00  0.00     0.234 HD
HETATM   59  H   UNK N   1       1.059   0.152   0.000  0.00  0.00     0.234 HD
HETATM   60  H   UNK N   1      -2.314   4.367   0.000  0.00  0.00     0.234 HD
HETATM   61  H   UNK N   1       1.876   0.100   0.000  0.00  0.00     0.234 HD
HETATM   62  H   UNK N   1       3.867   2.451   0.000  0.00  0.00     0.234 HD
HETATM   63  H   UNK N   1       0.300   5.515   0.000  0.00  0.00     0.234 HD
ENDROOT
TORSDOF 11
