REMARK  6 active torsions:
REMARK  status: ('A' for Active; 'I' for Inactive)
REMARK    1  A    between atoms: C_15  and  N_29 
REMARK    2  A    between atoms: N_32  and  C_18 
REMARK    3  A    between atoms: C_25  and  O_36 
REMARK    4  A    between atoms: O_34  and  C_26 
REMARK    5  A    between atoms: C_27  and  O_35 
REMARK    6  A    between atoms: N_33  and  C_28 
ROOT
HETATM    1  C   UNK N   1       4.341  -0.045  -1.359  0.00  0.00     0.074 C 
HETATM    2  C   UNK N   1       6.166  -1.590  -0.230  0.00  0.00     0.081 C 
HETATM    3  C   UNK N   1       4.838  -2.444   0.155  0.00  0.00     0.114 C 
HETATM    4  C   UNK N   1       6.191  -0.265   0.643  0.00  0.00     0.233 C 
HETATM    5  C   UNK N   1       3.461  -1.581   0.298  0.00  0.00     0.199 C 
HETATM    6  C   UNK N   1       3.957  -0.142   0.179  0.00  0.00     0.168 C 
HETATM    7  O   UNK N   1       4.943  -0.149   1.203  0.00  0.00    -0.333 OA
ENDROOT
BRANCH   3   8
HETATM    8  N   UNK N   1       4.683  -3.660  -0.648  0.00  0.00    -0.418 N 
HETATM    9  C   UNK N   1       4.575  -3.328  -2.063  0.00  0.00     0.140 C 
HETATM   10  H   UNK N   1       4.655  -4.606  -0.269  0.00  0.00     0.153 HD
ENDBRANCH   3   8
BRANCH   5  11
HETATM   11  O   UNK N   1       2.504  -1.890  -0.702  0.00  0.00    -0.384 OA
HETATM   12  C   UNK N   1       1.289  -2.237  -0.090  0.00  0.00     0.202 C 
ENDBRANCH   5  11
BRANCH   4  13
HETATM   13  N   UNK N   1       6.507   1.108   0.130  0.00  0.00    -0.316 N 
HETATM   14  C   UNK N   1       7.729   1.638  -0.114  0.00  0.00     0.048 A 
HETATM   15  C   UNK N   1       8.955   0.977  -0.127  0.00  0.00     0.030 A 
HETATM   16  C   UNK N   1       7.645   3.018  -0.278  0.00  0.00     0.004 A 
HETATM   17  C   UNK N   1      10.112   1.747  -0.351  0.00  0.00     0.002 A 
HETATM   18  C   UNK N   1      10.024   3.146  -0.533  0.00  0.00     0.001 A 
HETATM   19  C   UNK N   1       8.778   3.798  -0.487  0.00  0.00     0.014 A 
HETATM   20  C   UNK N   1       6.313   3.367  -0.127  0.00  0.00     0.021 A 
HETATM   21  C   UNK N   1       5.603   4.592  -0.105  0.00  0.00     0.040 A 
HETATM   22  C   UNK N   1       5.632   2.183   0.083  0.00  0.00     0.077 A 
HETATM   23  C   UNK N   1       4.228   4.616   0.101  0.00  0.00     0.019 A 
HETATM   24  C   UNK N   1       6.007   5.965  -0.233  0.00  0.00     0.150 A 
HETATM   25  C   UNK N   1       3.519   3.412   0.264  0.00  0.00     0.017 A 
HETATM   26  C   UNK N   1       3.750   6.039   0.094  0.00  0.00     0.256 A 
HETATM   27  C   UNK N   1       2.182   3.071   0.429  0.00  0.00     0.004 A 
HETATM   28  C   UNK N   1       4.207   2.221   0.247  0.00  0.00     0.077 A 
HETATM   29  C   UNK N   1       1.034   3.852   0.495  0.00  0.00     0.014 A 
HETATM   30  C   UNK N   1       2.121   1.679   0.472  0.00  0.00     0.049 A 
HETATM   31  C   UNK N   1      -0.202   3.187   0.610  0.00  0.00     0.001 A 
HETATM   32  C   UNK N   1      -0.263   1.773   0.644  0.00  0.00     0.002 A 
HETATM   33  C   UNK N   1       0.912   1.001   0.569  0.00  0.00     0.030 A 
HETATM   34  N   UNK N   1       3.360   1.162   0.341  0.00  0.00    -0.308 N 
HETATM   35  N   UNK N   1       5.003   6.760  -0.127  0.00  0.00    -0.340 N 
ATOM     36  HN  UNK N   1       5.071   7.776  -0.190  1.00  0.00     0.164 HD
BRANCH  34  37
ENDBRANCH  34  37
BRANCH  26  37
HETATM   37  O   UNK N   1       2.868   6.264  -0.963  0.00  0.00    -0.372 OA
HETATM   38  H   UNK N   1       2.697   6.873  -1.698  0.00  0.00     0.212 HD
ENDBRANCH  26  37
BRANCH  24  39
HETATM   39  O   UNK N   1       7.266   6.400  -0.427  0.00  0.00    -0.346 OA
HETATM   40  H   UNK N   1       7.966   5.792  -0.562  0.00  0.00     0.219 HD
ENDBRANCH  24  39
ENDBRANCH   4  13
TORSDOF 6
