REMARK  0 active torsions:
REMARK  status: ('A' for Active; 'I' for Inactive)
ROOT
HETATM    1  C   UNK N   1       0.476   3.144   0.000  0.00  0.00     0.049 C 
HETATM    2  C   UNK N   1       0.620   1.667  -0.000  0.00  0.00    -0.047 A 
HETATM    3  C   UNK N   1       1.886   1.078  -0.000  0.00  0.00     0.009 A 
HETATM    4  C   UNK N   1       2.000  -0.313  -0.000  0.00  0.00     0.018 A 
HETATM    5  C   UNK N   1       0.841  -1.094   0.000  0.00  0.00     0.087 A 
HETATM    6  N   UNK N   1      -0.385  -0.499  -0.000  0.00  0.00    -0.375 N 
ATOM      7  HN  UNK N   1      -1.222  -1.081  -0.000  1.00  0.00     0.164 HD
HETATM    8  C   UNK N   1      -0.515   0.854  -0.000  0.00  0.00     0.094 A 
ENDROOT
TORSDOF 0
