REMARK  7 active torsions:
REMARK  status: ('A' for Active; 'I' for Inactive)
REMARK    1  A    between atoms: C_2  and  N_1 
REMARK    2  A    between atoms: C_2  and  C_3 
REMARK    3  A    between atoms: C_2  and  C_7 
REMARK    4  A    between atoms: C_3  and  S_4 
REMARK    5  A    between atoms: S_4  and  As_5 
REMARK    6  A    between atoms: As_5  and  O_6 
REMARK    7  A    between atoms: C_7  and  O_8 
ROOT
HETATM    1  C   UNK N   1       5.059   2.286  -0.000  0.00  0.00     0.183 C 
ENDROOT
BRANCH   1   2
HETATM    2  N   UNK N   1       5.563   3.649   0.000  0.00  0.00    -0.417 N 
HETATM    3  H   UNK N   1       6.568   3.821   0.000  0.00  0.00     0.150 HD
HETATM    4  H   UNK N   1       4.911   4.433   0.000  0.00  0.00     0.150 HD
ENDBRANCH   1   2
BRANCH   1   5
HETATM    5  C   UNK N   1       3.532   2.148   0.000  0.00  0.00     0.121 C 
BRANCH   5   6
HETATM    6  S   UNK N   1       2.904   0.437  -0.000  0.00  0.00    -0.095 SA
BRANCH   6   7
HETATM    7 As   UNK N   1       0.677   0.942   0.000  0.00  0.00     0.000 As
HETATM    8  H   UNK N   1      -0.544   0.070   0.000  0.00  0.00     0.000 HD
BRANCH   7   9
HETATM    9  O   UNK N   1       0.873   2.771  -0.000  0.00  0.00    -0.253 OA
HETATM   10  H   UNK N   1       1.760   3.164  -0.000  0.00  0.00     0.253 HD
ENDBRANCH   7   9
ENDBRANCH   6   7
ENDBRANCH   5   6
ENDBRANCH   1   5
BRANCH   1  11
HETATM   11  C   UNK N   1       6.097   1.191   0.000  0.00  0.00     0.163 C 
HETATM   12  O   UNK N   1       5.771   0.016   0.000  0.00  0.00    -0.648 OA
BRANCH  11  13
HETATM   13  O   UNK N   1       7.405   1.512   0.000  0.00  0.00    -0.775 OA
HETATM   14  H   UNK N   1       8.053   0.836  -0.000  0.00  0.00     0.167 HD
ENDBRANCH  11  13
ENDBRANCH   1  11
TORSDOF 7
