REMARK  12 active torsions:
REMARK  status: ('A' for Active; 'I' for Inactive)
REMARK    1  A    between atoms: C_2  and  C_11 
REMARK    2  A    between atoms: C_3  and  O_10 
REMARK    3  A    between atoms: C_4  and  O_9 
REMARK    4  A    between atoms: C_5  and  O_8 
REMARK    5  A    between atoms: C_6  and  O_7 
REMARK    6  A    between atoms: C_15  and  O_7 
REMARK    7  A    between atoms: C_11  and  O_12 
REMARK    8  A    between atoms: C_14  and  C_22 
REMARK    9  A    between atoms: C_16  and  O_21 
REMARK   10  A    between atoms: C_17  and  O_20 
REMARK   11  A    between atoms: C_18  and  O_19 
REMARK   12  A    between atoms: C_22  and  O_23 
ROOT
HETATM    1  O   UNK N   1      -0.496  -2.163   0.824  0.00  0.00    -0.348 OA
ENDROOT
BRANCH   1   2
HETATM    2  C   UNK N   1      -1.551  -2.746   0.111  0.00  0.00     0.292 C 
HETATM    3  C   UNK N   1      -1.536  -4.265   0.363  0.00  0.00     0.204 C 
HETATM    4  C   UNK N   1      -2.756  -4.912  -0.281  0.00  0.00     0.183 C 
HETATM    5  C   UNK N   1      -4.026  -4.185   0.146  0.00  0.00     0.180 C 
HETATM    6  C   UNK N   1      -3.831  -2.689  -0.150  0.00  0.00     0.179 C 
HETATM    7  O   UNK N   1      -2.756  -2.214   0.621  0.00  0.00    -0.348 OA
BRANCH   3   8
HETATM    8  O   UNK N   1      -0.380  -4.839  -0.167  0.00  0.00    -0.388 OA
HETATM    9  H   UNK N   1      -0.324  -5.734  -0.536  0.00  0.00     0.210 HD
ENDBRANCH   3   8
BRANCH   4  10
HETATM   10  O   UNK N   1      -2.829  -6.258   0.082  0.00  0.00    -0.390 OA
HETATM   11  H   UNK N   1      -3.664  -6.681   0.335  0.00  0.00     0.210 HD
ENDBRANCH   4  10
BRANCH   5  12
HETATM   12  O   UNK N   1      -5.112  -4.703  -0.561  0.00  0.00    -0.390 OA
HETATM   13  H   UNK N   1      -5.801  -4.230  -1.053  0.00  0.00     0.210 HD
ENDBRANCH   5  12
BRANCH   6  14
HETATM   14  C   UNK N   1      -5.068  -1.881   0.226  0.00  0.00     0.198 C 
BRANCH  14  15
HETATM   15  O   UNK N   1      -6.126  -2.158  -0.639  0.00  0.00    -0.398 OA
HETATM   16  H   UNK N   1      -6.661  -1.617  -1.241  0.00  0.00     0.209 HD
ENDBRANCH  14  15
ENDBRANCH   6  14
ENDBRANCH   1   2
BRANCH   1  17
HETATM   17  C   UNK N   1       0.385  -1.547  -0.080  0.00  0.00     0.187 C 
HETATM   18  C   UNK N   1       0.401  -0.017   0.174  0.00  0.00     0.180 C 
HETATM   19  O   UNK N   1       1.441   0.588  -0.556  0.00  0.00    -0.349 OA
HETATM   20  C   UNK N   1       2.637   0.189   0.056  0.00  0.00     0.288 C 
HETATM   21  C   UNK N   1       2.917  -1.249  -0.359  0.00  0.00     0.204 C 
HETATM   22  C   UNK N   1       1.790  -2.114   0.198  0.00  0.00     0.183 C 
BRANCH  18  23
HETATM   23  C   UNK N   1      -0.905   0.645  -0.240  0.00  0.00     0.198 C 
BRANCH  23  24
HETATM   24  O   UNK N   1      -1.896   0.421   0.713  0.00  0.00    -0.398 OA
HETATM   25  H   UNK N   1      -2.377   0.940   1.377  0.00  0.00     0.209 HD
ENDBRANCH  23  24
ENDBRANCH  18  23
BRANCH  20  26
HETATM   26  O   UNK N   1       3.674   1.027  -0.358  0.00  0.00    -0.369 OA
HETATM   27  H   UNK N   1       4.538   0.693  -0.645  0.00  0.00     0.212 HD
ENDBRANCH  20  26
BRANCH  21  28
HETATM   28  O   UNK N   1       4.133  -1.678   0.174  0.00  0.00    -0.388 OA
HETATM   29  H   UNK N   1       4.298  -2.559   0.544  0.00  0.00     0.210 HD
ENDBRANCH  21  28
BRANCH  22  30
HETATM   30  O   UNK N   1       1.906  -3.412  -0.296  0.00  0.00    -0.390 OA
HETATM   31  H   UNK N   1       1.165  -3.934  -0.641  0.00  0.00     0.210 HD
ENDBRANCH  22  30
ENDBRANCH   1  17
TORSDOF 12
