REMARK  3 active torsions:
REMARK  status: ('A' for Active; 'I' for Inactive)
REMARK       I    between atoms: N_2  and  C_3 
REMARK    1  A    between atoms: C_3  and  C_5 
REMARK    2  A    between atoms: C_5  and  N_6 
REMARK    3  A    between atoms: C_5  and  C_7 
ROOT
HETATM    1  C   UNK N   1       2.020  -1.321   0.101  0.00  0.00     0.174 C 
ENDROOT
BRANCH   1   2
HETATM    2  C   UNK N   1       0.860  -0.329   0.127  0.00  0.00     0.240 C 
HETATM    3  N   UNK N   1      -0.427  -0.751   0.226  0.00  0.00    -0.364 N 
HETATM    4  C   UNK N   1      -0.794  -2.141   0.318  0.00  0.00     0.149 C 
HETATM    5  H   UNK N   1      -1.143  -0.076   0.234  0.00  0.00     0.161 HD
HETATM    6  O   UNK N   1       1.078   0.869   0.059  0.00  0.00    -0.271 OA
ENDBRANCH   1   2
BRANCH   1   7
HETATM    7  N   UNK N   1       1.850  -2.240  -1.016  0.00  0.00    -0.418 N 
HETATM    8  H   UNK N   1       1.233  -2.459  -1.799  0.00  0.00     0.150 HD
HETATM    9  H   UNK N   1       2.625  -2.903  -1.016  0.00  0.00     0.150 HD
ENDBRANCH   1   7
BRANCH   1  10
HETATM   10  C   UNK N   1       3.434  -0.687   0.061  0.00  0.00    -0.023 C 
HETATM   11  C   UNK N   1       3.682   0.143   1.309  0.00  0.00     0.017 C 
HETATM   12  C   UNK N   1       4.492  -1.776   0.023  0.00  0.00     0.017 C 
HETATM   13  C   UNK N   1       3.619   0.192  -1.167  0.00  0.00     0.017 C 
ENDBRANCH   1  10
TORSDOF 3
