REMARK  8 active torsions:
REMARK  status: ('A' for Active; 'I' for Inactive)
REMARK    1  A    between atoms: C_9  and  C_6 
REMARK    2  A    between atoms: C_24  and  C_9 
REMARK    3  A    between atoms: O_32  and  C_16 
REMARK    4  A    between atoms: O_32  and  C_18 
REMARK    5  A    between atoms: C_19  and  C_24 
REMARK    6  A    between atoms: C_27  and  C_23 
REMARK    7  A    between atoms: C_24  and  O_30 
REMARK    8  A    between atoms: C_27  and  O_31 
ROOT
HETATM    1  C   UNK N   1      -0.960   4.309   0.663  0.00  0.00     0.310 C 
HETATM    2  C   UNK N   1      -4.343   0.249   1.087  0.00  0.00     0.011 C 
HETATM    3  C   UNK N   1      -4.754  -1.028   0.614  0.00  0.00     0.041 C 
HETATM    4  C   UNK N   1      -0.134  -0.460   2.053  0.00  0.00    -0.015 C 
HETATM    5  C   UNK N   1       0.386  -1.640   1.642  0.00  0.00     0.011 C 
HETATM    6  C   UNK N   1      -0.713   1.198  -1.398  0.00  0.00     0.048 C 
HETATM    7  C   UNK N   1      -1.146   2.595  -0.954  0.00  0.00     0.273 C 
HETATM    8  C   UNK N   1      -2.399   1.878   1.551  0.00  0.00     0.076 C 
HETATM    9  C   UNK N   1       1.423   0.778   0.688  0.00  0.00     0.028 C 
HETATM   10  C   UNK N   1      -3.029   0.692   0.838  0.00  0.00    -0.046 C 
HETATM   11  C   UNK N   1      -3.813  -1.878  -0.030  0.00  0.00     0.113 C 
HETATM   12  C   UNK N   1       1.885  -0.507  -0.091  0.00  0.00     0.062 C 
HETATM   13  C   UNK N   1      -0.819   2.004   1.383  0.00  0.00     0.240 C 
HETATM   14  C   UNK N   1      -2.205  -0.129   0.096  0.00  0.00    -0.003 A 
HETATM   15  C   UNK N   1      -2.545  -1.378  -0.251  0.00  0.00     0.111 A 
HETATM   16  C   UNK N   1      -0.358  -1.267  -0.754  0.00  0.00     0.182 A 
HETATM   17  C   UNK N   1      -0.099   0.651   1.012  0.00  0.00     0.024 C 
HETATM   18  C   UNK N   1      -0.820   0.156  -0.263  0.00  0.00     0.035 A 
HETATM   19  C   UNK N   1       0.847  -1.696   0.171  0.00  0.00     0.112 C 
HETATM   20  N   UNK N   1      -0.504   2.972   0.309  0.00  0.00     0.090 N 
HETATM   21  O   UNK N   1      -1.499  -2.062  -0.723  0.00  0.00    -0.338 OA
ENDROOT
BRANCH  12  22
HETATM   22  C   UNK N   1       3.416  -0.761  -0.130  0.00  0.00     0.061 C 
HETATM   23  C   UNK N   1       3.704  -1.817  -1.198  0.00  0.00     0.046 C 
BRANCH  22  24
HETATM   24  C   UNK N   1       4.036  -1.195   1.199  0.00  0.00     0.037 C 
BRANCH  24  25
HETATM   25  C   UNK N   1       5.576  -1.173   1.158  0.00  0.00    -0.002 C 
HETATM   26  C   UNK N   1       6.164  -2.326   0.356  0.00  0.00     0.005 C 
ENDBRANCH  24  25
ENDBRANCH  22  24
BRANCH  22  27
HETATM   27  O   UNK N   1       4.031   0.426  -0.546  0.00  0.00    -0.390 OA
HETATM   28  H   UNK N   1       4.956   0.468  -0.833  0.00  0.00     0.210 HD
ENDBRANCH  22  27
ENDBRANCH  12  22
BRANCH  19  29
HETATM   29  O   UNK N   1       1.400  -2.952  -0.187  0.00  0.00    -0.378 OA
HETATM   30  C   UNK N   1       0.447  -3.973  -0.029  0.00  0.00     0.203 C 
ENDBRANCH  19  29
BRANCH  11  31
HETATM   31  O   UNK N   1      -4.074  -3.153  -0.408  0.00  0.00    -0.276 OA
BRANCH  31  32
HETATM   32  C   UNK N   1      -5.032  -3.974   0.082  0.00  0.00     0.260 C 
HETATM   33  C   UNK N   1      -5.154  -5.349  -0.474  0.00  0.00     0.126 C 
HETATM   34  O   UNK N   1      -5.728  -3.641   1.029  0.00  0.00    -0.265 OA
ENDBRANCH  31  32
ENDBRANCH  11  31
TORSDOF 8
