REMARK  4 active torsions:
REMARK  status: ('A' for Active; 'I' for Inactive)
REMARK    1  A    between atoms: C_5  and  N_9 
REMARK    2  A    between atoms: C_6  and  C_7 
REMARK    3  A    between atoms: O_11  and  C_7 
REMARK    4  A    between atoms: O_12  and  N_9 
ROOT
HETATM    1  C   UNK N   1       0.280   2.888   1.165  0.00  0.00     0.012 C 
HETATM    2  C   UNK N   1       1.472   0.682   0.871  0.00  0.00     0.049 C 
HETATM    3  C   UNK N   1       0.764   1.820   0.197  0.00  0.00     0.017 C 
HETATM    4  C   UNK N   1       1.561  -0.294  -0.302  0.00  0.00     0.178 C 
HETATM    5  C   UNK N   1      -0.316   1.085  -0.609  0.00  0.00     0.180 C 
HETATM    6  N   UNK N   1       0.295  -0.183  -1.036  0.00  0.00    -0.390 N 
HETATM    7  H   UNK N   1      -0.085  -0.851  -1.706  0.00  0.00     0.155 HD
ENDROOT
BRANCH   4   8
HETATM    8  N   UNK N   1       1.819  -1.683   0.102  0.00  0.00    -0.181 NA
HETATM    9  C   UNK N   1       3.150  -1.794   0.686  0.00  0.00     0.146 C 
BRANCH   8  10
HETATM   10  O   UNK N   1       0.923  -2.052   1.051  0.00  0.00    -0.311 OA
HETATM   11  H   UNK N   1       0.375  -1.628   1.730  0.00  0.00     0.237 HD
ENDBRANCH   8  10
ENDBRANCH   4   8
BRANCH   5  12
HETATM   12  C   UNK N   1      -1.585   0.808   0.175  0.00  0.00     0.163 C 
HETATM   13  O   UNK N   1      -1.956  -0.338   0.381  0.00  0.00    -0.648 OA
BRANCH  12  14
HETATM   14  O   UNK N   1      -2.343   1.835   0.608  0.00  0.00    -0.775 OA
HETATM   15  H   UNK N   1      -1.989   2.648   0.908  0.00  0.00     0.167 HD
ENDBRANCH  12  14
ENDBRANCH   5  12
TORSDOF 4
