REMARK  17 active torsions:
REMARK  status: ('A' for Active; 'I' for Inactive)
REMARK    1  A    between atoms: C_23  and  C_17 
REMARK    2  A    between atoms: C_27  and  C_17 
REMARK    3  A    between atoms: C_22  and  C_19 
REMARK    4  A    between atoms: N_37  and  C_19 
REMARK    5  A    between atoms: C_30  and  C_20 
REMARK    6  A    between atoms: O_46  and  C_20 
REMARK    7  A    between atoms: O_38  and  C_21 
REMARK    8  A    between atoms: C_25  and  C_24 
REMARK    9  A    between atoms: C_26  and  N_35 
REMARK   10  A    between atoms: C_31  and  C_27 
REMARK   11  A    between atoms: C_27  and  N_33 
REMARK   12  A    between atoms: O_46  and  C_28 
REMARK   13  A    between atoms: P_47  and  C_29 
REMARK   14  A    between atoms: O_40  and  C_30 
REMARK   15  A    between atoms: C_31  and  O_41 
REMARK   16  A    between atoms: P_47  and  O_43 
REMARK   17  A    between atoms: P_47  and  O_44 
ROOT
HETATM    1  C   UNK N   1       2.601   5.240   0.302  0.00  0.00     0.162 C 
ENDROOT
BRANCH   1   2
HETATM    2  C   UNK N   1       3.852   4.904  -0.559  0.00  0.00     0.072 C 
BRANCH   2   3
HETATM    3  C   UNK N   1       4.673   6.127  -0.647  0.00  0.00    -0.054 A 
HETATM    4  C   UNK N   1       5.975   6.197  -0.155  0.00  0.00     0.010 A 
HETATM    5  C   UNK N   1       6.576   7.455  -0.012  0.00  0.00     0.038 A 
HETATM    6  C   UNK N   1       5.855   8.636  -0.292  0.00  0.00     0.087 A 
HETATM    7  C   UNK N   1       4.511   8.518  -0.765  0.00  0.00     0.083 A 
HETATM    8  C   UNK N   1       3.990   7.273  -0.952  0.00  0.00     0.029 A 
BRANCH   6   9
HETATM    9  O   UNK N   1       6.484   9.814  -0.066  0.00  0.00    -0.340 OA
BRANCH   9  10
HETATM   10  C   UNK N   1       6.069  11.032  -0.545  0.00  0.00     0.285 C 
BRANCH  10  11
HETATM   11  C   UNK N   1       5.935  12.014   0.567  0.00  0.00     0.164 C 
HETATM   12  O   UNK N   1       5.091  11.855   1.433  0.00  0.00    -0.648 OA
BRANCH  11  13
HETATM   13  O   UNK N   1       6.738  13.091   0.606  0.00  0.00    -0.775 OA
HETATM   14  H   UNK N   1       7.668  12.981   0.632  0.00  0.00     0.167 HD
ENDBRANCH  11  13
ENDBRANCH  10  11
ENDBRANCH   9  10
ENDBRANCH   6   9
BRANCH   7  15
HETATM   15  P   UNK N   1       3.249   9.838  -1.007  0.00  0.00     0.273 P 
HETATM   16  O   UNK N   1       1.911   9.045  -1.047  0.00  0.00    -0.650 OA
BRANCH  15  17
HETATM   17  O   UNK N   1       2.888  10.923   0.295  0.00  0.00    -0.326 OA
HETATM   18  H   UNK N   1       3.313  11.401   1.024  0.00  0.00     0.220 HD
ENDBRANCH  15  17
BRANCH  15  19
HETATM   19  O   UNK N   1       3.166  10.645  -2.536  0.00  0.00    -0.326 OA
HETATM   20  H   UNK N   1       3.534  10.911  -3.393  0.00  0.00     0.220 HD
ENDBRANCH  15  19
ENDBRANCH   7  15
ENDBRANCH   2   3
ENDBRANCH   1   2
BRANCH   1  21
HETATM   21  C   UNK N   1       2.452   4.109   1.212  0.00  0.00     0.135 C 
HETATM   22  N   UNK N   1       2.004   3.007   0.739  0.00  0.00    -0.359 N 
ATOM     23  HN  UNK N   1       1.384   3.018  -0.071  1.00  0.00     0.162 HD
BRANCH  22  24
HETATM   24  C   UNK N   1       2.365   1.764   1.335  0.00  0.00     0.175 C 
HETATM   25  C   UNK N   1       1.492   0.617   0.820  0.00  0.00     0.035 C 
HETATM   26  C   UNK N   1       1.204   0.656  -0.678  0.00  0.00     0.004 C 
HETATM   27  C   UNK N   1       2.447   0.426  -1.516  0.00  0.00     0.020 C 
HETATM   28  C   UNK N   1       3.387   1.624  -1.438  0.00  0.00     0.126 C 
HETATM   29  N   UNK N   1       4.275   1.512  -0.302  0.00  0.00    -0.346 N 
HETATM   30  C   UNK N   1       3.833   1.577   1.003  0.00  0.00     0.242 C 
HETATM   31  O   UNK N   1       4.628   1.491   1.921  0.00  0.00    -0.271 OA
BRANCH  29  32
HETATM   32  C   UNK N   1       5.656   1.125  -0.561  0.00  0.00     0.164 C 
BRANCH  32  33
HETATM   33  C   UNK N   1       5.802  -0.335  -0.215  0.00  0.00    -0.040 A 
HETATM   34  C   UNK N   1       4.728  -0.985   0.401  0.00  0.00     0.009 A 
HETATM   35  C   UNK N   1       4.722  -2.329   0.610  0.00  0.00     0.013 A 
HETATM   36  C   UNK N   1       5.797  -3.097   0.200  0.00  0.00    -0.026 A 
HETATM   37  C   UNK N   1       6.929  -2.470  -0.367  0.00  0.00     0.013 A 
HETATM   38  C   UNK N   1       6.933  -1.077  -0.570  0.00  0.00     0.009 A 
BRANCH  36  39
HETATM   39  C   UNK N   1       5.601  -4.550   0.172  0.00  0.00    -0.026 A 
HETATM   40  C   UNK N   1       6.575  -5.399  -0.361  0.00  0.00     0.012 A 
HETATM   41  C   UNK N   1       6.289  -6.753  -0.549  0.00  0.00     0.001 A 
HETATM   42  C   UNK N   1       5.025  -7.259  -0.224  0.00  0.00     0.000 A 
HETATM   43  C   UNK N   1       4.052  -6.420   0.316  0.00  0.00     0.001 A 
HETATM   44  C   UNK N   1       4.338  -5.074   0.511  0.00  0.00     0.012 A 
ENDBRANCH  36  39
ENDBRANCH  32  33
ENDBRANCH  29  32
ENDBRANCH  22  24
BRANCH  21  45
HETATM   45  O   UNK N   1       3.098   4.146   2.401  0.00  0.00    -0.348 OA
HETATM   46  H   UNK N   1       3.344   3.772   3.224  0.00  0.00     0.219 HD
ENDBRANCH  21  45
ENDBRANCH   1  21
BRANCH   1  47
HETATM   47  N   UNK N   1       1.458   5.448  -0.568  0.00  0.00    -0.362 N 
HETATM   48  C   UNK N   1       0.296   5.837  -0.164  0.00  0.00     0.107 C 
HETATM   49  C   UNK N   1       0.020   6.131   1.278  0.00  0.00     0.097 C 
ATOM     50  HN  UNK N   1       1.581   5.274  -1.566  1.00  0.00     0.162 HD
BRANCH  48  51
HETATM   51  O   UNK N   1      -0.690   6.003  -1.064  0.00  0.00    -0.350 OA
HETATM   52  H   UNK N   1      -0.934   6.656  -1.690  0.00  0.00     0.219 HD
ENDBRANCH  48  51
ENDBRANCH   1  47
TORSDOF 17
