REMARK  0 active torsions:
REMARK  status: ('A' for Active; 'I' for Inactive)
ROOT
HETATM    1  C   UNK N   1      -0.910   0.683  -0.861  0.00  0.00     0.310 C 
HETATM    2  N   UNK N   1       0.339  -0.055  -0.702  0.00  0.00     0.094 N 
HETATM    3  C   UNK N   1       0.830   0.104   0.666  0.00  0.00     0.230 C 
HETATM    4  C   UNK N   1       0.017  -0.854   1.536  0.00  0.00     0.038 C 
HETATM    5  C   UNK N   1      -0.527  -1.885   0.564  0.00  0.00     0.038 C 
HETATM    6  C   UNK N   1       0.081  -1.492  -0.776  0.00  0.00     0.230 C 
HETATM    7  C   UNK N   1       1.427  -2.223  -0.934  0.00  0.00     0.114 C 
HETATM    8  C   UNK N   1       2.528  -1.606  -0.095  0.00  0.00     0.131 C 
HETATM    9  O   UNK N   1       3.637  -2.115  -0.096  0.00  0.00    -0.298 OA
HETATM   10  C   UNK N   1       2.299  -0.338   0.699  0.00  0.00     0.114 C 
ENDROOT
TORSDOF 0
