REMARK  8 active torsions:
REMARK  status: ('A' for Active; 'I' for Inactive)
REMARK    1  A    between atoms: O_1  and  C_2 
REMARK    2  A    between atoms: C_2  and  C_3 
REMARK    3  A    between atoms: C_3  and  O_4 
REMARK    4  A    between atoms: C_3  and  C_9 
REMARK    5  A    between atoms: O_4  and  P_5 
REMARK    6  A    between atoms: P_5  and  O_6 
REMARK    7  A    between atoms: P_5  and  O_7 
REMARK    8  A    between atoms: C_9  and  O_10 
ROOT
HETATM    1  C   UNK N   1       1.765   1.273  -0.201  0.00  0.00     0.254 C 
ENDROOT
BRANCH   1   2
HETATM    2  C   UNK N   1       1.397   2.694   0.218  0.00  0.00     0.207 C 
BRANCH   2   3
HETATM    3  O   UNK N   1       2.093   3.627  -0.553  0.00  0.00    -0.398 OA
HETATM    4  H   UNK N   1       2.897   3.532  -1.088  0.00  0.00     0.209 HD
ENDBRANCH   2   3
ENDBRANCH   1   2
BRANCH   1   5
HETATM    5  O   UNK N   1       0.978   0.364   0.522  0.00  0.00    -0.279 OA
BRANCH   5   6
HETATM    6  P   UNK N   1       0.452  -0.834  -0.630  0.00  0.00     0.391 P 
HETATM    7  O   UNK N   1       1.346  -1.659   0.335  0.00  0.00    -0.632 OA
BRANCH   6   8
HETATM    8  O   UNK N   1      -0.572  -2.146  -0.139  0.00  0.00    -0.307 OA
HETATM    9  H   UNK N   1      -1.494  -2.017   0.135  0.00  0.00     0.222 HD
ENDBRANCH   6   8
BRANCH   6  10
HETATM   10  O   UNK N   1      -0.933  -0.230   0.225  0.00  0.00    -0.307 OA
HETATM   11  H   UNK N   1      -1.028   0.609   0.703  0.00  0.00     0.222 HD
ENDBRANCH   6  10
ENDBRANCH   5   6
ENDBRANCH   1   5
BRANCH   1  12
HETATM   12  C   UNK N   1       3.229   0.965   0.006  0.00  0.00     0.172 C 
HETATM   13  O   UNK N   1       3.672  -0.120  -0.335  0.00  0.00    -0.648 OA
BRANCH  12  14
HETATM   14  O   UNK N   1       4.059   1.875   0.552  0.00  0.00    -0.774 OA
HETATM   15  H   UNK N   1       4.896   1.691   0.931  0.00  0.00     0.167 HD
ENDBRANCH  12  14
ENDBRANCH   1  12
TORSDOF 8
