REMARK  6 active torsions:
REMARK  status: ('A' for Active; 'I' for Inactive)
REMARK    1  A    between atoms: C_2  and  O_3 
REMARK    2  A    between atoms: C_2  and  C_8 
REMARK    3  A    between atoms: O_3  and  P_4 
REMARK    4  A    between atoms: P_4  and  O_5 
REMARK    5  A    between atoms: P_4  and  O_6 
REMARK    6  A    between atoms: C_8  and  O_9 
ROOT
HETATM    1  O   UNK N   1       1.221   0.672  -0.416  0.00  0.00    -0.281 OA
ENDROOT
BRANCH   1   2
HETATM    2  C   UNK N   1       2.353   0.956   0.364  0.00  0.00     0.227 C 
HETATM    3  C   UNK N   1       2.791   2.397   0.126  0.00  0.00     0.052 C 
BRANCH   2   4
HETATM    4  C   UNK N   1       3.465  -0.009   0.057  0.00  0.00     0.170 C 
HETATM    5  O   UNK N   1       3.287  -1.208   0.213  0.00  0.00    -0.648 OA
BRANCH   4   6
HETATM    6  O   UNK N   1       4.665   0.432  -0.371  0.00  0.00    -0.774 OA
HETATM    7  H   UNK N   1       5.348  -0.137  -0.668  0.00  0.00     0.167 HD
ENDBRANCH   4   6
ENDBRANCH   2   4
ENDBRANCH   1   2
BRANCH   1   8
HETATM    8  P   UNK N   1      -0.149   0.963   0.627  0.00  0.00     0.391 P 
HETATM    9  O   UNK N   1      -0.195   2.187  -0.328  0.00  0.00    -0.632 OA
BRANCH   8  10
HETATM   10  O   UNK N   1      -1.770   0.946   0.008  0.00  0.00    -0.307 OA
HETATM   11  H   UNK N   1      -2.232   1.726  -0.337  0.00  0.00     0.222 HD
ENDBRANCH   8  10
BRANCH   8  12
HETATM   12  O   UNK N   1      -0.435  -0.490  -0.279  0.00  0.00    -0.307 OA
HETATM   13  H   UNK N   1      -1.219  -0.758  -0.785  0.00  0.00     0.222 HD
ENDBRANCH   8  12
ENDBRANCH   1   8
TORSDOF 6
