REMARK  10 active torsions:
REMARK  status: ('A' for Active; 'I' for Inactive)
REMARK    1  A    between atoms: C_4  and  O_5 
REMARK    2  A    between atoms: C_16  and  C_17 
REMARK    3  A    between atoms: C_18  and  C_19 
REMARK    4  A    between atoms: C_19  and  C_20 
REMARK    5  A    between atoms: C_20  and  C_21 
REMARK    6  A    between atoms: C_21  and  C_22 
REMARK    7  A    between atoms: C_22  and  C_23 
REMARK    8  A    between atoms: C_23  and  C_24 
REMARK    9  A    between atoms: C_24  and  C_25 
REMARK   10  A    between atoms: C_25  and  O_26 
ROOT
HETATM    1  C   UNK N   1      -9.196   5.860  -1.227  0.00  0.00     0.040 C 
HETATM    2  C   UNK N   1      -7.853   5.155  -1.325  0.00  0.00     0.132 C 
HETATM    3  C   UNK N   1      -6.896   5.961  -2.203  0.00  0.00     0.085 C 
HETATM    4  C   UNK N   1      -6.358   7.209  -1.483  0.00  0.00     0.216 C 
HETATM    5  N   UNK N   1      -5.438   7.919  -2.364  0.00  0.00    -0.384 N 
HETATM    6  C   UNK N   1      -4.379   8.524  -1.560  0.00  0.00     0.173 C 
HETATM    7  C   UNK N   1      -3.968   9.839  -2.218  0.00  0.00     0.035 C 
HETATM    8  C   UNK N   1      -3.219  10.766  -1.277  0.00  0.00     0.004 C 
HETATM    9  C   UNK N   1      -1.837  10.219  -1.008  0.00  0.00     0.022 C 
HETATM   10  C   UNK N   1      -1.975   9.148   0.044  0.00  0.00     0.163 C 
HETATM   11  N   UNK N   1      -2.172   7.824  -0.518  0.00  0.00    -0.190 N 
HETATM   12  O   UNK N   1      -1.288   6.875  -0.166  0.00  0.00    -0.083 OA
HETATM   13 Fe   UNK N   1      -2.130   5.302   0.689  0.00  0.00     0.000 Fe
HETATM   14  O   UNK N   1      -0.445   4.487   0.789  0.00  0.00    -0.212 OA
HETATM   15  C   UNK N   1      -0.737   3.111   0.644  0.00  0.00     0.286 C 
HETATM   16  N   UNK N   1      -2.149   2.932   0.274  0.00  0.00    -0.127 NA
HETATM   17  C   UNK N   1      -2.581   1.549   0.329  0.00  0.00     0.127 C 
HETATM   18  C   UNK N   1      -3.420   1.294  -0.909  0.00  0.00     0.017 C 
HETATM   19  C   UNK N   1      -4.693   0.572  -0.539  0.00  0.00     0.004 C 
HETATM   20  C   UNK N   1      -5.893   1.211  -1.232  0.00  0.00     0.035 C 
HETATM   21  C   UNK N   1      -6.425   2.472  -0.531  0.00  0.00     0.184 C 
HETATM   22  N   UNK N   1      -6.481   2.226   0.902  0.00  0.00    -0.345 N 
HETATM   23  C   UNK N   1      -6.889   3.132   1.824  0.00  0.00     0.243 C 
HETATM   24  O   UNK N   1      -6.838   2.842   3.009  0.00  0.00    -0.271 OA
HETATM   25  C   UNK N   1      -7.361   4.493   1.402  0.00  0.00     0.200 A 
HETATM   26  C   UNK N   1      -8.246   5.223   2.439  0.00  0.00     0.212 A 
HETATM   27  O   UNK N   1      -7.539   6.376   2.707  0.00  0.00    -0.333 OA
HETATM   28  C   UNK N   1      -6.380   6.370   2.048  0.00  0.00     0.152 A 
HETATM   29  N   UNK N   1      -6.229   5.358   1.302  0.00  0.00    -0.355 N 
ATOM     30  HN  UNK N   1      -5.414   5.185   0.714  1.00  0.00     0.162 HD
HETATM   31  C   UNK N   1      -5.299   7.336   2.315  0.00  0.00     0.051 A 
HETATM   32  C   UNK N   1      -5.523   8.376   3.223  0.00  0.00     0.018 A 
HETATM   33  C   UNK N   1      -4.468   9.194   3.633  0.00  0.00     0.001 A 
HETATM   34  C   UNK N   1      -3.172   8.927   3.195  0.00  0.00     0.003 A 
HETATM   35  C   UNK N   1      -2.944   7.884   2.300  0.00  0.00     0.041 A 
HETATM   36  C   UNK N   1      -4.005   7.123   1.809  0.00  0.00     0.121 A 
HETATM   37  O   UNK N   1      -3.784   6.163   0.892  0.00  0.00    -0.191 OA
HETATM   38  C   UNK N   1      -7.799   2.750  -1.111  0.00  0.00     0.282 C 
HETATM   39  O   UNK N   1      -8.662   1.889  -1.021  0.00  0.00    -0.263 OA
HETATM   40  O   UNK N   1      -8.080   3.885  -1.809  0.00  0.00    -0.315 OA
HETATM   41  O   UNK N   1      -2.888   3.665   1.143  0.00  0.00    -0.117 OA
HETATM   42  C   UNK N   1      -3.227   7.543  -1.348  0.00  0.00     0.268 C 
HETATM   43  O   UNK N   1      -3.293   6.431  -1.867  0.00  0.00    -0.269 OA
HETATM   44  H   UNK N   1      -5.521   7.983  -3.379  0.00  0.00     0.156 HD
HETATM   45  H   UNK N   1      -6.203   1.338   1.225  0.00  0.00     0.163 HD
ENDROOT
BRANCH  15  46
HETATM   46  C   UNK N   1       0.198   2.664  -0.420  0.00  0.00     0.021 C 
HETATM   47  C   UNK N   1       0.202   3.344  -1.563  0.00  0.00    -0.027 C 
BRANCH  47  48
HETATM   48  C   UNK N   1       1.479   3.503  -2.297  0.00  0.00     0.027 C 
BRANCH  48  49
HETATM   49  C   UNK N   1       2.141   4.777  -1.754  0.00  0.00     0.004 C 
BRANCH  49  50
HETATM   50  C   UNK N   1       2.532   4.615  -0.279  0.00  0.00     0.000 C 
BRANCH  50  51
HETATM   51  C   UNK N   1       3.324   5.796   0.266  0.00  0.00     0.001 C 
BRANCH  51  52
HETATM   52  C   UNK N   1       4.541   6.135  -0.592  0.00  0.00     0.010 C 
BRANCH  52  53
HETATM   53  C   UNK N   1       5.386   4.921  -0.983  0.00  0.00     0.110 C 
BRANCH  53  54
HETATM   54  C   UNK N   1       6.107   4.331   0.184  0.00  0.00     0.139 C 
HETATM   55  O   UNK N   1       6.028   3.134   0.407  0.00  0.00    -0.650 OA
BRANCH  54  56
HETATM   56  O   UNK N   1       6.878   5.110   0.965  0.00  0.00    -0.776 OA
HETATM   57  H   UNK N   1       7.616   4.916   1.508  0.00  0.00     0.167 HD
ENDBRANCH  54  56
ENDBRANCH  53  54
ENDBRANCH  52  53
ENDBRANCH  51  52
ENDBRANCH  50  51
ENDBRANCH  49  50
ENDBRANCH  48  49
ENDBRANCH  47  48
ENDBRANCH  15  46
BRANCH   4  58
HETATM   58  O   UNK N   1      -7.399   8.069  -1.120  0.00  0.00    -0.377 OA
HETATM   59  H   UNK N   1      -7.243   8.993  -0.867  0.00  0.00     0.212 HD
ENDBRANCH   4  58
TORSDOF 10
