REMARK  0 active torsions:
REMARK  status: ('A' for Active; 'I' for Inactive)
REMARK       I    between atoms: N_8  and  C_6 
ROOT
HETATM    1  C   UNK N   1       1.644  -3.568  -0.003  0.00  0.00     0.163 C 
HETATM    2  C   UNK N   1       4.079   0.747   0.001  0.00  0.00     0.164 C 
HETATM    3  C   UNK N   1       0.453  -0.067   0.001  0.00  0.00     0.162 A 
HETATM    4  C   UNK N   1       0.496  -1.417  -0.000  0.00  0.00     0.160 A 
HETATM    5  C   UNK N   1       1.619   0.678   0.002  0.00  0.00     0.282 A 
HETATM    6  C   UNK N   1      -1.526  -0.814  -0.000  0.00  0.00     0.678 A 
HETATM    7  C   UNK N   1       2.847  -1.396  -0.001  0.00  0.00     0.332 A 
HETATM    8  N   UNK N   1      -2.803  -0.860  -0.001  0.00  0.00    -0.234 N 
ATOM      9  HN  UNK N   1      -3.281  -1.761  -0.001  1.00  0.00     0.174 HD
HETATM   10  N   UNK N   1      -0.824   0.347   0.001  0.00  0.00    -0.183 N 
HETATM   11  N   UNK N   1      -0.746  -1.922  -0.001  0.00  0.00    -0.174 N 
HETATM   12  N   UNK N   1       1.659  -2.111  -0.001  0.00  0.00    -0.287 N 
HETATM   13  N   UNK N   1       2.826  -0.002   0.001  0.00  0.00    -0.269 N 
HETATM   14  O   UNK N   1       1.579   1.898   0.003  0.00  0.00    -0.265 OA
HETATM   15  O   UNK N   1       3.915  -1.991  -0.002  0.00  0.00    -0.246 OA
HETATM   16  H   UNK N   1      -3.326  -0.026  -0.002  0.00  0.00     0.174 HD
HETATM   17  H   UNK N   1      -1.168   1.270   0.002  0.00  0.00     0.184 HD
HETATM   18  H   UNK N   1      -1.024  -2.866  -0.002  0.00  0.00     0.186 HD
ENDROOT
TORSDOF 0
