REMARK  2 active torsions:
REMARK  status: ('A' for Active; 'I' for Inactive)
REMARK    1  A    between atoms: C_5  and  C_8 
REMARK    2  A    between atoms: C_8  and  O_9 
ROOT
HETATM    1  C   UNK N   1       0.948   3.053  -0.000  0.00  0.00     0.050 C 
HETATM    2  C   UNK N   1       0.062   1.825   0.000  0.00  0.00     0.068 A 
HETATM    3  C   UNK N   1      -0.775   3.087  -0.000  0.00  0.00     0.050 C 
HETATM    4  N   UNK N   1       1.221   0.936  -0.000  0.00  0.00    -0.391 N 
HETATM    5  C   UNK N   1       0.832  -0.459   0.000  0.00  0.00     0.186 A 
HETATM    6  C   UNK N   1      -0.631  -0.768  -0.000  0.00  0.00     0.112 A 
HETATM    7  S   UNK N   1      -1.474   0.820  -0.000  0.00  0.00    -0.136 SA
HETATM    8  H   UNK N   1       2.189   1.260  -0.000  0.00  0.00     0.155 HD
ENDROOT
BRANCH   5   9
HETATM    9  C   UNK N   1       1.920  -1.482  -0.000  0.00  0.00     0.164 C 
HETATM   10  O   UNK N   1       1.648  -2.672   0.000  0.00  0.00    -0.648 OA
BRANCH   9  11
HETATM   11  O   UNK N   1       3.208  -1.090  -0.000  0.00  0.00    -0.775 OA
HETATM   12  H   UNK N   1       3.893  -1.730  -0.000  0.00  0.00     0.167 HD
ENDBRANCH   9  11
ENDBRANCH   5   9
TORSDOF 2
