REMARK  8 active torsions:
REMARK  status: ('A' for Active; 'I' for Inactive)
REMARK    1  A    between atoms: C_2  and  C_3 
REMARK    2  A    between atoms: C_3  and  S_4 
REMARK    3  A    between atoms: S_4  and  C_5 
REMARK    4  A    between atoms: C_7  and  O_16 
REMARK    5  A    between atoms: C_8  and  C_13 
REMARK    6  A    between atoms: C_10  and  O_11 
REMARK    7  A    between atoms: C_13  and  C_14 
REMARK    8  A    between atoms: C_14  and  N_15 
ROOT
HETATM    1  C   UNK N   1       0.951   1.699   0.398  0.00  0.00     0.036 A 
HETATM    2  C   UNK N   1       2.088   0.904   0.223  0.00  0.00     0.058 A 
HETATM    3  C   UNK N   1       2.011  -0.473  -0.007  0.00  0.00     0.076 A 
HETATM    4  C   UNK N   1       0.729  -1.084  -0.081  0.00  0.00    -0.021 A 
HETATM    5  C   UNK N   1      -0.411  -0.282   0.079  0.00  0.00     0.048 A 
HETATM    6  C   UNK N   1      -0.335   1.089   0.330  0.00  0.00     0.085 A 
ENDROOT
BRANCH   4   7
HETATM    7  C   UNK N   1       0.560  -2.569  -0.299  0.00  0.00     0.060 C 
BRANCH   7   8
HETATM    8  C   UNK N   1      -0.880  -3.064  -0.227  0.00  0.00     0.115 C 
BRANCH   8   9
HETATM    9  N   UNK N   1      -0.892  -4.514  -0.188  0.00  0.00    -0.430 N 
HETATM   10  H   UNK N   1      -1.780  -5.017  -0.161  0.00  0.00     0.149 HD
HETATM   11  H   UNK N   1      -0.013  -5.032  -0.188  0.00  0.00     0.149 HD
ENDBRANCH   8   9
ENDBRANCH   7   8
ENDBRANCH   4   7
BRANCH   3  12
HETATM   12  O   UNK N   1       3.191  -1.144  -0.125  0.00  0.00    -0.355 OA
HETATM   13  C   UNK N   1       3.355  -2.502  -0.265  0.00  0.00     0.210 C 
ENDBRANCH   3  12
BRANCH   6  14
HETATM   14  O   UNK N   1      -1.518   1.735   0.515  0.00  0.00    -0.355 OA
HETATM   15  C   UNK N   1      -1.696   3.006   0.999  0.00  0.00     0.210 C 
ENDBRANCH   6  14
BRANCH   1  16
HETATM   16  S   UNK N   1       1.252   3.439   0.778  0.00  0.00    -0.127 SA
BRANCH  16  17
HETATM   17  C   UNK N   1       0.565   4.129  -0.757  0.00  0.00     0.079 C 
BRANCH  17  18
HETATM   18  C   UNK N   1       0.066   5.533  -0.454  0.00  0.00     0.006 C 
HETATM   19  C   UNK N   1      -1.366   5.703  -0.918  0.00  0.00     0.006 C 
ENDBRANCH  17  18
ENDBRANCH  16  17
ENDBRANCH   1  16
TORSDOF 8
