REMARK  6 active torsions:
REMARK  status: ('A' for Active; 'I' for Inactive)
REMARK    1  A    between atoms: C_2  and  N_1 
REMARK    2  A    between atoms: C_2  and  C_3 
REMARK    3  A    between atoms: C_2  and  C_6 
REMARK    4  A    between atoms: C_3  and  S_4 
REMARK    5  A    between atoms: S_4  and  O_5 
REMARK    6  A    between atoms: C_6  and  O_7 
ROOT
HETATM    1  C   UNK N   1       2.244   1.401   0.000  0.00  0.00     0.184 C 
ENDROOT
BRANCH   1   2
HETATM    2  N   UNK N   1       2.820   2.734  -0.000  0.00  0.00    -0.417 N 
HETATM    3  H   UNK N   1       3.833   2.852  -0.000  0.00  0.00     0.150 HD
HETATM    4  H   UNK N   1       2.211   3.553  -0.000  0.00  0.00     0.150 HD
ENDBRANCH   1   2
BRANCH   1   5
HETATM    5  C   UNK N   1       0.709   1.333  -0.000  0.00  0.00     0.140 C 
BRANCH   5   6
HETATM    6  S   UNK N   1       0.027  -0.359   0.000  0.00  0.00    -0.013 SA
BRANCH   6   7
HETATM    7  O   UNK N   1      -1.597   0.191  -0.000  0.00  0.00    -0.329 OA
HETATM    8  H   UNK N   1      -1.787   1.142  -0.000  0.00  0.00     0.227 HD
ENDBRANCH   6   7
ENDBRANCH   5   6
ENDBRANCH   1   5
BRANCH   1   9
HETATM    9  C   UNK N   1       3.216   0.245  -0.000  0.00  0.00     0.163 C 
HETATM   10  O   UNK N   1       2.827  -0.904  -0.000  0.00  0.00    -0.648 OA
BRANCH   9  11
HETATM   11  O   UNK N   1       4.542   0.494  -0.000  0.00  0.00    -0.775 OA
HETATM   12  H   UNK N   1       5.152  -0.218  -0.000  0.00  0.00     0.167 HD
ENDBRANCH   9  11
ENDBRANCH   1   9
TORSDOF 6
