REMARK  6 active torsions:
REMARK  status: ('A' for Active; 'I' for Inactive)
REMARK    1  A    between atoms: C_14  and  C_7 
REMARK    2  A    between atoms: C_15  and  C_7 
REMARK    3  A    between atoms: C_16  and  C_8 
REMARK    4  A    between atoms: C_17  and  C_9 
REMARK    5  A    between atoms: N_19  and  C_16 
REMARK    6  A    between atoms: N_21  and  C_17 
ROOT
HETATM    1  C   UNK N   1      -0.486  -0.954  -0.194  0.00  0.00     0.152 C 
ENDROOT
BRANCH   1   2
HETATM    2  C   UNK N   1      -1.065   0.410   0.026  0.00  0.00     0.089 A 
HETATM    3  N   UNK N   1      -2.139   0.888  -0.656  0.00  0.00    -0.344 N 
HETATM    4  C   UNK N   1      -2.147   2.196  -0.356  0.00  0.00     0.060 A 
ATOM      5  HN  UNK N   1      -2.787   0.374  -1.254  1.00  0.00     0.167 HD
HETATM    6  C   UNK N   1      -3.004   3.184  -0.831  0.00  0.00     0.033 A 
HETATM    7  C   UNK N   1      -1.102   2.487   0.463  0.00  0.00     0.061 A 
HETATM    8  C   UNK N   1      -2.729   4.515  -0.456  0.00  0.00     0.017 A 
HETATM    9  C   UNK N   1      -1.613   4.821   0.372  0.00  0.00     0.009 A 
HETATM   10  C   UNK N   1      -0.793   3.780   0.850  0.00  0.00     0.047 A 
HETATM   11  N   UNK N   1      -0.413   1.374   0.726  0.00  0.00    -0.344 N 
HETATM   12  H   UNK N   1       0.384   1.275   1.296  0.00  0.00     0.167 HD
BRANCH   9  13
HETATM   13  C   UNK N   1      -1.269   6.223   0.689  0.00  0.00     0.102 C 
HETATM   14  N   UNK N   1      -1.974   7.186   0.220  0.00  0.00    -0.385 N 
HETATM   15  H   UNK N   1      -1.605   8.025  -0.139  0.00  0.00     0.157 HD
HETATM   16  H   UNK N   1      -2.953   7.080   0.220  0.00  0.00     0.157 HD
BRANCH  13  17
HETATM   17  N   UNK N   1      -0.101   6.516   1.431  0.00  0.00    -0.385 N 
HETATM   18  H   UNK N   1       0.482   5.914   1.947  0.00  0.00     0.157 HD
HETATM   19  H   UNK N   1       0.169   7.463   1.431  0.00  0.00     0.157 HD
ENDBRANCH  13  17
ENDBRANCH   9  13
ENDBRANCH   1   2
BRANCH   1  20
HETATM   20  C   UNK N   1       0.995  -0.792  -0.389  0.00  0.00     0.089 A 
HETATM   21  N   UNK N   1       1.541   0.243  -1.081  0.00  0.00    -0.344 N 
HETATM   22  C   UNK N   1       2.852   0.140  -0.835  0.00  0.00     0.060 A 
ATOM     23  HN  UNK N   1       1.062   0.936  -1.656  1.00  0.00     0.167 HD
HETATM   24  C   UNK N   1       3.866   0.988  -1.257  0.00  0.00     0.033 A 
HETATM   25  C   UNK N   1       3.082  -0.930  -0.030  0.00  0.00     0.061 A 
HETATM   26  C   UNK N   1       5.173   0.697  -0.827  0.00  0.00     0.017 A 
HETATM   27  C   UNK N   1       5.430  -0.429   0.001  0.00  0.00     0.009 A 
HETATM   28  C   UNK N   1       4.361  -1.259   0.409  0.00  0.00     0.047 A 
HETATM   29  N   UNK N   1       1.922  -1.530   0.275  0.00  0.00    -0.344 N 
HETATM   30  H   UNK N   1       1.776  -2.320   0.845  0.00  0.00     0.167 HD
BRANCH  27  31
HETATM   31  C   UNK N   1       6.809  -0.730   0.442  0.00  0.00     0.102 C 
HETATM   32  N   UNK N   1       7.777   0.048   0.120  0.00  0.00    -0.385 N 
HETATM   33  H   UNK N   1       8.665  -0.297  -0.126  0.00  0.00     0.157 HD
HETATM   34  H   UNK N   1       7.627   1.021   0.120  0.00  0.00     0.157 HD
BRANCH  31  35
HETATM   35  N   UNK N   1       7.072  -1.882   1.217  0.00  0.00    -0.385 N 
HETATM   36  H   UNK N   1       6.469  -2.442   1.757  0.00  0.00     0.157 HD
HETATM   37  H   UNK N   1       8.013  -2.172   1.217  0.00  0.00     0.157 HD
ENDBRANCH  31  35
ENDBRANCH  27  31
ENDBRANCH   1  20
TORSDOF 6
