REMARK  0 active torsions:
REMARK  status: ('A' for Active; 'I' for Inactive)
REMARK       I    between atoms: N_16  and  C_2 
REMARK       I    between atoms: C_29  and  N_44 
ROOT
HETATM    1  N   UNK N   1      -4.345  -5.258   0.142  0.00  0.00    -0.154 N 
HETATM    2  C   UNK N   1      -5.629  -4.829   0.010  0.00  0.00     0.680 A 
HETATM    3  N   UNK N   1      -5.910  -3.500  -0.003  0.00  0.00    -0.175 N 
ATOM      4  HN  UNK N   1      -6.877  -3.189  -0.092  1.00  0.00     0.186 HD
HETATM    5  C   UNK N   1      -4.918  -2.581   0.101  0.00  0.00     0.151 A 
HETATM    6  C   UNK N   1      -3.586  -2.994   0.242  0.00  0.00     0.142 A 
HETATM    7  C   UNK N   1      -3.314  -4.362   0.267  0.00  0.00     0.289 A 
HETATM    8  N   UNK N   1      -5.213  -1.205   0.011  0.00  0.00    -0.346 N 
HETATM    9  C   UNK N   1      -4.199  -0.346  -0.534  0.00  0.00     0.246 C 
HETATM   10  C   UNK N   1      -2.770  -0.632   0.026  0.00  0.00     0.146 C 
HETATM   11  N   UNK N   1      -2.544  -2.030   0.344  0.00  0.00    -0.372 N 
HETATM   12  O   UNK N   1      -4.606   1.019  -0.605  0.00  0.00    -0.356 OA
HETATM   13  C   UNK N   1      -4.176   1.715   0.547  0.00  0.00     0.164 C 
HETATM   14  C   UNK N   1      -4.669   3.163   0.608  0.00  0.00     0.214 C 
HETATM   15  O   UNK N   1      -4.328   3.852  -0.555  0.00  0.00    -0.286 OA
HETATM   16  N   UNK N   1      -6.670  -5.765  -0.140  0.00  0.00    -0.234 N 
HETATM   17  O   UNK N   1      -2.170  -4.765   0.377  0.00  0.00    -0.265 OA
HETATM   18  P   UNK N   1      -3.617   5.372  -0.072  0.00  0.00     0.436 P 
HETATM   19  O   UNK N   1      -4.830   6.507   0.438  0.00  0.00    -0.623 OA
HETATM   20  O   UNK N   1      -3.013   5.983  -1.362  0.00  0.00    -0.623 OA
HETATM   21  C   UNK N   1      -2.696   1.597   0.718  0.00  0.00     0.106 C 
HETATM   22  S   UNK N   1      -1.834   2.136  -0.799  0.00  0.00    -0.088 SA
HETATM   23  C   UNK N   1      -2.363   0.370   1.084  0.00  0.00     0.102 C 
HETATM   24  W   UNK N   1       0.312   1.501   0.080  0.00  0.00     0.000 W 
HETATM   25  S   UNK N   1      -0.737   0.200   1.812  0.00  0.00    -0.089 SA
HETATM   26  S   UNK N   1       0.731  -0.489  -1.142  0.00  0.00    -0.054 SA
HETATM   27  S   UNK N   1       1.414   2.456  -1.826  0.00  0.00    -0.053 SA
HETATM   28  N   UNK N   1       5.124  -5.168  -0.067  0.00  0.00    -0.154 N 
HETATM   29  C   UNK N   1       6.386  -4.669   0.049  0.00  0.00     0.680 A 
HETATM   30  N   UNK N   1       6.586  -3.324   0.144  0.00  0.00    -0.175 N 
ATOM     31  HN  UNK N   1       7.534  -2.962   0.250  1.00  0.00     0.186 HD
HETATM   32  C   UNK N   1       5.539  -2.461   0.101  0.00  0.00     0.151 A 
HETATM   33  C   UNK N   1       4.236  -2.955  -0.033  0.00  0.00     0.143 A 
HETATM   34  C   UNK N   1       4.042  -4.333  -0.102  0.00  0.00     0.289 A 
HETATM   35  N   UNK N   1       5.750  -1.057   0.163  0.00  0.00    -0.345 N 
HETATM   36  C   UNK N   1       4.729  -0.175  -0.362  0.00  0.00     0.251 C 
HETATM   37  C   UNK N   1       3.337  -0.635   0.051  0.00  0.00     0.172 C 
HETATM   38  N   UNK N   1       3.142  -2.061  -0.085  0.00  0.00    -0.369 N 
HETATM   39  O   UNK N   1       4.908   1.163   0.062  0.00  0.00    -0.352 OA
HETATM   40  C   UNK N   1       4.010   2.053  -0.619  0.00  0.00     0.190 C 
HETATM   41  C   UNK N   1       2.687   1.429  -1.085  0.00  0.00     0.036 C 
HETATM   42  C   UNK N   1       2.389   0.138  -0.797  0.00  0.00     0.033 C 
HETATM   43  C   UNK N   1       3.794   3.303   0.281  0.00  0.00     0.219 C 
HETATM   44  N   UNK N   1       7.486  -5.546   0.051  0.00  0.00    -0.234 N 
HETATM   45  O   UNK N   1       2.918  -4.796  -0.197  0.00  0.00    -0.265 OA
HETATM   46  P   UNK N   1       2.146   5.220  -0.096  0.00  0.00     0.436 P 
HETATM   47  O   UNK N   1       0.548   5.426  -0.773  0.00  0.00    -0.113 OA
HETATM   48  O   UNK N   1       3.338   5.667  -1.279  0.00  0.00    -0.623 OA
HETATM   49  O   UNK N   1       2.445   3.616   0.553  0.00  0.00    -0.285 OA
HETATM   50  O   UNK N   1      -2.321   5.291   1.098  0.00  0.00    -0.113 OA
HETATM   51  O   UNK N   1       2.270   6.234   1.069  0.00  0.00    -0.623 OA
HETATM   52 Mg   UNK N   1      -0.715   4.327   0.335  0.00  0.00     0.000 Mg
HETATM   53  H   UNK N   1      -4.153  -6.223   0.148  0.00  0.00     0.187 HD
HETATM   54  H   UNK N   1      -6.080  -0.848   0.309  0.00  0.00     0.163 HD
HETATM   55  H   UNK N   1      -1.650  -2.318   0.638  0.00  0.00     0.160 HD
HETATM   56  H   UNK N   1      -7.601  -5.462  -0.245  0.00  0.00     0.174 HD
HETATM   57  H   UNK N   1      -6.467  -6.728  -0.140  0.00  0.00     0.174 HD
HETATM   58  H   UNK N   1       4.990  -6.141  -0.127  0.00  0.00     0.187 HD
HETATM   59  H   UNK N   1       6.575  -0.691   0.557  0.00  0.00     0.163 HD
HETATM   60  H   UNK N   1       2.233  -2.415  -0.215  0.00  0.00     0.161 HD
HETATM   61  H   UNK N   1       7.340  -6.520   0.053  0.00  0.00     0.174 HD
HETATM   62  H   UNK N   1       8.402  -5.186   0.051  0.00  0.00     0.174 HD
ENDROOT
TORSDOF 0
