REMARK WARNING: 32 MAX_TORS EXCEEDED!!!
REMARK  49 active torsions:
REMARK  status: ('A' for Active; 'I' for Inactive)
REMARK    1  A    between atoms: C_9  and  C_5 
REMARK    2  A    between atoms: C_16  and  C_5 
REMARK    3  A    between atoms: C_10  and  C_6 
REMARK    4  A    between atoms: C_18  and  C_6 
REMARK    5  A    between atoms: C_11  and  C_7 
REMARK    6  A    between atoms: C_19  and  C_7 
REMARK    7  A    between atoms: C_31  and  C_9 
REMARK    8  A    between atoms: C_32  and  C_10 
REMARK    9  A    between atoms: C_33  and  C_11 
REMARK   10  A    between atoms: C_13  and  C_12 
REMARK   11  A    between atoms: C_41  and  C_12 
REMARK   12  A    between atoms: C_42  and  C_13 
REMARK   13  A    between atoms: N_62  and  C_16 
REMARK   14  A    between atoms: N_80  and  C_18 
REMARK   15  A    between atoms: N_81  and  C_19 
REMARK   16  A    between atoms: C_35  and  C_23 
REMARK   17  A    between atoms: O_83  and  C_23 
REMARK   18  A    between atoms: C_36  and  C_24 
REMARK   19  A    between atoms: O_84  and  C_24 
REMARK   20  A    between atoms: N_80  and  C_25 
REMARK   21  A    between atoms: N_81  and  C_26 
REMARK   22  A    between atoms: C_43  and  C_27 
REMARK   23  A    between atoms: C_27  and  O_87 
REMARK   24  A    between atoms: C_44  and  C_28 
REMARK   25  A    between atoms: C_28  and  O_88 
REMARK   26  A    between atoms: C_30  and  N_64 
REMARK   27  A    between atoms: C_48  and  C_31 
REMARK   28  A    between atoms: C_31  and  N_68 
REMARK   29  A    between atoms: C_47  and  C_32 
REMARK   30  A    between atoms: C_32  and  N_70 
REMARK   31  A    between atoms: N_63  and  C_34 
REMARK   32  A    between atoms: C_50  and  C_35 
REMARK   33  A    between atoms: C_35  and  N_72 
REMARK   34  A    between atoms: C_51  and  C_36 
REMARK   35  A    between atoms: C_36  and  N_74 
REMARK   36  A    between atoms: C_52  and  C_37 
REMARK   37  A    between atoms: O_89  and  C_39 
REMARK   38  A    between atoms: O_90  and  C_40 
REMARK       I    between atoms: N_63  and  C_41 
REMARK   39  A    between atoms: O_93  and  C_42 
REMARK   40  A    between atoms: C_46  and  O_94 
REMARK   41  A    between atoms: C_47  and  O_95 
REMARK   42  A    between atoms: C_48  and  O_96 
REMARK   43  A    between atoms: C_50  and  O_98 
REMARK   44  A    between atoms: C_51  and  O_99 
REMARK   45  A    between atoms: C_52  and  O_100 
REMARK   46  A    between atoms: O_101  and  C_53 
REMARK   47  A    between atoms: C_54  and  O_102 
REMARK       I    between atoms: N_58  and  C_55 
REMARK       I    between atoms: N_62  and  C_55 
REMARK   48  A    between atoms: O_103  and  N_80 
REMARK   49  A    between atoms: O_104  and  N_81 
ROOT
HETATM    1  C   UNK N   1      -4.840  14.238   0.313  0.00  0.00     0.004 C 
HETATM    2  C   UNK N   1      -6.075  15.109   0.242  0.00  0.00     0.020 C 
HETATM    3  C   UNK N   1      -4.674  13.504  -1.006  0.00  0.00     0.033 C 
HETATM    4  C   UNK N   1      -6.996  14.797   1.410  0.00  0.00     0.121 C 
HETATM    5  C   UNK N   1      -4.066  12.111  -0.815  0.00  0.00     0.158 C 
HETATM    6  C   UNK N   1      -4.679   9.016   1.435  0.00  0.00     0.158 C 
HETATM    7  C   UNK N   1      -9.278  11.766   1.180  0.00  0.00     0.186 C 
HETATM    8  C   UNK N   1      -7.480   8.667  -0.146  0.00  0.00     0.186 C 
HETATM    9  C   UNK N   1      -4.876  11.195   0.098  0.00  0.00     0.135 C 
HETATM   10  C   UNK N   1      -6.094   8.679   1.955  0.00  0.00     0.135 C 
HETATM   11  C   UNK N   1      -8.219  12.752   1.643  0.00  0.00     0.137 C 
HETATM   12  C   UNK N   1      -8.315   9.916  -0.209  0.00  0.00     0.138 C 
HETATM   13  N   UNK N   1      -8.016  13.856   1.008  0.00  0.00    -0.373 N 
ATOM     14  HN  UNK N   1      -8.595  14.073   0.196  1.00  0.00     0.161 HD
HETATM   15  N   UNK N   1      -4.293  10.158   0.598  0.00  0.00    -0.361 N 
ATOM     16  HN  UNK N   1      -3.305  10.123   0.347  1.00  0.00     0.162 HD
HETATM   17  N   UNK N   1      -7.172   8.468   1.261  0.00  0.00    -0.358 N 
ATOM     18  HN  UNK N   1      -7.948   8.092   1.806  1.00  0.00     0.162 HD
HETATM   19  N   UNK N   1      -8.596  10.518   0.907  0.00  0.00    -0.358 N 
ATOM     20  HN  UNK N   1      -8.279  10.023   1.741  1.00  0.00     0.162 HD
HETATM   21  O   UNK N   1      -6.197   8.497   3.288  0.00  0.00    -0.348 OA
HETATM   22  H   UNK N   1      -6.343   8.496   4.213  0.00  0.00     0.219 HD
ENDROOT
BRANCH   6  23
HETATM   23  C   UNK N   1      -4.086   7.778   0.801  0.00  0.00     0.035 C 
BRANCH  23  24
HETATM   24  C   UNK N   1      -4.478   7.707  -0.657  0.00  0.00     0.025 C 
BRANCH  24  25
HETATM   25  C   UNK N   1      -4.498   6.284  -1.116  0.00  0.00     0.158 C 
BRANCH  25  26
HETATM   26  N   UNK N   1      -3.271   6.007  -1.795  0.00  0.00    -0.236 N 
BRANCH  26  27
HETATM   27  C   UNK N   1      -3.305   5.518  -3.049  0.00  0.00     0.376 C 
HETATM   28  O   UNK N   1      -2.268   5.273  -3.643  0.00  0.00    -0.281 OA
ENDBRANCH  26  27
BRANCH  26  29
HETATM   29  O   UNK N   1      -2.107   6.246  -1.185  0.00  0.00    -0.285 OA
HETATM   30  H   UNK N   1      -1.533   5.601  -0.743  0.00  0.00     0.245 HD
ENDBRANCH  26  29
ENDBRANCH  25  26
ENDBRANCH  24  25
ENDBRANCH  23  24
ENDBRANCH   6  23
BRANCH   8  31
HETATM   31  C   UNK N   1      -8.282   7.480  -0.738  0.00  0.00     0.144 C 
HETATM   32  C   UNK N   1      -9.561   7.207   0.044  0.00  0.00     0.042 C 
BRANCH  31  33
HETATM   33  O   UNK N   1      -7.512   6.318  -0.756  0.00  0.00    -0.393 OA
HETATM   34  H   UNK N   1      -7.945   5.450  -0.768  0.00  0.00     0.210 HD
ENDBRANCH  31  33
ENDBRANCH   8  31
BRANCH   9  35
HETATM   35  O   UNK N   1      -6.154  11.459   0.351  0.00  0.00    -0.348 OA
HETATM   36  H   UNK N   1      -6.443  12.332   0.530  0.00  0.00     0.219 HD
ENDBRANCH   9  35
BRANCH  12  37
HETATM   37  O   UNK N   1      -8.664  10.421  -1.408  0.00  0.00    -0.348 OA
HETATM   38  H   UNK N   1      -8.481  10.807  -2.242  0.00  0.00     0.219 HD
ENDBRANCH  12  37
BRANCH   5  39
HETATM   39  N   UNK N   1      -2.694  12.087  -0.350  0.00  0.00    -0.361 N 
HETATM   40  C   UNK N   1      -1.766  12.970  -0.242  0.00  0.00     0.135 C 
ATOM     41  HN  UNK N   1      -2.398  11.162  -0.040  1.00  0.00     0.162 HD
BRANCH  40  42
HETATM   42  C   UNK N   1      -0.459  12.554   0.433  0.00  0.00     0.158 C 
BRANCH  42  43
HETATM   43  C   UNK N   1       0.336  13.803   0.812  0.00  0.00     0.035 C 
BRANCH  43  44
HETATM   44  C   UNK N   1       1.485  13.473   1.759  0.00  0.00     0.025 C 
BRANCH  44  45
HETATM   45  C   UNK N   1       2.833  13.690   1.089  0.00  0.00     0.158 C 
BRANCH  45  46
HETATM   46  N   UNK N   1       3.263  12.506   0.401  0.00  0.00    -0.236 N 
BRANCH  46  47
HETATM   47  C   UNK N   1       3.515  12.545  -0.924  0.00  0.00     0.376 C 
HETATM   48  O   UNK N   1       3.903  11.555  -1.520  0.00  0.00    -0.281 OA
ENDBRANCH  46  47
BRANCH  46  49
HETATM   49  O   UNK N   1       3.461  11.367   1.093  0.00  0.00    -0.285 OA
HETATM   50  H   UNK N   1       2.823  10.833   1.591  0.00  0.00     0.245 HD
ENDBRANCH  46  49
ENDBRANCH  45  46
ENDBRANCH  44  45
ENDBRANCH  43  44
ENDBRANCH  42  43
BRANCH  42  51
HETATM   51  N   UNK N   1       0.416  11.720  -0.386  0.00  0.00    -0.361 N 
HETATM   52  C   UNK N   1       0.313  10.470  -0.721  0.00  0.00     0.137 C 
ATOM     53  HN  UNK N   1       1.240  12.196  -0.754  1.00  0.00     0.162 HD
BRANCH  52  54
HETATM   54  C   UNK N   1      -0.860   9.582  -0.349  0.00  0.00     0.181 C 
BRANCH  54  55
HETATM   55  C   UNK N   1      -1.539   8.909  -1.543  0.00  0.00     0.197 C 
BRANCH  55  56
HETATM   56  O   UNK N   1      -0.638   8.321  -2.430  0.00  0.00    -0.398 OA
HETATM   57  H   UNK N   1      -0.679   7.574  -3.048  0.00  0.00     0.209 HD
ENDBRANCH  55  56
ENDBRANCH  54  55
BRANCH  54  58
HETATM   58  N   UNK N   1      -0.819   8.822   0.894  0.00  0.00    -0.359 N 
HETATM   59  C   UNK N   1       0.010   7.969   1.398  0.00  0.00     0.135 C 
ATOM     60  HN  UNK N   1      -1.620   9.004   1.498  1.00  0.00     0.162 HD
BRANCH  59  61
HETATM   61  C   UNK N   1       1.300   7.551   0.759  0.00  0.00     0.158 C 
BRANCH  61  62
HETATM   62  C   UNK N   1       2.313   8.686   0.801  0.00  0.00     0.035 C 
BRANCH  62  63
HETATM   63  C   UNK N   1       3.757   8.202   0.892  0.00  0.00     0.023 C 
BRANCH  63  64
HETATM   64  C   UNK N   1       4.085   7.151  -0.154  0.00  0.00     0.138 C 
BRANCH  64  65
HETATM   65  N   UNK N   1       5.440   6.701   0.023  0.00  0.00    -0.227 N 
HETATM   66  C   UNK N   1       6.542   7.476  -0.419  0.00  0.00     0.665 C 
HETATM   67  N   UNK N   1       6.356   8.578  -1.047  0.00  0.00    -0.235 N 
HETATM   68  N   UNK N   1       7.856   7.017  -0.185  0.00  0.00    -0.235 N 
HETATM   69  H   UNK N   1       7.017   9.126  -1.530  0.00  0.00     0.174 HD
ATOM     70  HN  UNK N   1       5.399   8.934  -1.047  1.00  0.00     0.174 HD
HETATM   71  H   UNK N   1       8.037   6.063  -0.022  0.00  0.00     0.174 HD
HETATM   72  H   UNK N   1       8.601   7.660  -0.185  0.00  0.00     0.174 HD
HETATM   73  H   UNK N   1       5.606   5.835   0.461  0.00  0.00     0.177 HD
ENDBRANCH  64  65
ENDBRANCH  63  64
ENDBRANCH  62  63
ENDBRANCH  61  62
BRANCH  61  74
HETATM   74  N   UNK N   1       1.034   7.147  -0.601  0.00  0.00    -0.361 N 
HETATM   75  C   UNK N   1       0.791   5.949  -1.015  0.00  0.00     0.137 C 
ATOM     76  HN  UNK N   1       1.037   7.884  -1.307  1.00  0.00     0.162 HD
BRANCH  75  77
HETATM   77  C   UNK N   1       0.862   4.719  -0.139  0.00  0.00     0.181 C 
BRANCH  77  78
HETATM   78  C   UNK N   1       2.322   4.362   0.095  0.00  0.00     0.197 C 
BRANCH  78  79
HETATM   79  O   UNK N   1       2.960   4.074  -1.114  0.00  0.00    -0.398 OA
HETATM   80  H   UNK N   1       3.008   3.591  -1.953  0.00  0.00     0.209 HD
ENDBRANCH  78  79
ENDBRANCH  77  78
BRANCH  77  81
HETATM   81  N   UNK N   1       0.227   4.851   1.174  0.00  0.00    -0.359 N 
HETATM   82  C   UNK N   1      -0.919   4.380   1.559  0.00  0.00     0.135 C 
ATOM     83  HN  UNK N   1       0.751   5.378   1.872  1.00  0.00     0.162 HD
BRANCH  82  84
HETATM   84  C   UNK N   1      -1.928   3.809   0.593  0.00  0.00     0.163 C 
HETATM   85  C   UNK N   1      -3.301   4.432   0.920  0.00  0.00     0.053 C 
HETATM   86  C   UNK N   1      -4.136   3.482   1.791  0.00  0.00     0.118 C 
HETATM   87  N   UNK N   1      -4.323   2.153   1.175  0.00  0.00    -0.397 N 
HETATM   88  C   UNK N   1      -3.359   1.883   0.096  0.00  0.00     0.232 A 
HETATM   89  H   UNK N   1      -5.043   1.493   1.465  0.00  0.00     0.155 HD
HETATM   90  C   UNK N   1      -3.450   0.434  -0.328  0.00  0.00     0.055 A 
HETATM   91  N   UNK N   1      -2.043   2.353   0.513  0.00  0.00    -0.341 N 
HETATM   92  C   UNK N   1      -2.372  -0.361  -0.320  0.00  0.00     0.043 A 
HETATM   93  C   UNK N   1      -1.050   0.146   0.070  0.00  0.00    -0.005 A 
HETATM   94  C   UNK N   1       0.070  -0.694   0.003  0.00  0.00     0.053 A 
HETATM   95  C   UNK N   1      -0.907   1.475   0.500  0.00  0.00     0.046 A 
HETATM   96  C   UNK N   1       1.332  -0.222   0.383  0.00  0.00     0.099 A 
HETATM   97  C   UNK N   1       1.471   1.084   0.853  0.00  0.00     0.101 A 
HETATM   98  C   UNK N   1       0.358   1.914   0.907  0.00  0.00     0.069 A 
BRANCH  90  99
HETATM   99  N   UNK N   1      -4.724  -0.113  -0.665  0.00  0.00    -0.327 N 
HETATM  100  C   UNK N   1      -5.726   0.586  -1.272  0.00  0.00     0.222 C 
HETATM  101  O   UNK N   1      -5.507   1.637  -1.853  0.00  0.00    -0.273 OA
HETATM  102  H   UNK N   1      -4.891  -1.058  -0.445  0.00  0.00     0.168 HD
BRANCH 100 103
HETATM  103  C   UNK N   1      -7.124   0.084  -1.192  0.00  0.00     0.113 C 
BRANCH 103 104
HETATM  104  C   UNK N   1      -7.580   0.196   0.260  0.00  0.00     0.119 C 
BRANCH 104 105
HETATM  105  C   UNK N   1      -8.373   1.443   0.513  0.00  0.00     0.139 C 
HETATM  106  O   UNK N   1      -7.904   2.543   0.261  0.00  0.00    -0.650 OA
BRANCH 105 107
HETATM  107  O   UNK N   1      -9.599   1.349   1.059  0.00  0.00    -0.776 OA
HETATM  108  H   UNK N   1     -10.083   2.056   1.440  0.00  0.00     0.167 HD
ENDBRANCH 105 107
ENDBRANCH 104 105
ENDBRANCH 103 104
ENDBRANCH 100 103
ENDBRANCH  90  99
BRANCH  96 109
HETATM  109  O   UNK N   1       2.405  -1.026   0.300  0.00  0.00    -0.358 OA
HETATM  110  H   UNK N   1       2.293  -1.955   0.242  0.00  0.00     0.217 HD
ENDBRANCH  96 109
BRANCH  97 111
HETATM  111  O   UNK N   1       2.669   1.548   1.247  0.00  0.00    -0.358 OA
HETATM  112  H   UNK N   1       3.367   0.986   1.522  0.00  0.00     0.217 HD
ENDBRANCH  97 111
ENDBRANCH  82  84
BRANCH  82 113
HETATM  113  O   UNK N   1      -1.248   4.472   2.864  0.00  0.00    -0.348 OA
HETATM  114  H   UNK N   1      -1.307   4.702   3.770  0.00  0.00     0.219 HD
ENDBRANCH  82 113
ENDBRANCH  77  81
ENDBRANCH  75  77
BRANCH  75 115
HETATM  115  O   UNK N   1       0.484   5.772  -2.315  0.00  0.00    -0.348 OA
HETATM  116  H   UNK N   1       0.271   5.895  -3.219  0.00  0.00     0.219 HD
ENDBRANCH  75 115
ENDBRANCH  61  74
ENDBRANCH  59  61
BRANCH  59 117
HETATM  117  O   UNK N   1      -0.315   7.403   2.576  0.00  0.00    -0.348 OA
HETATM  118  H   UNK N   1      -0.769   7.402   3.396  0.00  0.00     0.219 HD
ENDBRANCH  59 117
ENDBRANCH  54  58
ENDBRANCH  52  54
BRANCH  52 119
HETATM  119  O   UNK N   1       1.286   9.945  -1.492  0.00  0.00    -0.348 OA
HETATM  120  H   UNK N   1       1.308   9.177  -2.028  0.00  0.00     0.219 HD
ENDBRANCH  52 119
ENDBRANCH  42  51
ENDBRANCH  40  42
BRANCH  40 121
HETATM  121  O   UNK N   1      -1.972  14.244  -0.633  0.00  0.00    -0.348 OA
HETATM  122  H   UNK N   1      -1.277  14.811  -0.905  0.00  0.00     0.219 HD
ENDBRANCH  40 121
ENDBRANCH   5  39
BRANCH   7 123
HETATM  123  C   UNK N   1     -10.179  12.263   0.033  0.00  0.00     0.144 C 
HETATM  124  C   UNK N   1     -10.960  13.491   0.464  0.00  0.00     0.042 C 
BRANCH 123 125
HETATM  125  O   UNK N   1     -11.093  11.263  -0.308  0.00  0.00    -0.393 OA
HETATM  126  H   UNK N   1     -12.012  11.465  -0.544  0.00  0.00     0.210 HD
ENDBRANCH 123 125
ENDBRANCH   7 123
BRANCH  11 127
HETATM  127  O   UNK N   1      -7.454  12.431   2.711  0.00  0.00    -0.348 OA
HETATM  128  H   UNK N   1      -7.381  11.861   3.452  0.00  0.00     0.219 HD
ENDBRANCH  11 127
TORSDOF 49
