REMARK  2 active torsions:
REMARK  status: ('A' for Active; 'I' for Inactive)
REMARK    1  A    between atoms: C_2  and  C_3 
REMARK    2  A    between atoms: C_3  and  C_4 
ROOT
HETATM    1  C   UNK N   1       2.326  -1.417  -0.007  0.00  0.00     0.216 C 
HETATM    2  N   UNK N   1       3.398  -0.512   0.011  0.00  0.00    -0.472 NA
HETATM    3  C   UNK N   1       4.268   0.249  -0.008  0.00  0.00     0.220 C 
ENDROOT
BRANCH   1   4
HETATM    4  C   UNK N   1       1.076  -0.580   0.006  0.00  0.00     0.033 C 
BRANCH   4   5
HETATM    5  C   UNK N   1      -0.174  -1.409  -0.002  0.00  0.00    -0.002 C 
HETATM    6  C   UNK N   1      -1.325  -0.430   0.000  0.00  0.00     0.005 C 
ENDBRANCH   4   5
ENDBRANCH   1   4
TORSDOF 2
