REMARK  18 active torsions:
REMARK  status: ('A' for Active; 'I' for Inactive)
REMARK    1  A    between atoms: P_1  and  O_8 
REMARK    2  A    between atoms: P_1  and  O_12 
REMARK    3  A    between atoms: P_1  and  O_14 
REMARK    4  A    between atoms: P_2  and  O_7 
REMARK    5  A    between atoms: P_2  and  O_12 
REMARK    6  A    between atoms: P_2  and  O_15 
REMARK    7  A    between atoms: C_26  and  O_5 
REMARK    8  A    between atoms: C_27  and  O_6 
REMARK    9  A    between atoms: O_7  and  C_34 
REMARK   10  A    between atoms: C_35  and  O_8 
REMARK   11  A    between atoms: C_30  and  O_9 
REMARK   12  A    between atoms: C_31  and  O_10 
REMARK   13  A    between atoms: C_32  and  O_11 
REMARK   14  A    between atoms: O_13  and  C_36 
REMARK   15  A    between atoms: C_29  and  N_18 
REMARK   16  A    between atoms: N_25  and  C_40 
REMARK   17  A    between atoms: C_28  and  C_34 
REMARK   18  A    between atoms: C_33  and  C_36 
ROOT
HETATM    1  O   UNK N   1      16.791  -5.077   0.937  0.00  0.00    -0.294 OA
ENDROOT
BRANCH   1   2
HETATM    2  P   UNK N   1      17.469  -5.048  -0.675  0.00  0.00     0.401 P 
HETATM    3  O   UNK N   1      17.502  -3.560  -1.112  0.00  0.00    -0.631 OA
BRANCH   2   4
HETATM    4  O   UNK N   1      19.120  -5.605  -0.756  0.00  0.00    -0.195 OA
BRANCH   4   5
HETATM    5  P   UNK N   1      19.340  -6.794   0.504  0.00  0.00     0.404 P 
HETATM    6  O   UNK N   1      18.390  -7.991   0.229  0.00  0.00    -0.631 OA
BRANCH   5   7
HETATM    7  O   UNK N   1      20.972  -7.429   0.524  0.00  0.00    -0.263 OA
BRANCH   7   8
HETATM    8  C   UNK N   1      21.832  -6.532  -0.139  0.00  0.00     0.303 C 
HETATM    9  O   UNK N   1      21.678  -5.218   0.354  0.00  0.00    -0.348 OA
HETATM   10  C   UNK N   1      22.365  -4.381  -0.540  0.00  0.00     0.179 C 
HETATM   11  C   UNK N   1      23.866  -4.530  -0.274  0.00  0.00     0.180 C 
HETATM   12  C   UNK N   1      24.239  -5.984  -0.574  0.00  0.00     0.183 C 
HETATM   13  C   UNK N   1      23.285  -6.960   0.122  0.00  0.00     0.205 C 
BRANCH  10  14
HETATM   14  C   UNK N   1      21.865  -2.948  -0.405  0.00  0.00     0.198 C 
BRANCH  14  15
HETATM   15  O   UNK N   1      21.981  -2.505   0.913  0.00  0.00    -0.398 OA
HETATM   16  H   UNK N   1      22.288  -2.421   1.829  0.00  0.00     0.209 HD
ENDBRANCH  14  15
ENDBRANCH  10  14
BRANCH  11  17
HETATM   17  O   UNK N   1      24.599  -3.680  -1.104  0.00  0.00    -0.390 OA
HETATM   18  H   UNK N   1      25.366  -3.826  -1.680  0.00  0.00     0.210 HD
ENDBRANCH  11  17
BRANCH  12  19
HETATM   19  O   UNK N   1      25.554  -6.234  -0.179  0.00  0.00    -0.390 OA
HETATM   20  H   UNK N   1      25.861  -7.113   0.095  0.00  0.00     0.210 HD
ENDBRANCH  12  19
BRANCH  13  21
HETATM   21  O   UNK N   1      23.503  -8.253  -0.357  0.00  0.00    -0.388 OA
HETATM   22  H   UNK N   1      22.801  -8.834  -0.690  0.00  0.00     0.210 HD
ENDBRANCH  13  21
ENDBRANCH   7   8
ENDBRANCH   5   7
BRANCH   5  23
HETATM   23  O   UNK N   1      18.972  -6.160   2.078  0.00  0.00    -0.307 OA
HETATM   24  H   UNK N   1      19.176  -5.805   2.958  0.00  0.00     0.222 HD
ENDBRANCH   5  23
ENDBRANCH   4   5
ENDBRANCH   2   4
BRANCH   2  25
HETATM   25  O   UNK N   1      16.493  -5.876  -1.848  0.00  0.00    -0.307 OA
HETATM   26  H   UNK N   1      15.820  -5.635  -2.504  0.00  0.00     0.222 HD
ENDBRANCH   2  25
ENDBRANCH   1   2
BRANCH   1  27
HETATM   27  C   UNK N   1      15.408  -5.017   0.760  0.00  0.00     0.215 C 
BRANCH  27  28
HETATM   28  C   UNK N   1      14.727  -6.321   1.216  0.00  0.00     0.180 C 
HETATM   29  O   UNK N   1      15.474  -7.432   0.745  0.00  0.00    -0.353 OA
HETATM   30  C   UNK N   1      14.819  -7.899  -0.420  0.00  0.00     0.262 C 
HETATM   31  C   UNK N   1      13.741  -6.881  -0.754  0.00  0.00     0.198 C 
HETATM   32  C   UNK N   1      13.336  -6.452   0.607  0.00  0.00     0.182 C 
BRANCH  30  33
HETATM   33  N   UNK N   1      14.396  -9.295  -0.219  0.00  0.00    -0.297 N 
HETATM   34  C   UNK N   1      13.187  -9.863  -0.053  0.00  0.00     0.142 A 
HETATM   35  N   UNK N   1      11.973  -9.265   0.028  0.00  0.00    -0.336 N 
HETATM   36  C   UNK N   1      13.331 -11.202   0.029  0.00  0.00     0.122 A 
HETATM   37  C   UNK N   1      10.868 -10.057   0.182  0.00  0.00     0.183 A 
ATOM     38  HN  UNK N   1      11.886  -8.250  -0.024  1.00  0.00     0.168 HD
HETATM   39  N   UNK N   1      10.994 -11.423   0.249  0.00  0.00    -0.337 N 
HETATM   40  C   UNK N   1      12.222 -12.018   0.176  0.00  0.00     0.131 A 
ATOM     41  HN  UNK N   1      10.160 -12.001   0.354  1.00  0.00     0.168 HD
HETATM   42  N   UNK N   1      14.631 -11.529  -0.065  0.00  0.00    -0.346 N 
HETATM   43  C   UNK N   1      15.270 -10.336  -0.213  0.00  0.00     0.188 A 
ATOM     44  HN  UNK N   1      15.045 -12.461  -0.032  1.00  0.00     0.167 HD
BRANCH  40  45
HETATM   45  N   UNK N   1      12.346 -13.420   0.238  0.00  0.00    -0.383 N 
HETATM   46  H   UNK N   1      11.540 -13.985   0.282  0.00  0.00     0.157 HD
HETATM   47  H   UNK N   1      13.238 -13.835   0.238  0.00  0.00     0.157 HD
ENDBRANCH  40  45
ENDBRANCH  30  33
BRANCH  31  48
HETATM   48  O   UNK N   1      12.711  -7.340  -1.573  0.00  0.00    -0.388 OA
HETATM   49  H   UNK N   1      12.076  -6.878  -2.143  0.00  0.00     0.210 HD
ENDBRANCH  31  48
BRANCH  32  50
HETATM   50  O   UNK N   1      12.636  -5.243   0.586  0.00  0.00    -0.390 OA
HETATM   51  H   UNK N   1      13.120  -4.403   0.571  0.00  0.00     0.210 HD
ENDBRANCH  32  50
ENDBRANCH  27  28
ENDBRANCH   1  27
TORSDOF 18
