REMARK  5 active torsions:
REMARK  status: ('A' for Active; 'I' for Inactive)
REMARK    1  A    between atoms: C_17  and  C_21 
REMARK    2  A    between atoms: C_21  and  C_23 
REMARK    3  A    between atoms: C_23  and  O_24 
REMARK    4  A    between atoms: O_24  and  C_25 
REMARK    5  A    between atoms: C_25  and  C_27 
ROOT
HETATM    1  C   UNK N   1      -0.764  -3.127  -0.901  0.00  0.00     0.010 C 
HETATM    2  C   UNK N   1      -1.949  -3.992  -0.415  0.00  0.00     0.035 C 
HETATM    3  C   UNK N   1      -3.249  -3.233  -0.347  0.00  0.00    -0.068 C 
HETATM    4  C   UNK N   1      -4.356  -3.761  -0.891  0.00  0.00     0.053 C 
HETATM    5  C   UNK N   1      -5.521  -1.439  -0.873  0.00  0.00     0.084 C 
HETATM    6  C   UNK N   1      -4.077  -0.934  -0.691  0.00  0.00     0.022 C 
HETATM    7  C   UNK N   1      -3.295  -1.844   0.270  0.00  0.00    -0.016 C 
HETATM    8  C   UNK N   1      -4.031  -1.893   1.613  0.00  0.00     0.020 C 
HETATM    9  C   UNK N   1      -1.012   1.167   0.315  0.00  0.00     0.011 C 
HETATM   10  C   UNK N   1       2.477   0.158  -0.832  0.00  0.00     0.013 C 
HETATM   11  C   UNK N   1       1.634  -1.081  -1.230  0.00  0.00     0.006 C 
HETATM   12  C   UNK N   1      -1.863  -1.330   0.508  0.00  0.00     0.002 C 
HETATM   13  C   UNK N   1       0.360  -0.882  -0.425  0.00  0.00    -0.001 C 
HETATM   14  C   UNK N   1      -0.955  -1.604  -0.730  0.00  0.00    -0.004 C 
HETATM   15  C   UNK N   1       0.155   0.635  -0.519  0.00  0.00    -0.030 C 
HETATM   16  C   UNK N   1      -0.099   1.081  -1.974  0.00  0.00     0.016 C 
HETATM   17  C   UNK N   1       1.530   1.077  -0.026  0.00  0.00     0.066 C 
HETATM   18  C   UNK N   1      -5.586  -2.944  -1.003  0.00  0.00     0.149 C 
HETATM   19  O   UNK N   1      -6.653  -3.484  -1.240  0.00  0.00    -0.293 OA
HETATM   20  C   UNK N   1      -1.863   0.122   1.047  0.00  0.00     0.007 C 
ENDROOT
BRANCH  17  21
HETATM   21  C   UNK N   1       1.864   2.552  -0.087  0.00  0.00     0.155 C 
HETATM   22  O   UNK N   1       1.115   3.344  -0.637  0.00  0.00    -0.295 OA
BRANCH  21  23
HETATM   23  C   UNK N   1       3.068   3.074   0.644  0.00  0.00     0.257 C 
BRANCH  23  24
HETATM   24  O   UNK N   1       4.162   2.277   0.405  0.00  0.00    -0.313 OA
BRANCH  24  25
HETATM   25  C   UNK N   1       4.894   2.349  -0.734  0.00  0.00     0.266 C 
HETATM   26  O   UNK N   1       4.712   3.260  -1.529  0.00  0.00    -0.264 OA
BRANCH  25  27
HETATM   27  C   UNK N   1       5.918   1.284  -1.032  0.00  0.00     0.037 C 
HETATM   28  C   UNK N   1       7.292   1.910  -1.156  0.00  0.00     0.025 C 
HETATM   29  C   UNK N   1       5.963   0.231   0.064  0.00  0.00     0.025 C 
HETATM   30  C   UNK N   1       5.564   0.596  -2.338  0.00  0.00     0.025 C 
ENDBRANCH  25  27
ENDBRANCH  24  25
ENDBRANCH  23  24
ENDBRANCH  21  23
ENDBRANCH  17  21
TORSDOF 5
