REMARK  13 active torsions:
REMARK  status: ('A' for Active; 'I' for Inactive)
REMARK    1  A    between atoms: C_29  and  C_19 
REMARK    2  A    between atoms: C_30  and  C_19 
REMARK    3  A    between atoms: O_44  and  C_24 
REMARK    4  A    between atoms: S_45  and  C_25 
REMARK    5  A    between atoms: S_46  and  C_26 
REMARK    6  A    between atoms: C_31  and  C_27 
REMARK    7  A    between atoms: N_33  and  C_28 
REMARK    8  A    between atoms: C_32  and  C_29 
REMARK    9  A    between atoms: C_29  and  N_34 
REMARK   10  A    between atoms: O_36  and  C_30 
REMARK       I    between atoms: N_34  and  C_31 
REMARK   11  A    between atoms: O_39  and  C_32 
REMARK   12  A    between atoms: S_45  and  N_33 
REMARK   13  A    between atoms: S_46  and  O_44 
ROOT
HETATM    1  C   UNK N   1       5.885   2.913   0.511  0.00  0.00     0.040 A 
HETATM    2  C   UNK N   1       5.748   4.214   0.971  0.00  0.00     0.034 A 
HETATM    3  C   UNK N   1       3.759   3.104  -0.630  0.00  0.00     0.057 A 
HETATM    4  C   UNK N   1       4.881   2.355  -0.275  0.00  0.00     0.090 A 
HETATM    5  C   UNK N   1       3.592   4.404  -0.160  0.00  0.00     0.062 A 
HETATM    6  C   UNK N   1       4.596   4.948   0.678  0.00  0.00     0.058 A 
ENDROOT
BRANCH   6   7
HETATM    7  N   UNK N   1       4.533   6.275   1.105  0.00  0.00    -0.280 N 
HETATM    8  H   UNK N   1       4.001   6.526   1.894  0.00  0.00     0.179 HD
BRANCH   7   9
HETATM    9  S   UNK N   1       5.420   7.479   0.207  0.00  0.00     0.263 S 
HETATM   10  O   UNK N   1       5.824   6.785  -1.105  0.00  0.00    -0.200 OA
HETATM   11  O   UNK N   1       6.743   7.671   0.964  0.00  0.00    -0.200 OA
BRANCH   9  12
HETATM   12  C   UNK N   1       4.415   8.904  -0.026  0.00  0.00     0.080 A 
HETATM   13  C   UNK N   1       3.034   8.768   0.122  0.00  0.00     0.026 A 
HETATM   14  C   UNK N   1       2.201   9.869  -0.038  0.00  0.00     0.014 A 
HETATM   15  C   UNK N   1       2.750  11.110  -0.347  0.00  0.00    -0.026 A 
HETATM   16  C   UNK N   1       1.918  12.217  -0.506  0.00  0.00     0.012 A 
HETATM   17  C   UNK N   1       4.151  11.248  -0.498  0.00  0.00    -0.025 A 
HETATM   18  C   UNK N   1       2.471  13.461  -0.815  0.00  0.00     0.001 A 
HETATM   19  C   UNK N   1       3.856  13.599  -0.965  0.00  0.00     0.001 A 
HETATM   20  C   UNK N   1       4.696  12.493  -0.807  0.00  0.00     0.012 A 
HETATM   21  C   UNK N   1       4.981  10.139  -0.336  0.00  0.00     0.037 A 
ENDBRANCH   9  12
ENDBRANCH   7   9
ENDBRANCH   6   7
BRANCH   5  22
HETATM   22  C   UNK N   1       2.347   5.118  -0.566  0.00  0.00     0.256 C 
HETATM   23  N   UNK N   1       1.413   5.545   0.349  0.00  0.00    -0.337 N 
HETATM   24  C   UNK N   1       1.646   5.316   1.762  0.00  0.00     0.154 C 
HETATM   25  O   UNK N   1       2.095   5.185  -1.765  0.00  0.00    -0.267 OA
BRANCH  23  26
HETATM   26  C   UNK N   1       0.103   6.068  -0.073  0.00  0.00     0.194 C 
BRANCH  26  27
HETATM   27  C   UNK N   1      -0.989   5.043   0.287  0.00  0.00     0.146 C 
BRANCH  27  28
HETATM   28  C   UNK N   1      -2.397   5.392  -0.131  0.00  0.00     0.141 C 
HETATM   29  O   UNK N   1      -3.290   4.580   0.043  0.00  0.00    -0.650 OA
BRANCH  28  30
HETATM   30  O   UNK N   1      -2.689   6.587  -0.681  0.00  0.00    -0.776 OA
HETATM   31  H   UNK N   1      -2.071   7.178  -1.063  0.00  0.00     0.167 HD
ENDBRANCH  28  30
ENDBRANCH  27  28
ENDBRANCH  26  27
BRANCH  26  32
HETATM   32  C   UNK N   1      -0.190   7.407   0.560  0.00  0.00     0.164 C 
HETATM   33  O   UNK N   1      -0.264   7.516   1.774  0.00  0.00    -0.648 OA
BRANCH  32  34
HETATM   34  O   UNK N   1      -0.423   8.480  -0.219  0.00  0.00    -0.775 OA
HETATM   35  H   UNK N   1       0.142   8.994  -0.761  0.00  0.00     0.167 HD
ENDBRANCH  32  34
ENDBRANCH  26  32
ENDBRANCH  23  26
ENDBRANCH   5  22
BRANCH   4  36
HETATM   36  O   UNK N   1       4.901   1.043  -0.517  0.00  0.00    -0.229 OA
BRANCH  36  37
HETATM   37  S   UNK N   1       3.834   0.097   0.401  0.00  0.00     0.303 S 
HETATM   38  O   UNK N   1       3.921   0.698   1.816  0.00  0.00    -0.193 OA
HETATM   39  O   UNK N   1       4.530  -1.252   0.623  0.00  0.00    -0.193 OA
BRANCH  37  40
HETATM   40  C   UNK N   1       2.122  -0.031  -0.082  0.00  0.00     0.087 A 
HETATM   41  C   UNK N   1       1.702  -1.109  -0.864  0.00  0.00     0.027 A 
HETATM   42  C   UNK N   1       0.358  -1.238  -1.219  0.00  0.00     0.014 A 
HETATM   43  C   UNK N   1      -0.572  -0.288  -0.790  0.00  0.00    -0.026 A 
HETATM   44  C   UNK N   1      -1.919  -0.422  -1.132  0.00  0.00     0.012 A 
HETATM   45  C   UNK N   1      -0.149   0.808  -0.004  0.00  0.00    -0.025 A 
HETATM   46  C   UNK N   1      -2.848   0.527  -0.694  0.00  0.00     0.001 A 
HETATM   47  C   UNK N   1      -2.430   1.612   0.084  0.00  0.00     0.001 A 
HETATM   48  C   UNK N   1      -1.082   1.754   0.429  0.00  0.00     0.012 A 
HETATM   49  C   UNK N   1       1.198   0.931   0.347  0.00  0.00     0.038 A 
ENDBRANCH  37  40
ENDBRANCH  36  37
ENDBRANCH   4  36
TORSDOF 13
