REMARK  15 active torsions:
REMARK  status: ('A' for Active; 'I' for Inactive)
REMARK    1  A    between atoms: C_2  and  O_1 
REMARK    2  A    between atoms: C_3  and  O_4 
REMARK    3  A    between atoms: C_5  and  O_6 
REMARK    4  A    between atoms: O_6  and  P_7 
REMARK    5  A    between atoms: P_7  and  O_8 
REMARK    6  A    between atoms: P_7  and  O_9 
REMARK    7  A    between atoms: C_11  and  O_12 
REMARK    8  A    between atoms: O_12  and  P_13 
REMARK    9  A    between atoms: P_13  and  O_14 
REMARK   10  A    between atoms: P_13  and  O_15 
REMARK   11  A    between atoms: C_17  and  O_18 
REMARK   12  A    between atoms: C_19  and  O_20 
REMARK   13  A    between atoms: O_20  and  P_21 
REMARK   14  A    between atoms: P_21  and  O_22 
REMARK   15  A    between atoms: P_21  and  O_23 
ROOT
HETATM    1  C   UNK N   1       2.409   0.801  -0.135  0.00  0.00     0.181 C 
HETATM    2  C   UNK N   1       2.026  -0.442   0.668  0.00  0.00     0.181 C 
HETATM    3  C   UNK N   1       0.758  -1.084   0.089  0.00  0.00     0.197 C 
HETATM    4  C   UNK N   1      -0.400  -0.071   0.109  0.00  0.00     0.197 C 
HETATM    5  C   UNK N   1      -0.004   1.140  -0.749  0.00  0.00     0.182 C 
HETATM    6  C   UNK N   1       1.255   1.806  -0.185  0.00  0.00     0.196 C 
ENDROOT
BRANCH   3   7
HETATM    7  O   UNK N   1       0.434  -2.252   0.794  0.00  0.00    -0.286 OA
BRANCH   7   8
HETATM    8  P   UNK N   1       0.135  -3.462  -0.429  0.00  0.00     0.391 P 
HETATM    9  O   UNK N   1      -1.010  -3.745   0.577  0.00  0.00    -0.632 OA
BRANCH   8  10
HETATM   10  O   UNK N   1       0.297  -5.161  -0.118  0.00  0.00    -0.307 OA
HETATM   11  H   UNK N   1      -0.481  -5.714   0.057  0.00  0.00     0.222 HD
ENDBRANCH   8  10
BRANCH   8  12
HETATM   12  O   UNK N   1       1.649  -3.829   0.338  0.00  0.00    -0.307 OA
HETATM   13  H   UNK N   1       1.894  -4.664   0.767  0.00  0.00     0.222 HD
ENDBRANCH   8  12
ENDBRANCH   7   8
ENDBRANCH   3   7
BRANCH   2  14
HETATM   14  O   UNK N   1       3.081  -1.357   0.631  0.00  0.00    -0.390 OA
HETATM   15  H   UNK N   1       2.898  -2.309   0.605  0.00  0.00     0.210 HD
ENDBRANCH   2  14
BRANCH   4  16
HETATM   16  O   UNK N   1      -1.569  -0.676  -0.395  0.00  0.00    -0.286 OA
BRANCH  16  17
HETATM   17  P   UNK N   1      -2.904  -0.006   0.514  0.00  0.00     0.391 P 
HETATM   18  O   UNK N   1      -4.221  -0.770   0.212  0.00  0.00    -0.632 OA
BRANCH  17  19
HETATM   19  O   UNK N   1      -3.174   0.227  -1.187  0.00  0.00    -0.307 OA
HETATM   20  H   UNK N   1      -3.136   0.423  -2.136  0.00  0.00     0.222 HD
ENDBRANCH  17  19
BRANCH  17  21
HETATM   21  O   UNK N   1      -2.620  -1.603   1.129  0.00  0.00    -0.307 OA
HETATM   22  H   UNK N   1      -3.313  -2.187   1.472  0.00  0.00     0.222 HD
ENDBRANCH  17  21
ENDBRANCH  16  17
ENDBRANCH   4  16
BRANCH   1  23
HETATM   23  O   UNK N   1       3.533   1.404   0.435  0.00  0.00    -0.390 OA
HETATM   24  H   UNK N   1       4.285   0.937   0.831  0.00  0.00     0.210 HD
ENDBRANCH   1  23
BRANCH   5  25
HETATM   25  O   UNK N   1      -1.042   2.073  -0.787  0.00  0.00    -0.390 OA
HETATM   26  H   UNK N   1      -0.841   3.021  -0.813  0.00  0.00     0.210 HD
ENDBRANCH   5  25
BRANCH   6  27
HETATM   27  O   UNK N   1       1.614   2.888  -0.996  0.00  0.00    -0.286 OA
BRANCH  27  28
HETATM   28  P   UNK N   1       1.193   4.335  -0.117  0.00  0.00     0.391 P 
HETATM   29  O   UNK N   1       0.565   5.308  -1.150  0.00  0.00    -0.632 OA
BRANCH  28  30
HETATM   30  O   UNK N   1      -0.019   4.074   1.101  0.00  0.00    -0.307 OA
HETATM   31  H   UNK N   1      -0.484   4.587   1.781  0.00  0.00     0.222 HD
ENDBRANCH  28  30
BRANCH  28  32
HETATM   32  O   UNK N   1       2.590   5.134   0.533  0.00  0.00    -0.307 OA
HETATM   33  H   UNK N   1       3.367   4.681   0.897  0.00  0.00     0.222 HD
ENDBRANCH  28  32
ENDBRANCH  27  28
ENDBRANCH   6  27
TORSDOF 15
