REMARK  22 active torsions:
REMARK  status: ('A' for Active; 'I' for Inactive)
REMARK    1  A    between atoms: C_6  and  C_5 
REMARK    2  A    between atoms: C_7  and  C_6 
REMARK    3  A    between atoms: C_8  and  C_7 
REMARK    4  A    between atoms: C_9  and  C_8 
REMARK    5  A    between atoms: C_10  and  C_9 
REMARK    6  A    between atoms: C_11  and  C_10 
REMARK    7  A    between atoms: C_12  and  C_11 
REMARK    8  A    between atoms: C_13  and  C_12 
REMARK    9  A    between atoms: C_14  and  C_13 
REMARK   10  A    between atoms: C_20  and  C_14 
REMARK   11  A    between atoms: C_16  and  C_15 
REMARK   12  A    between atoms: N_21  and  C_15 
REMARK   13  A    between atoms: O_27  and  C_16 
REMARK   14  A    between atoms: C_19  and  C_17 
REMARK   15  A    between atoms: O_26  and  C_17 
REMARK   16  A    between atoms: C_19  and  C_18 
REMARK   17  A    between atoms: O_28  and  C_18 
REMARK   18  A    between atoms: O_22  and  C_19 
REMARK   19  A    between atoms: O_26  and  C_20 
REMARK   20  A    between atoms: P_29  and  O_25 
REMARK   21  A    between atoms: P_29  and  O_27 
REMARK   22  A    between atoms: P_29  and  O_28 
ROOT
HETATM    1  C   UNK N   1      15.105  -2.488  -0.431  0.00  0.00     0.166 C 
ENDROOT
BRANCH   1   2
HETATM    2  C   UNK N   1      13.974  -3.259  -1.081  0.00  0.00     0.212 C 
BRANCH   2   3
HETATM    3  O   UNK N   1      13.570  -4.281  -0.251  0.00  0.00    -0.319 OA
BRANCH   3   4
HETATM    4  C   UNK N   1      12.528  -4.163   0.615  0.00  0.00     0.258 C 
HETATM    5  O   UNK N   1      12.186  -5.129   1.273  0.00  0.00    -0.265 OA
BRANCH   4   6
HETATM    6  C   UNK N   1      11.798  -2.856   0.794  0.00  0.00     0.111 C 
BRANCH   6   7
HETATM    7  C   UNK N   1      11.221  -2.379  -0.536  0.00  0.00     0.010 C 
BRANCH   7   8
HETATM    8  C   UNK N   1       9.755  -2.729  -0.740  0.00  0.00     0.000 C 
BRANCH   8   9
HETATM    9  C   UNK N   1       9.439  -4.166  -0.371  0.00  0.00     0.000 C 
BRANCH   9  10
HETATM   10  C   UNK N   1       8.624  -4.148   0.910  0.00  0.00     0.000 C 
BRANCH  10  11
HETATM   11  C   UNK N   1       7.200  -4.609   0.651  0.00  0.00     0.000 C 
BRANCH  11  12
HETATM   12  C   UNK N   1       6.505  -3.710  -0.358  0.00  0.00     0.000 C 
BRANCH  12  13
HETATM   13  C   UNK N   1       5.148  -4.286  -0.696  0.00  0.00     0.000 C 
BRANCH  13  14
HETATM   14  C   UNK N   1       4.087  -3.629   0.160  0.00  0.00    -0.000 C 
BRANCH  14  15
HETATM   15  C   UNK N   1       2.748  -4.264  -0.141  0.00  0.00    -0.005 C 
HETATM   16  C   UNK N   1       1.640  -3.343   0.319  0.00  0.00     0.005 C 
ENDBRANCH  14  15
ENDBRANCH  13  14
ENDBRANCH  12  13
ENDBRANCH  11  12
ENDBRANCH  10  11
ENDBRANCH   9  10
ENDBRANCH   8   9
ENDBRANCH   7   8
ENDBRANCH   6   7
ENDBRANCH   4   6
ENDBRANCH   3   4
ENDBRANCH   2   3
ENDBRANCH   1   2
BRANCH   1  17
HETATM   17  C   UNK N   1      16.425  -2.686  -1.174  0.00  0.00     0.214 C 
BRANCH  17  18
HETATM   18  O   UNK N   1      16.641  -4.031  -1.509  0.00  0.00    -0.294 OA
BRANCH  18  19
HETATM   19  P   UNK N   1      17.128  -4.870  -0.057  0.00  0.00     0.393 P 
HETATM   20  O   UNK N   1      15.963  -5.828   0.305  0.00  0.00    -0.631 OA
BRANCH  19  21
HETATM   21  O   UNK N   1      17.322  -3.812   1.314  0.00  0.00    -0.307 OA
HETATM   22  H   UNK N   1      17.886  -3.611   2.077  0.00  0.00     0.222 HD
ENDBRANCH  19  21
BRANCH  19  23
HETATM   23  O   UNK N   1      18.519  -5.880  -0.332  0.00  0.00    -0.295 OA
BRANCH  23  24
HETATM   24  C   UNK N   1      19.566  -5.266   0.353  0.00  0.00     0.208 C 
BRANCH  24  25
HETATM   25  C   UNK N   1      20.477  -4.541  -0.636  0.00  0.00     0.262 C 
BRANCH  25  26
HETATM   26  N   UNK N   1      21.422  -3.638   0.023  0.00  0.00    -0.077 N 
HETATM   27  C   UNK N   1      22.258  -3.035  -0.997  0.00  0.00     0.271 C 
HETATM   28  C   UNK N   1      22.282  -4.356   0.953  0.00  0.00     0.271 C 
HETATM   29  C   UNK N   1      20.720  -2.575   0.726  0.00  0.00     0.271 C 
ENDBRANCH  25  26
ENDBRANCH  24  25
ENDBRANCH  23  24
ENDBRANCH  19  23
ENDBRANCH  18  19
ENDBRANCH  17  18
ENDBRANCH   1  17
BRANCH   1  30
HETATM   30  O   UNK N   1      14.786  -1.132  -0.390  0.00  0.00    -0.391 OA
HETATM   31  H   UNK N   1      15.493  -0.468  -0.362  0.00  0.00     0.210 HD
ENDBRANCH   1  30
TORSDOF 22
