REMARK  7 active torsions:
REMARK  status: ('A' for Active; 'I' for Inactive)
REMARK    1  A    between atoms: C_2  and  O_1 
REMARK    2  A    between atoms: C_2  and  C_3 
REMARK    3  A    between atoms: C_2  and  C_8 
REMARK    4  A    between atoms: C_3  and  O_4 
REMARK    5  A    between atoms: C_3  and  C_5 
REMARK    6  A    between atoms: C_5  and  O_6 
REMARK    7  A    between atoms: C_8  and  O_9 
ROOT
HETATM    1  C   UNK N   1       2.272   1.274   0.000  0.00  0.00     0.254 C 
ENDROOT
BRANCH   1   2
HETATM    2  O   UNK N   1       2.302   2.671   0.000  0.00  0.00    -0.382 OA
HETATM    3  H   UNK N   1       3.152   3.138  -0.000  0.00  0.00     0.210 HD
ENDBRANCH   1   2
BRANCH   1   4
HETATM    4  C   UNK N   1       0.917   0.567   0.000  0.00  0.00     0.254 C 
BRANCH   4   5
HETATM    5  O   UNK N   1       0.888  -0.829   0.000  0.00  0.00    -0.382 OA
HETATM    6  H   UNK N   1       0.038  -1.297  -0.000  0.00  0.00     0.210 HD
ENDBRANCH   4   5
BRANCH   4   7
HETATM    7  C   UNK N   1      -0.395   1.287  -0.000  0.00  0.00     0.172 C 
HETATM    8  O   UNK N   1      -0.431   2.507  -0.000  0.00  0.00    -0.648 OA
BRANCH   7   9
HETATM    9  O   UNK N   1      -1.545   0.588  -0.000  0.00  0.00    -0.774 OA
HETATM   10  H   UNK N   1      -2.367   1.038  -0.000  0.00  0.00     0.167 HD
ENDBRANCH   7   9
ENDBRANCH   4   7
ENDBRANCH   1   4
BRANCH   1  11
HETATM   11  C   UNK N   1       3.585   0.554  -0.000  0.00  0.00     0.172 C 
HETATM   12  O   UNK N   1       3.620  -0.666  -0.000  0.00  0.00    -0.648 OA
BRANCH  11  13
HETATM   13  O   UNK N   1       4.734   1.253  -0.000  0.00  0.00    -0.774 OA
HETATM   14  H   UNK N   1       5.556   0.804  -0.000  0.00  0.00     0.167 HD
ENDBRANCH  11  13
ENDBRANCH   1  11
TORSDOF 7
