REMARK  6 active torsions:
REMARK  status: ('A' for Active; 'I' for Inactive)
REMARK    1  A    between atoms: C_3  and  C_1 
REMARK    2  A    between atoms: N_10  and  C_1 
REMARK    3  A    between atoms: C_6  and  C_2 
REMARK    4  A    between atoms: N_7  and  C_2 
REMARK    5  A    between atoms: O_12  and  C_3 
REMARK    6  A    between atoms: C_6  and  O_15 
ROOT
HETATM    1  C   UNK N   1      -0.859  -0.768  -0.287  0.00  0.00     0.313 A 
HETATM    2  C   UNK N   1       0.453  -0.793   0.273  0.00  0.00     0.316 A 
HETATM    3  C   UNK N   1      -0.195   1.400   0.038  0.00  0.00     0.245 A 
HETATM    4  N   UNK N   1      -1.251   0.508  -0.440  0.00  0.00    -0.302 N 
ATOM      5  HN  UNK N   1      -2.145   0.808  -0.828  1.00  0.00     0.167 HD
HETATM    6  N   UNK N   1       0.859   0.474   0.458  0.00  0.00    -0.283 N 
HETATM    7  O   UNK N   1      -1.553  -1.732  -0.567  0.00  0.00    -0.262 OA
HETATM    8  O   UNK N   1       1.103  -1.784   0.571  0.00  0.00    -0.262 OA
ENDROOT
BRANCH   3   9
HETATM    9  C   UNK N   1       0.266   2.329  -1.084  0.00  0.00     0.315 C 
BRANCH   9  10
HETATM   10  N   UNK N   1       1.236   3.295  -0.592  0.00  0.00    -0.073 N 
HETATM   11  H   UNK N   1       2.163   3.045  -0.248  0.00  0.00     0.274 HD
HETATM   12  H   UNK N   1       0.974   4.281  -0.592  0.00  0.00     0.274 HD
HETATM   13  H   UNK N   1       1.882   4.010  -0.257  0.00  0.00     0.274 HD
ENDBRANCH   9  10
ENDBRANCH   3   9
BRANCH   3  14
HETATM   14  O   UNK N   1      -0.662   2.138   1.127  0.00  0.00    -0.352 OA
HETATM   15  H   UNK N   1      -0.380   2.676   1.884  0.00  0.00     0.214 HD
ENDBRANCH   3  14
BRANCH   6  16
HETATM   16  C   UNK N   1       2.118   0.865   1.058  0.00  0.00     0.241 C 
BRANCH  16  17
HETATM   17  C   UNK N   1       3.255   0.735   0.090  0.00  0.00     0.158 C 
HETATM   18  O   UNK N   1       3.921   1.717  -0.193  0.00  0.00    -0.649 OA
BRANCH  17  19
HETATM   19  O   UNK N   1       3.562  -0.459  -0.450  0.00  0.00    -0.775 OA
HETATM   20  H   UNK N   1       2.949  -1.060  -0.826  0.00  0.00     0.167 HD
ENDBRANCH  17  19
ENDBRANCH  16  17
ENDBRANCH   6  16
TORSDOF 6
