REMARK  5 active torsions:
REMARK  status: ('A' for Active; 'I' for Inactive)
REMARK    1  A    between atoms: C_3  and  C_2 
REMARK    2  A    between atoms: C_9  and  O_10 
REMARK    3  A    between atoms: C_9  and  C_15 
REMARK    4  A    between atoms: O_10  and  C_11 
REMARK    5  A    between atoms: C_11  and  C_13 
ROOT
HETATM    1  C   UNK N   1       1.050  -0.872  -0.437  0.00  0.00     0.053 C 
HETATM    2  C   UNK N   1       0.418  -2.261  -0.685  0.00  0.00     0.279 C 
HETATM    3  N   UNK N   1      -0.842  -2.459   0.043  0.00  0.00     0.084 N 
HETATM    4  C   UNK N   1      -1.133  -3.881   0.031  0.00  0.00     0.309 C 
HETATM    5  C   UNK N   1      -0.704  -2.049   1.441  0.00  0.00     0.275 C 
HETATM    6  C   UNK N   1      -0.399  -0.545   1.562  0.00  0.00     0.074 C 
HETATM    7  C   UNK N   1       0.023   0.098   0.217  0.00  0.00     0.104 C 
ENDROOT
BRANCH   7   8
HETATM    8  O   UNK N   1      -1.059   0.223  -0.658  0.00  0.00    -0.305 OA
BRANCH   8   9
HETATM    9  C   UNK N   1      -2.292   0.716  -0.348  0.00  0.00     0.259 C 
HETATM   10  O   UNK N   1      -2.751   0.602   0.781  0.00  0.00    -0.265 OA
BRANCH   9  11
HETATM   11  C   UNK N   1      -3.093   1.412  -1.393  0.00  0.00     0.106 C 
HETATM   12  C   UNK N   1      -3.351   2.845  -0.957  0.00  0.00     0.015 C 
ENDBRANCH   9  11
ENDBRANCH   8   9
ENDBRANCH   7   8
BRANCH   7  13
HETATM   13  C   UNK N   1       0.591   1.501   0.442  0.00  0.00    -0.023 A 
HETATM   14  C   UNK N   1      -0.207   2.494   1.037  0.00  0.00     0.010 A 
HETATM   15  C   UNK N   1       0.277   3.794   1.202  0.00  0.00     0.001 A 
HETATM   16  C   UNK N   1       1.565   4.121   0.774  0.00  0.00     0.000 A 
HETATM   17  C   UNK N   1       2.370   3.148   0.181  0.00  0.00     0.001 A 
HETATM   18  C   UNK N   1       1.885   1.849   0.011  0.00  0.00     0.010 A 
ENDBRANCH   7  13
BRANCH   1  19
HETATM   19  C   UNK N   1       2.300  -1.057   0.434  0.00  0.00     0.005 C 
HETATM   20  C   UNK N   1       3.421  -1.716  -0.347  0.00  0.00     0.005 C 
ENDBRANCH   1  19
TORSDOF 5
