REMARK  3 active torsions:
REMARK  status: ('A' for Active; 'I' for Inactive)
REMARK    1  A    between atoms: C_2  and  C_3 
REMARK    2  A    between atoms: C_2  and  N_6 
REMARK    3  A    between atoms: C_3  and  O_5 
ROOT
HETATM    1  C   UNK N   1      14.839 -10.526  -0.000  0.00  0.00     0.043 C 
HETATM    2  C   UNK N   1      14.223 -11.911   0.000  0.00  0.00     0.169 C 
ENDROOT
BRANCH   2   3
HETATM    3  C   UNK N   1      12.744 -12.136  -0.000  0.00  0.00     0.162 C 
HETATM    4  O   UNK N   1      11.983 -11.184  -0.000  0.00  0.00    -0.648 OA
BRANCH   3   5
HETATM    5  O   UNK N   1      12.246 -13.389  -0.000  0.00  0.00    -0.775 OA
HETATM    6  H   UNK N   1      11.319 -13.524  -0.000  0.00  0.00     0.167 HD
ENDBRANCH   3   5
ENDBRANCH   2   3
BRANCH   2   7
HETATM    7  N   UNK N   1      15.114 -13.059  -0.000  0.00  0.00    -0.418 N 
HETATM    8  H   UNK N   1      14.728 -14.004  -0.000  0.00  0.00     0.150 HD
HETATM    9  H   UNK N   1      16.124 -12.921  -0.000  0.00  0.00     0.150 HD
ENDBRANCH   2   7
TORSDOF 3
