REMARK  1 active torsions:
REMARK  status: ('A' for Active; 'I' for Inactive)
REMARK    1  A    between atoms: C_6  and  O_13 
REMARK       I    between atoms: C_7  and  N_8 
ROOT
HETATM    1  C   UNK N   1      -1.393   1.582  -0.114  0.00  0.00     0.157 C 
HETATM    2  C   UNK N   1      -1.157  -3.361   0.388  0.00  0.00     0.158 C 
HETATM    3  C   UNK N   1      -1.586  -0.900   0.160  0.00  0.00     0.186 A 
HETATM    4  C   UNK N   1       0.432  -0.140   0.022  0.00  0.00     0.105 A 
HETATM    5  C   UNK N   1       0.483  -1.480   0.160  0.00  0.00     0.134 A 
HETATM    6  C   UNK N   1       1.667   0.694  -0.103  0.00  0.00     0.271 C 
HETATM    7  C   UNK N   1       2.920  -1.491  -0.141  0.00  0.00     0.281 C 
HETATM    8  N   UNK N   1       4.013  -2.152   0.548  0.00  0.00    -0.395 N 
HETATM    9  N   UNK N   1       1.687  -2.204   0.149  0.00  0.00    -0.337 N 
HETATM   10  N   UNK N   1       2.860  -0.082   0.310  0.00  0.00    -0.355 N 
HETATM   11  N   UNK N   1      -0.862   0.236   0.011  0.00  0.00    -0.344 N 
HETATM   12  N   UNK N   1      -0.763  -1.971   0.251  0.00  0.00    -0.332 N 
HETATM   13  H   UNK N   1       3.994  -3.050   1.033  0.00  0.00     0.153 HD
HETATM   14  H   UNK N   1       4.906  -1.660   0.548  0.00  0.00     0.153 HD
HETATM   15  H   UNK N   1       1.696  -3.171   0.335  0.00  0.00     0.165 HD
HETATM   16  H   UNK N   1       3.601   0.333   0.875  0.00  0.00     0.160 HD
ENDROOT
BRANCH   6  17
HETATM   17  O   UNK N   1       1.560   1.799   0.741  0.00  0.00    -0.371 OA
HETATM   18  H   UNK N   1       2.189   2.248   1.328  0.00  0.00     0.212 HD
ENDBRANCH   6  17
TORSDOF 1
