REMARK  0 active torsions:
REMARK  status: ('A' for Active; 'I' for Inactive)
ROOT
HETATM    1  C   UNK N   1       1.138   0.000   0.000  0.00  0.00     0.136 C 
HETATM    2  N   UNK N   1      -0.313   0.000   0.000  0.00  0.00    -0.434 N 
HETATM    3  H   UNK N   1      -0.823   0.883   0.000  0.00  0.00     0.149 HD
HETATM    4  H   UNK N   1      -0.823  -0.883   0.000  0.00  0.00     0.149 HD
ENDROOT
TORSDOF 0
