REMARK  2 active torsions:
REMARK  status: ('A' for Active; 'I' for Inactive)
REMARK    1  A    between atoms: N_1  and  C_2 
REMARK    2  A    between atoms: C_7  and  O_8 
ROOT
HETATM    1  C   UNK N   1       1.847   0.928  -0.000  0.00  0.00     0.059 A 
HETATM    2  C   UNK N   1       1.741  -0.466  -0.000  0.00  0.00     0.032 A 
HETATM    3  C   UNK N   1       0.480  -1.073   0.000  0.00  0.00     0.002 A 
HETATM    4  C   UNK N   1      -0.676  -0.286   0.000  0.00  0.00     0.003 A 
HETATM    5  C   UNK N   1      -0.572   1.107   0.000  0.00  0.00     0.039 A 
HETATM    6  C   UNK N   1       0.687   1.716  -0.000  0.00  0.00     0.091 A 
ENDROOT
BRANCH   1   7
HETATM    7  N   UNK N   1       3.120   1.537  -0.000  0.00  0.00    -0.397 N 
HETATM    8  H   UNK N   1       3.932   0.981  -0.000  0.00  0.00     0.156 HD
HETATM    9  H   UNK N   1       3.197   2.519  -0.000  0.00  0.00     0.156 HD
ENDBRANCH   1   7
BRANCH   6  10
HETATM   10  O   UNK N   1       0.777   3.056   0.000  0.00  0.00    -0.358 OA
HETATM   11  H   UNK N   1       1.618   3.469   0.000  0.00  0.00     0.217 HD
ENDBRANCH   6  10
TORSDOF 2
