REMARK  8 active torsions:
REMARK  status: ('A' for Active; 'I' for Inactive)
REMARK    1  A    between atoms: C_2  and  C_4 
REMARK    2  A    between atoms: C_8  and  N_9 
REMARK    3  A    between atoms: C_10  and  N_9 
REMARK    4  A    between atoms: C_13  and  N_14 
REMARK    5  A    between atoms: C_18  and  N_19 
REMARK    6  A    between atoms: N_19  and  C_20 
REMARK    7  A    between atoms: C_23  and  S_26 
REMARK    8  A    between atoms: S_26  and  N_29 
ROOT
HETATM    1  C   UNK N   1       0.877   0.854  -0.009  0.00  0.00     0.008 A 
HETATM    2  C   UNK N   1       2.187   0.417   0.003  0.00  0.00     0.138 A 
HETATM    3  N   UNK N   1       3.312   1.063  -0.377  0.00  0.00    -0.327 N 
ATOM      4  HN  UNK N   1       3.267   2.016  -0.740  1.00  0.00     0.169 HD
HETATM    5  C   UNK N   1       4.515   0.415  -0.267  0.00  0.00     0.106 A 
HETATM    6  C   UNK N   1       4.566  -0.926   0.144  0.00  0.00     0.098 A 
HETATM    7  C   UNK N   1       3.381  -1.564   0.491  0.00  0.00     0.133 A 
HETATM    8  N   UNK N   1       2.222  -0.834   0.459  0.00  0.00    -0.223 N 
HETATM    9  N   UNK N   1       1.005  -1.215   0.807  0.00  0.00    -0.301 N 
ATOM     10  HN  UNK N   1       0.755  -2.115   1.215  1.00  0.00     0.186 HD
HETATM   11  C   UNK N   1       0.146  -0.205   0.528  0.00  0.00     0.119 A 
ENDROOT
BRANCH   7  12
HETATM   12  N   UNK N   1       3.383  -2.956   0.790  0.00  0.00    -0.341 N 
HETATM   13  H   UNK N   1       4.131  -3.347   1.297  0.00  0.00     0.167 HD
BRANCH  12  14
HETATM   14  C   UNK N   1       2.312  -3.780   0.362  0.00  0.00     0.033 A 
HETATM   15  C   UNK N   1       1.975  -4.935   1.074  0.00  0.00     0.031 A 
HETATM   16  C   UNK N   1       0.782  -5.607   0.774  0.00  0.00     0.027 A 
HETATM   17  C   UNK N   1      -0.057  -5.121  -0.241  0.00  0.00     0.074 A 
HETATM   18  C   UNK N   1       0.327  -4.024  -1.001  0.00  0.00     0.027 A 
HETATM   19  C   UNK N   1       1.511  -3.373  -0.716  0.00  0.00     0.031 A 
BRANCH  17  20
HETATM   20  S   UNK N   1      -1.702  -5.758  -0.464  0.00  0.00     0.242 S 
HETATM   21  O   UNK N   1      -2.498  -4.783  -1.351  0.00  0.00    -0.206 OA
HETATM   22  O   UNK N   1      -1.794  -7.066  -1.264  0.00  0.00    -0.206 OA
BRANCH  20  23
HETATM   23  N   UNK N   1      -2.684  -5.932   1.011  0.00  0.00    -0.215 NA
HETATM   24  C   UNK N   1      -2.608  -7.308   1.467  0.00  0.00     0.129 C 
HETATM   25  C   UNK N   1      -4.079  -5.642   0.722  0.00  0.00     0.129 C 
ENDBRANCH  20  23
ENDBRANCH  17  20
ENDBRANCH  12  14
ENDBRANCH   7  12
BRANCH   5  26
HETATM   26  N   UNK N   1       5.732   1.111  -0.440  0.00  0.00    -0.371 N 
HETATM   27  H   UNK N   1       6.306   0.875  -1.204  0.00  0.00     0.161 HD
BRANCH  26  28
HETATM   28  C   UNK N   1       6.172   2.164   0.465  0.00  0.00     0.083 C 
HETATM   29  C   UNK N   1       5.108   2.661   1.462  0.00  0.00     0.027 C 
HETATM   30  C   UNK N   1       4.012   3.476   0.766  0.00  0.00     0.026 C 
HETATM   31  C   UNK N   1       4.563   4.569  -0.150  0.00  0.00     0.074 C 
HETATM   32  C   UNK N   1       5.657   4.044  -1.083  0.00  0.00     0.026 C 
HETATM   33  C   UNK N   1       6.758   3.335  -0.303  0.00  0.00     0.027 C 
BRANCH  31  34
HETATM   34  N   UNK N   1       5.051   5.684   0.639  0.00  0.00    -0.426 N 
HETATM   35  H   UNK N   1       5.902   5.779   1.193  0.00  0.00     0.150 HD
HETATM   36  H   UNK N   1       4.447   6.506   0.639  0.00  0.00     0.150 HD
ENDBRANCH  31  34
ENDBRANCH  26  28
ENDBRANCH   5  26
BRANCH   1  37
HETATM   37  C   UNK N   1       0.328   2.148  -0.545  0.00  0.00     0.016 C 
HETATM   38  C   UNK N   1      -1.191   2.200  -0.476  0.00  0.00     0.015 C 
HETATM   39  C   UNK N   1       0.899   3.347   0.176  0.00  0.00     0.015 C 
ENDBRANCH   1  37
TORSDOF 8
