REMARK  10 active torsions:
REMARK  status: ('A' for Active; 'I' for Inactive)
REMARK    1  A    between atoms: O_2  and  C_3 
REMARK    2  A    between atoms: C_3  and  C_5 
REMARK       I    between atoms: N_8  and  C_11 
REMARK    3  A    between atoms: C_11  and  C_13 
REMARK    4  A    between atoms: C_13  and  C_14 
REMARK    5  A    between atoms: C_13  and  N_25 
REMARK    6  A    between atoms: C_14  and  C_15 
REMARK    7  A    between atoms: C_19  and  C_21 
REMARK    8  A    between atoms: C_21  and  N_22 
REMARK    9  A    between atoms: N_25  and  S_26 
REMARK   10  A    between atoms: S_26  and  C_29 
ROOT
HETATM    1  C   UNK N   1      -1.295  -1.952  -0.159  0.00  0.00     0.189 C 
ENDROOT
BRANCH   1   2
HETATM    2  C   UNK N   1      -1.520  -0.501   0.303  0.00  0.00     0.243 C 
HETATM    3  N   UNK N   1      -2.748   0.119   0.391  0.00  0.00    -0.350 N 
HETATM    4  C   UNK N   1      -2.809   1.454   0.979  0.00  0.00     0.127 C 
HETATM    5  C   UNK N   1      -3.999  -0.556   0.101  0.00  0.00     0.127 C 
HETATM    6  C   UNK N   1      -3.808   2.346   0.247  0.00  0.00     0.034 C 
HETATM    7  C   UNK N   1      -5.149   1.622   0.225  0.00  0.00     0.088 C 
HETATM    8  C   UNK N   1      -4.981   0.364  -0.617  0.00  0.00     0.034 C 
HETATM    9  O   UNK N   1      -0.538   0.109   0.678  0.00  0.00    -0.271 OA
BRANCH   7  10
HETATM   10  C   UNK N   1      -6.309   2.469  -0.243  0.00  0.00     0.262 C 
HETATM   11  O   UNK N   1      -6.110   3.604  -0.648  0.00  0.00    -0.265 OA
BRANCH  10  12
HETATM   12  O   UNK N   1      -7.584   2.007  -0.184  0.00  0.00    -0.326 OA
HETATM   13  C   UNK N   1      -7.917   0.781   0.346  0.00  0.00     0.213 C 
ENDBRANCH  10  12
ENDBRANCH   7  10
ENDBRANCH   1   2
BRANCH   1  14
HETATM   14  C   UNK N   1      -2.505  -2.701  -0.698  0.00  0.00     0.074 C 
BRANCH  14  15
HETATM   15  C   UNK N   1      -2.691  -4.065  -0.115  0.00  0.00    -0.055 A 
HETATM   16  C   UNK N   1      -1.743  -4.641   0.741  0.00  0.00     0.007 A 
HETATM   17  C   UNK N   1      -1.959  -5.907   1.284  0.00  0.00     0.002 A 
HETATM   18  C   UNK N   1      -3.134  -6.599   0.986  0.00  0.00     0.015 A 
HETATM   19  C   UNK N   1      -4.097  -6.027   0.140  0.00  0.00     0.007 A 
HETATM   20  C   UNK N   1      -3.864  -4.760  -0.410  0.00  0.00     0.022 A 
BRANCH  19  21
HETATM   21  C   UNK N   1      -5.353  -6.742  -0.160  0.00  0.00     0.102 C 
HETATM   22  N   UNK N   1      -5.573  -7.903   0.340  0.00  0.00    -0.385 N 
HETATM   23  H   UNK N   1      -6.429  -8.202   0.723  0.00  0.00     0.157 HD
ATOM     24  HN  UNK N   1      -4.801  -8.569   0.340  1.00  0.00     0.157 HD
BRANCH  21  25
HETATM   25  N   UNK N   1      -6.337  -6.140  -0.977  0.00  0.00    -0.385 N 
HETATM   26  H   UNK N   1      -6.316  -5.337  -1.547  0.00  0.00     0.157 HD
HETATM   27  H   UNK N   1      -7.202  -6.610  -0.977  0.00  0.00     0.157 HD
ENDBRANCH  21  25
ENDBRANCH  19  21
ENDBRANCH  14  15
ENDBRANCH   1  14
BRANCH   1  28
HETATM   28  N   UNK N   1      -0.222  -2.049  -1.142  0.00  0.00    -0.301 N 
HETATM   29  H   UNK N   1      -0.318  -1.805  -2.128  0.00  0.00     0.173 HD
BRANCH  28  30
HETATM   30  S   UNK N   1       1.277  -2.652  -0.392  0.00  0.00     0.259 S 
HETATM   31  O   UNK N   1       1.835  -3.576  -1.485  0.00  0.00    -0.201 OA
HETATM   32  O   UNK N   1       0.928  -3.662   0.712  0.00  0.00    -0.201 OA
BRANCH  30  33
HETATM   33  C   UNK N   1       2.519  -1.432  -0.015  0.00  0.00     0.080 A 
HETATM   34  C   UNK N   1       2.128  -0.126   0.280  0.00  0.00     0.026 A 
HETATM   35  C   UNK N   1       3.065   0.901   0.344  0.00  0.00     0.014 A 
HETATM   36  C   UNK N   1       4.405   0.625   0.084  0.00  0.00    -0.026 A 
HETATM   37  C   UNK N   1       5.339   1.660   0.057  0.00  0.00     0.012 A 
HETATM   38  C   UNK N   1       4.813  -0.702  -0.186  0.00  0.00    -0.025 A 
HETATM   39  C   UNK N   1       6.676   1.383  -0.238  0.00  0.00     0.001 A 
HETATM   40  C   UNK N   1       7.084   0.067  -0.488  0.00  0.00     0.001 A 
HETATM   41  C   UNK N   1       6.153  -0.975  -0.461  0.00  0.00     0.012 A 
HETATM   42  C   UNK N   1       3.866  -1.725  -0.236  0.00  0.00     0.037 A 
ENDBRANCH  30  33
ENDBRANCH  28  30
ENDBRANCH   1  28
TORSDOF 10
