REMARK  5 active torsions:
REMARK  status: ('A' for Active; 'I' for Inactive)
REMARK    1  A    between atoms: N_1  and  C_2 
REMARK    2  A    between atoms: C_2  and  C_3 
REMARK    3  A    between atoms: C_3  and  C_4 
REMARK    4  A    between atoms: C_4  and  C_5 
REMARK    5  A    between atoms: C_5  and  N_6 
ROOT
HETATM    1  C   UNK N   1       0.994   0.463   0.000  0.00  0.00     0.021 C 
ENDROOT
BRANCH   1   2
HETATM    2  C   UNK N   1      -0.265   1.299  -0.000  0.00  0.00     0.111 C 
BRANCH   2   3
HETATM    3  N   UNK N   1      -1.421   0.424   0.000  0.00  0.00    -0.430 N 
HETATM    4  H   UNK N   1      -2.361   0.820   0.000  0.00  0.00     0.149 HD
HETATM    5  H   UNK N   1      -1.294  -0.588   0.000  0.00  0.00     0.149 HD
ENDBRANCH   2   3
ENDBRANCH   1   2
BRANCH   1   6
HETATM    6  C   UNK N   1       2.196   1.378   0.000  0.00  0.00     0.021 C 
BRANCH   6   7
HETATM    7  C   UNK N   1       3.455   0.542  -0.000  0.00  0.00     0.111 C 
BRANCH   7   8
HETATM    8  N   UNK N   1       4.610   1.417   0.000  0.00  0.00    -0.430 N 
HETATM    9  H   UNK N   1       5.550   1.021   0.000  0.00  0.00     0.149 HD
HETATM   10  H   UNK N   1       4.483   2.429   0.000  0.00  0.00     0.149 HD
ENDBRANCH   7   8
ENDBRANCH   6   7
ENDBRANCH   1   6
TORSDOF 5
