REMARK  27 active torsions:
REMARK  status: ('A' for Active; 'I' for Inactive)
REMARK    1  A    between atoms: C_5  and  C_3 
REMARK    2  A    between atoms: C_6  and  C_4 
REMARK    3  A    between atoms: C_7  and  C_5 
REMARK    4  A    between atoms: C_8  and  C_6 
REMARK    5  A    between atoms: C_9  and  C_7 
REMARK    6  A    between atoms: C_10  and  C_8 
REMARK    7  A    between atoms: C_11  and  C_9 
REMARK    8  A    between atoms: C_12  and  C_10 
REMARK    9  A    between atoms: C_13  and  C_11 
REMARK   10  A    between atoms: C_14  and  C_12 
REMARK   11  A    between atoms: C_15  and  C_13 
REMARK   12  A    between atoms: C_16  and  C_14 
REMARK   13  A    between atoms: C_17  and  C_15 
REMARK   14  A    between atoms: C_18  and  C_16 
REMARK   15  A    between atoms: C_19  and  C_17 
REMARK   16  A    between atoms: C_20  and  C_18 
REMARK   17  A    between atoms: C_21  and  C_19 
REMARK   18  A    between atoms: C_22  and  C_20 
REMARK   19  A    between atoms: C_23  and  C_21 
REMARK   20  A    between atoms: C_24  and  C_22 
REMARK   21  A    between atoms: C_26  and  C_23 
REMARK   22  A    between atoms: C_28  and  C_24 
REMARK   23  A    between atoms: C_26  and  C_25 
REMARK   24  A    between atoms: C_27  and  C_25 
REMARK   25  A    between atoms: C_26  and  O_32 
REMARK   26  A    between atoms: O_30  and  C_27 
REMARK   27  A    between atoms: O_32  and  C_28 
ROOT
HETATM    1  C   UNK N   1       0.039   4.706   0.504  0.00  0.00     0.141 C 
ENDROOT
BRANCH   1   2
HETATM    2  C   UNK N   1      -0.290   3.209   0.572  0.00  0.00     0.033 C 
BRANCH   2   3
HETATM    3  C   UNK N   1      -1.015   2.703  -0.673  0.00  0.00     0.002 C 
BRANCH   3   4
HETATM    4  C   UNK N   1      -2.326   2.022  -0.288  0.00  0.00     0.000 C 
BRANCH   4   5
HETATM    5  C   UNK N   1      -3.324   3.012   0.302  0.00  0.00     0.000 C 
BRANCH   5   6
HETATM    6  C   UNK N   1      -3.978   3.844  -0.792  0.00  0.00     0.000 C 
BRANCH   6   7
HETATM    7  C   UNK N   1      -4.275   5.250  -0.290  0.00  0.00     0.000 C 
BRANCH   7   8
HETATM    8  C   UNK N   1      -5.399   5.259   0.727  0.00  0.00     0.000 C 
BRANCH   8   9
HETATM    9  C   UNK N   1      -6.686   5.695   0.060  0.00  0.00     0.000 C 
BRANCH   9  10
HETATM   10  C   UNK N   1      -7.701   4.578   0.152  0.00  0.00     0.000 C 
BRANCH  10  11
HETATM   11  C   UNK N   1      -9.069   5.119  -0.200  0.00  0.00    -0.000 C 
BRANCH  11  12
HETATM   12  C   UNK N   1     -10.105   4.039   0.022  0.00  0.00    -0.005 C 
HETATM   13  C   UNK N   1     -11.489   4.633  -0.123  0.00  0.00     0.005 C 
ENDBRANCH  11  12
ENDBRANCH  10  11
ENDBRANCH   9  10
ENDBRANCH   8   9
ENDBRANCH   7   8
ENDBRANCH   6   7
ENDBRANCH   5   6
ENDBRANCH   4   5
ENDBRANCH   3   4
ENDBRANCH   2   3
ENDBRANCH   1   2
BRANCH   1  14
HETATM   14  C   UNK N   1      -1.231   5.506   0.217  0.00  0.00     0.142 C 
BRANCH  14  15
HETATM   15  C   UNK N   1      -1.025   6.985   0.046  0.00  0.00     0.141 C 
HETATM   16  O   UNK N   1      -1.968   7.686  -0.276  0.00  0.00    -0.650 OA
BRANCH  15  17
HETATM   17  O   UNK N   1       0.188   7.545   0.225  0.00  0.00    -0.776 OA
HETATM   18  H   UNK N   1       0.947   7.009   0.350  0.00  0.00     0.167 HD
ENDBRANCH  15  17
ENDBRANCH  14  15
ENDBRANCH   1  14
BRANCH   1  19
HETATM   19  O   UNK N   1       0.967   4.997  -0.477  0.00  0.00    -0.316 OA
BRANCH  19  20
HETATM   20  C   UNK N   1       2.272   4.630  -0.470  0.00  0.00     0.259 C 
HETATM   21  O   UNK N   1       3.038   5.182  -1.242  0.00  0.00    -0.265 OA
BRANCH  20  22
HETATM   22  C   UNK N   1       2.808   3.606   0.488  0.00  0.00     0.111 C 
BRANCH  22  23
HETATM   23  C   UNK N   1       3.620   2.579  -0.291  0.00  0.00     0.010 C 
BRANCH  23  24
HETATM   24  C   UNK N   1       5.008   2.367   0.313  0.00  0.00     0.000 C 
BRANCH  24  25
HETATM   25  C   UNK N   1       5.739   3.656   0.696  0.00  0.00     0.000 C 
BRANCH  25  26
HETATM   26  C   UNK N   1       5.852   4.635  -0.464  0.00  0.00     0.000 C 
BRANCH  26  27
HETATM   27  C   UNK N   1       6.969   5.620  -0.189  0.00  0.00     0.000 C 
BRANCH  27  28
HETATM   28  C   UNK N   1       8.262   4.972  -0.622  0.00  0.00     0.000 C 
BRANCH  28  29
HETATM   29  C   UNK N   1       9.439   5.514   0.152  0.00  0.00     0.000 C 
BRANCH  29  30
HETATM   30  C   UNK N   1      10.508   4.446   0.119  0.00  0.00     0.000 C 
BRANCH  30  31
HETATM   31  C   UNK N   1      11.882   5.056   0.258  0.00  0.00    -0.000 C 
BRANCH  31  32
HETATM   32  C   UNK N   1      12.907   3.963   0.042  0.00  0.00    -0.005 C 
HETATM   33  C   UNK N   1      14.294   4.565   0.010  0.00  0.00     0.005 C 
ENDBRANCH  31  32
ENDBRANCH  30  31
ENDBRANCH  29  30
ENDBRANCH  28  29
ENDBRANCH  27  28
ENDBRANCH  26  27
ENDBRANCH  25  26
ENDBRANCH  24  25
ENDBRANCH  23  24
ENDBRANCH  22  23
ENDBRANCH  20  22
ENDBRANCH  19  20
ENDBRANCH   1  19
TORSDOF 27
