REMARK  0 active torsions:
REMARK  status: ('A' for Active; 'I' for Inactive)
ROOT
HETATM    1  C   UNK N   1      13.991 -11.073  -0.242  0.00  0.00    -0.001 C 
HETATM    2  C   UNK N   1      12.720 -10.527   0.467  0.00  0.00     0.003 C 
HETATM    3  C   UNK N   1      15.217 -10.363   0.352  0.00  0.00     0.006 C 
HETATM    4  C   UNK N   1      14.084 -12.587  -0.019  0.00  0.00     0.033 C 
HETATM    5  C   UNK N   1      11.458 -11.163  -0.174  0.00  0.00    -0.016 C 
HETATM    6  C   UNK N   1      12.660  -8.978   0.452  0.00  0.00     0.007 C 
HETATM    7  C   UNK N   1      15.133  -8.846   0.163  0.00  0.00     0.021 C 
HETATM    8  C   UNK N   1      16.614 -10.724  -0.131  0.00  0.00     0.013 C 
HETATM    9  C   UNK N   1      12.758 -13.306  -0.105  0.00  0.00    -0.022 C 
HETATM   10  C   UNK N   1      11.565 -12.684  -0.170  0.00  0.00    -0.068 C 
HETATM   11  C   UNK N   1      10.220 -10.741   0.625  0.00  0.00     0.021 C 
HETATM   12  C   UNK N   1      11.297 -10.695  -1.625  0.00  0.00     0.020 C 
HETATM   13  C   UNK N   1      13.955  -8.341   0.995  0.00  0.00     0.018 C 
HETATM   14  C   UNK N   1      16.503  -8.476   0.592  0.00  0.00     0.135 C 
HETATM   15  C   UNK N   1      14.977  -8.400  -1.295  0.00  0.00     0.024 C 
HETATM   16  C   UNK N   1      17.475  -9.608   0.486  0.00  0.00     0.079 C 
HETATM   17  C   UNK N   1      10.334 -13.555  -0.212  0.00  0.00     0.113 C 
HETATM   18  C   UNK N   1       8.943 -11.333   0.039  0.00  0.00     0.079 C 
HETATM   19  O   UNK N   1      16.852  -7.326   0.811  0.00  0.00    -0.297 OA
HETATM   20  C   UNK N   1       9.022 -12.827  -0.057  0.00  0.00     0.130 C 
HETATM   21  O   UNK N   1       7.991 -13.476  -0.005  0.00  0.00    -0.298 OA
ENDROOT
TORSDOF 0
