REMARK  4 active torsions:
REMARK  status: ('A' for Active; 'I' for Inactive)
REMARK    1  A    between atoms: O_1  and  C_2 
REMARK    2  A    between atoms: C_2  and  C_3 
REMARK    3  A    between atoms: C_3  and  C_5 
REMARK    4  A    between atoms: C_5  and  O_6 
ROOT
HETATM    1  C   UNK N   1       1.331  -0.624  -0.000  0.00  0.00     0.173 C 
HETATM    2  O   UNK N   1       0.625  -1.621   0.000  0.00  0.00    -0.293 OA
ENDROOT
BRANCH   1   3
HETATM    3  C   UNK N   1       2.823  -0.751   0.000  0.00  0.00     0.244 C 
BRANCH   3   4
HETATM    4  O   UNK N   1       3.207  -2.094   0.000  0.00  0.00    -0.394 OA
HETATM    5  H   UNK N   1       2.533  -2.791   0.000  0.00  0.00     0.209 HD
ENDBRANCH   3   4
ENDBRANCH   1   3
BRANCH   1   6
HETATM    6  C   UNK N   1       0.717   0.742  -0.000  0.00  0.00     0.244 C 
BRANCH   6   7
HETATM    7  O   UNK N   1      -0.677   0.660  -0.000  0.00  0.00    -0.394 OA
HETATM    8  H   UNK N   1      -1.211   1.470  -0.000  0.00  0.00     0.209 HD
ENDBRANCH   6   7
ENDBRANCH   1   6
TORSDOF 4
