REMARK  5 active torsions:
REMARK  status: ('A' for Active; 'I' for Inactive)
REMARK    1  A    between atoms: C_3  and  O_2 
REMARK    2  A    between atoms: C_8  and  C_16 
REMARK    3  A    between atoms: C_12  and  O_13 
REMARK    4  A    between atoms: C_14  and  O_15 
REMARK    5  A    between atoms: C_16  and  O_17 
ROOT
HETATM    1  C   UNK N   1      -0.320  -0.003   0.244  0.00  0.00     0.290 C 
HETATM    2  O   UNK N   1       0.953   0.537  -0.050  0.00  0.00    -0.349 OA
HETATM    3  C   UNK N   1       1.924  -0.295   0.542  0.00  0.00     0.180 C 
HETATM    4  C   UNK N   1       3.301   0.327   0.389  0.00  0.00     0.206 C 
HETATM    5  O   UNK N   1       4.299  -0.568   0.833  0.00  0.00    -0.344 OA
HETATM    6  C   UNK N   1       4.263  -1.759   0.057  0.00  0.00     0.249 C 
HETATM    7  C   UNK N   1       4.563  -1.494  -1.429  0.00  0.00     0.091 C 
HETATM    8  O   UNK N   1       3.023  -2.434   0.241  0.00  0.00    -0.336 OA
HETATM    9  C   UNK N   1       1.964  -1.622  -0.214  0.00  0.00     0.188 C 
HETATM   10  C   UNK N   1       0.627  -2.308   0.024  0.00  0.00     0.183 C 
HETATM   11  C   UNK N   1      -0.494  -1.378  -0.428  0.00  0.00     0.204 C 
ENDROOT
BRANCH   6  12
HETATM   12  C   UNK N   1       5.366  -2.659   0.549  0.00  0.00     0.205 C 
HETATM   13  O   UNK N   1       5.116  -3.777   0.973  0.00  0.00    -0.646 OA
BRANCH  12  14
HETATM   14  O   UNK N   1       6.645  -2.234   0.517  0.00  0.00    -0.772 OA
HETATM   15  H   UNK N   1       7.346  -2.856   0.495  0.00  0.00     0.167 HD
ENDBRANCH  12  14
ENDBRANCH   6  12
BRANCH  10  16
HETATM   16  O   UNK N   1       0.567  -3.511  -0.680  0.00  0.00    -0.390 OA
HETATM   17  H   UNK N   1      -0.178  -3.894  -1.169  0.00  0.00     0.210 HD
ENDBRANCH  10  16
BRANCH  11  18
HETATM   18  O   UNK N   1      -1.729  -1.929  -0.080  0.00  0.00    -0.388 OA
HETATM   19  H   UNK N   1      -2.489  -1.378   0.163  0.00  0.00     0.210 HD
ENDBRANCH  11  18
BRANCH   1  20
HETATM   20  O   UNK N   1      -1.303   0.870  -0.231  0.00  0.00    -0.363 OA
HETATM   21  C   UNK N   1      -2.207   1.020   0.821  0.00  0.00     0.204 C 
ENDBRANCH   1  20
TORSDOF 5
