REMARK  6 active torsions:
REMARK  status: ('A' for Active; 'I' for Inactive)
REMARK    1  A    between atoms: C_5  and  C_3 
REMARK    2  A    between atoms: C_6  and  C_4 
REMARK    3  A    between atoms: C_7  and  C_5 
REMARK    4  A    between atoms: C_9  and  C_6 
REMARK    5  A    between atoms: C_8  and  C_7 
REMARK    6  A    between atoms: N_11  and  C_10 
ROOT
HETATM    1  C   UNK N   1       1.148   0.729  -0.252  0.00  0.00     0.018 A 
HETATM    2  C   UNK N   1       0.154   1.536   0.260  0.00  0.00    -0.027 A 
HETATM    3  C   UNK N   1      -0.422  -0.809   0.108  0.00  0.00     0.143 A 
HETATM    4  N   UNK N   1       0.821  -0.569  -0.339  0.00  0.00    -0.343 N 
HETATM    5 Se   UNK N   1      -1.357   0.627   0.724  0.00  0.00     0.000 Se
HETATM    6  H   UNK N   1       1.423  -1.264  -0.691  0.00  0.00     0.167 HD
ENDROOT
BRANCH   1   7
HETATM    7  C   UNK N   1       2.484   1.230  -0.686  0.00  0.00     0.057 C 
BRANCH   7   8
HETATM    8  C   UNK N   1       3.554   0.584   0.170  0.00  0.00     0.006 C 
BRANCH   8   9
HETATM    9  C   UNK N   1       4.904   0.726  -0.494  0.00  0.00    -0.004 C 
HETATM   10  C   UNK N   1       5.851  -0.288   0.111  0.00  0.00     0.005 C 
ENDBRANCH   8   9
ENDBRANCH   7   8
ENDBRANCH   1   7
BRANCH   2  11
HETATM   11  C   UNK N   1       0.306   3.014   0.442  0.00  0.00     0.041 C 
BRANCH  11  12
HETATM   12  C   UNK N   1      -0.460   3.790  -0.621  0.00  0.00     0.000 C 
HETATM   13  C   UNK N   1      -1.957   3.734  -0.385  0.00  0.00     0.005 C 
ENDBRANCH  11  12
ENDBRANCH   2  11
BRANCH   3  14
HETATM   14  N   UNK N   1      -0.915  -1.988   0.099  0.00  0.00    -0.382 N 
HETATM   15  H   UNK N   1      -1.891  -2.114   0.092  0.00  0.00     0.157 HD
ATOM     16  HN  UNK N   1      -0.296  -2.800   0.099  1.00  0.00     0.157 HD
ENDBRANCH   3  14
TORSDOF 6
