REMARK  6 active torsions:
REMARK  status: ('A' for Active; 'I' for Inactive)
REMARK    1  A    between atoms: C_3  and  O_2 
REMARK    2  A    between atoms: C_5  and  C_6 
REMARK    3  A    between atoms: C_6  and  O_7 
REMARK    4  A    between atoms: C_8  and  O_9 
REMARK    5  A    between atoms: C_10  and  O_11 
REMARK    6  A    between atoms: C_12  and  O_13 
ROOT
HETATM    1  C   UNK N   1       1.959   1.048   0.000  0.00  0.00     0.290 A 
HETATM    2  O   UNK N   1       1.925  -0.340  -0.000  0.00  0.00    -0.349 OA
HETATM    3  C   UNK N   1       0.683  -0.996   0.000  0.00  0.00     0.179 A 
HETATM    4  C   UNK N   1      -0.663  -0.271  -0.000  0.00  0.00     0.180 A 
HETATM    5  C   UNK N   1      -0.674   1.210   0.000  0.00  0.00     0.183 A 
HETATM    6  C   UNK N   1       0.640   1.926  -0.000  0.00  0.00     0.204 A 
ENDROOT
BRANCH   3   7
HETATM    7  C   UNK N   1       0.829  -2.482  -0.000  0.00  0.00     0.198 C 
BRANCH   7   8
HETATM    8  O   UNK N   1       2.200  -2.783   0.000  0.00  0.00    -0.398 OA
HETATM    9  H   UNK N   1       2.494  -3.708   0.000  0.00  0.00     0.209 HD
ENDBRANCH   7   8
ENDBRANCH   3   7
BRANCH   4  10
HETATM   10  O   UNK N   1      -1.854  -0.973   0.000  0.00  0.00    -0.390 OA
HETATM   11  H   UNK N   1      -2.699  -0.495   0.000  0.00  0.00     0.210 HD
ENDBRANCH   4  10
BRANCH   1  12
HETATM   12  O   UNK N   1       3.288   1.474  -0.000  0.00  0.00    -0.363 OA
HETATM   13  C   UNK N   1       3.366   2.860   0.000  0.00  0.00     0.204 C 
ENDBRANCH   1  12
BRANCH   5  14
HETATM   14  O   UNK N   1      -1.883   1.909  -0.000  0.00  0.00    -0.390 OA
HETATM   15  H   UNK N   1      -1.882   2.879  -0.000  0.00  0.00     0.210 HD
ENDBRANCH   5  14
BRANCH   6  16
HETATM   16  O   UNK N   1       0.633   3.299   0.000  0.00  0.00    -0.388 OA
HETATM   17  H   UNK N   1       1.471   3.789   0.000  0.00  0.00     0.210 HD
ENDBRANCH   6  16
TORSDOF 6
