REMARK  2 active torsions:
REMARK  status: ('A' for Active; 'I' for Inactive)
REMARK    1  A    between atoms: C_2  and  O_1 
REMARK    2  A    between atoms: C_7  and  O_8 
ROOT
HETATM    1  C   UNK N   1       1.980   0.827   0.237  0.00  0.00     0.157 C 
HETATM    2  C   UNK N   1       1.798  -0.587  -0.303  0.00  0.00     0.120 C 
HETATM    3  S   UNK N   1       0.407  -1.392   0.545  0.00  0.00    -0.095 SA
HETATM    4  S   UNK N   1      -1.008  -0.237  -0.544  0.00  0.00    -0.095 SA
HETATM    5  C   UNK N   1      -0.497   1.287   0.303  0.00  0.00     0.120 C 
HETATM    6  C   UNK N   1       0.852   1.749  -0.237  0.00  0.00     0.157 C 
ENDROOT
BRANCH   1   7
HETATM    7  O   UNK N   1       3.210   1.324  -0.199  0.00  0.00    -0.392 OA
HETATM    8  H   UNK N   1       3.936   0.756  -0.501  0.00  0.00     0.210 HD
ENDBRANCH   1   7
BRANCH   6   9
HETATM    9  O   UNK N   1       1.092   3.052   0.197  0.00  0.00    -0.392 OA
HETATM   10  H   UNK N   1       1.961   3.360   0.500  0.00  0.00     0.210 HD
ENDBRANCH   6   9
TORSDOF 2
