REMARK  14 active torsions:
REMARK  status: ('A' for Active; 'I' for Inactive)
REMARK    1  A    between atoms: C_6  and  C_4 
REMARK    2  A    between atoms: O_24  and  C_4 
REMARK    3  A    between atoms: C_5  and  O_14 
REMARK    4  A    between atoms: O_15  and  C_7 
REMARK    5  A    between atoms: C_8  and  N_13 
REMARK    6  A    between atoms: P_27  and  N_12 
REMARK    7  A    between atoms: P_28  and  N_12 
REMARK    8  A    between atoms: P_27  and  O_18 
REMARK    9  A    between atoms: P_28  and  O_20 
REMARK   10  A    between atoms: P_29  and  O_21 
REMARK   11  A    between atoms: P_29  and  O_22 
REMARK   12  A    between atoms: P_27  and  O_24 
REMARK   13  A    between atoms: P_28  and  O_26 
REMARK   14  A    between atoms: P_29  and  O_26 
ROOT
HETATM    1  C   UNK N   1       1.047   0.409   0.495  0.00  0.00     0.214 C 
ENDROOT
BRANCH   1   2
HETATM    2  C   UNK N   1       2.373  -0.298   0.724  0.00  0.00     0.177 C 
HETATM    3  C   UNK N   1       3.558   0.643   0.863  0.00  0.00     0.153 C 
HETATM    4  C   UNK N   1       4.662  -0.341   0.689  0.00  0.00     0.088 C 
HETATM    5  C   UNK N   1       4.078  -1.281  -0.370  0.00  0.00     0.235 C 
HETATM    6  O   UNK N   1       2.666  -1.178  -0.330  0.00  0.00    -0.356 OA
BRANCH   3   7
HETATM    7  O   UNK N   1       3.618   1.569  -0.184  0.00  0.00    -0.393 OA
HETATM    8  H   UNK N   1       4.195   1.854  -0.910  0.00  0.00     0.210 HD
ENDBRANCH   3   7
BRANCH   5   9
HETATM    9  N   UNK N   1       4.565  -2.655  -0.132  0.00  0.00    -0.282 N 
HETATM   10  C   UNK N   1       5.907  -2.867  -0.262  0.00  0.00     0.102 A 
HETATM   11  C   UNK N   1       6.460  -4.124  -0.044  0.00  0.00     0.073 A 
HETATM   12  C   UNK N   1       5.622  -5.171   0.316  0.00  0.00     0.144 A 
HETATM   13  N   UNK N   1       4.290  -4.958   0.443  0.00  0.00    -0.289 N 
HETATM   14  C   UNK N   1       3.745  -3.720   0.223  0.00  0.00     0.330 A 
ATOM     15  HN  UNK N   1       3.682  -5.734   0.706  1.00  0.00     0.172 HD
HETATM   16  O   UNK N   1       2.543  -3.574   0.360  0.00  0.00    -0.246 OA
BRANCH  12  17
HETATM   17  O   UNK N   1       6.132  -6.392   0.540  0.00  0.00    -0.346 OA
HETATM   18  H   UNK N   1       5.572  -7.126   0.697  0.00  0.00     0.219 HD
ENDBRANCH  12  17
ENDBRANCH   5   9
ENDBRANCH   1   2
BRANCH   1  19
HETATM   19  O   UNK N   1       1.066   1.149  -0.690  0.00  0.00    -0.300 OA
BRANCH  19  20
HETATM   20  P   UNK N   1      -0.448   0.825  -1.478  0.00  0.00     0.353 P 
HETATM   21  O   UNK N   1      -0.291   1.355  -2.928  0.00  0.00    -0.637 OA
BRANCH  20  22
HETATM   22  N   UNK N   1      -1.856   1.727  -0.794  0.00  0.00    -0.240 N 
HETATM   23  H   UNK N   1      -2.796   1.718  -1.191  0.00  0.00     0.176 HD
BRANCH  22  24
HETATM   24  P   UNK N   1      -1.378   2.650   0.685  0.00  0.00     0.362 P 
HETATM   25  O   UNK N   1      -0.049   3.404   0.404  0.00  0.00    -0.636 OA
BRANCH  24  26
HETATM   26  O   UNK N   1      -1.115   1.572   2.020  0.00  0.00    -0.312 OA
HETATM   27  H   UNK N   1      -1.564   1.143   2.766  0.00  0.00     0.222 HD
ENDBRANCH  24  26
BRANCH  24  28
HETATM   28  O   UNK N   1      -2.575   3.840   1.112  0.00  0.00    -0.201 OA
BRANCH  28  29
HETATM   29  P   UNK N   1      -3.085   4.561  -0.385  0.00  0.00     0.399 P 
HETATM   30  O   UNK N   1      -4.402   3.994   0.208  0.00  0.00    -0.631 OA
BRANCH  29  31
HETATM   31  O   UNK N   1      -4.127   5.947  -0.348  0.00  0.00    -0.307 OA
HETATM   32  H   UNK N   1      -3.748   6.839  -0.327  0.00  0.00     0.222 HD
ENDBRANCH  29  31
BRANCH  29  33
HETATM   33  O   UNK N   1      -2.415   5.782   0.652  0.00  0.00    -0.307 OA
HETATM   34  H   UNK N   1      -1.638   5.799   1.231  0.00  0.00     0.222 HD
ENDBRANCH  29  33
ENDBRANCH  28  29
ENDBRANCH  24  28
ENDBRANCH  22  24
ENDBRANCH  20  22
BRANCH  20  35
HETATM   35  O   UNK N   1      -0.785  -0.871  -1.636  0.00  0.00    -0.312 OA
HETATM   36  H   UNK N   1      -1.700  -1.182  -1.724  0.00  0.00     0.222 HD
ENDBRANCH  20  35
ENDBRANCH  19  20
ENDBRANCH   1  19
TORSDOF 14
