REMARK  15 active torsions:
REMARK  status: ('A' for Active; 'I' for Inactive)
REMARK    1  A    between atoms: C_4  and  C_1 
REMARK    2  A    between atoms: O_28  and  C_1 
REMARK    3  A    between atoms: C_6  and  O_19 
REMARK    4  A    between atoms: C_7  and  O_30 
REMARK    5  A    between atoms: N_11  and  C_8 
REMARK    6  A    between atoms: C_10  and  N_18 
REMARK    7  A    between atoms: P_32  and  O_20 
REMARK    8  A    between atoms: P_32  and  O_21 
REMARK    9  A    between atoms: P_33  and  O_23 
REMARK   10  A    between atoms: P_33  and  O_24 
REMARK   11  A    between atoms: P_34  and  O_26 
REMARK   12  A    between atoms: P_34  and  O_28 
REMARK   13  A    between atoms: P_32  and  O_30 
REMARK   14  A    between atoms: P_33  and  O_31 
REMARK   15  A    between atoms: P_34  and  O_31 
ROOT
HETATM    1  C   UNK N   1      -0.278  -1.365  -0.361  0.00  0.00     0.180 C 
HETATM    2  C   UNK N   1       1.847  -0.607  -0.769  0.00  0.00     0.199 C 
HETATM    3  C   UNK N   1       1.170  -1.864  -0.317  0.00  0.00     0.197 C 
HETATM    4  C   UNK N   1       1.120   0.328   0.198  0.00  0.00     0.262 C 
HETATM    5  O   UNK N   1      -0.257  -0.009   0.091  0.00  0.00    -0.353 OA
ENDROOT
BRANCH   4   6
HETATM    6  N   UNK N   1       1.402   1.752  -0.009  0.00  0.00    -0.297 N 
HETATM    7  C   UNK N   1       0.540   2.762  -0.297  0.00  0.00     0.188 A 
HETATM    8  N   UNK N   1       1.175   3.973  -0.284  0.00  0.00    -0.346 N 
HETATM    9  C   UNK N   1       2.451   3.679   0.029  0.00  0.00     0.122 A 
ATOM     10  HN  UNK N   1       0.773   4.892  -0.470  1.00  0.00     0.167 HD
HETATM   11  C   UNK N   1       3.544   4.513   0.234  0.00  0.00     0.131 A 
HETATM   12  C   UNK N   1       2.587   2.349   0.183  0.00  0.00     0.142 A 
HETATM   13  N   UNK N   1       4.737   3.937   0.574  0.00  0.00    -0.337 N 
HETATM   14  C   UNK N   1       4.849   2.576   0.716  0.00  0.00     0.183 A 
ATOM     15  HN  UNK N   1       5.555   4.528   0.724  1.00  0.00     0.168 HD
HETATM   16  N   UNK N   1       3.760   1.771   0.532  0.00  0.00    -0.336 N 
ATOM     17  HN  UNK N   1       3.829   0.761   0.655  1.00  0.00     0.168 HD
BRANCH  11  18
HETATM   18  N   UNK N   1       3.431   5.913   0.126  0.00  0.00    -0.383 N 
HETATM   19  H   UNK N   1       4.239   6.471   0.050  0.00  0.00     0.157 HD
HETATM   20  H   UNK N   1       2.542   6.335   0.126  0.00  0.00     0.157 HD
ENDBRANCH  11  18
ENDBRANCH   4   6
BRANCH   2  21
HETATM   21  O   UNK N   1       3.228  -0.659  -0.579  0.00  0.00    -0.388 OA
HETATM   22  H   UNK N   1       3.676  -1.509  -0.446  0.00  0.00     0.210 HD
ENDBRANCH   2  21
BRANCH   3  23
HETATM   23  O   UNK N   1       1.426  -2.969  -1.152  0.00  0.00    -0.286 OA
BRANCH  23  24
HETATM   24  P   UNK N   1       1.436  -4.435  -0.181  0.00  0.00     0.391 P 
HETATM   25  O   UNK N   1       0.500  -5.439  -0.894  0.00  0.00    -0.632 OA
BRANCH  24  26
HETATM   26  O   UNK N   1       0.805  -4.235   1.429  0.00  0.00    -0.307 OA
HETATM   27  H   UNK N   1       0.725  -3.875   2.326  0.00  0.00     0.222 HD
ENDBRANCH  24  26
BRANCH  24  28
HETATM   28  O   UNK N   1       3.001  -5.180  -0.132  0.00  0.00    -0.307 OA
HETATM   29  H   UNK N   1       3.078  -6.146  -0.104  0.00  0.00     0.222 HD
ENDBRANCH  24  28
ENDBRANCH  23  24
ENDBRANCH   3  23
BRANCH   1  30
HETATM   30  C   UNK N   1      -1.178  -2.256   0.498  0.00  0.00     0.215 C 
BRANCH  30  31
HETATM   31  O   UNK N   1      -2.494  -1.792   0.500  0.00  0.00    -0.294 OA
BRANCH  31  32
HETATM   32  P   UNK N   1      -3.487  -3.047  -0.203  0.00  0.00     0.401 P 
HETATM   33  O   UNK N   1      -4.358  -3.653   0.932  0.00  0.00    -0.631 OA
BRANCH  32  34
HETATM   34  O   UNK N   1      -4.611  -2.302  -1.295  0.00  0.00    -0.307 OA
HETATM   35  H   UNK N   1      -4.565  -1.550  -1.905  0.00  0.00     0.222 HD
ENDBRANCH  32  34
BRANCH  32  36
HETATM   36  O   UNK N   1      -2.610  -4.304  -1.065  0.00  0.00    -0.195 OA
BRANCH  36  37
HETATM   37  P   UNK N   1      -2.599  -5.775  -0.115  0.00  0.00     0.399 P 
HETATM   38  O   UNK N   1      -1.789  -5.514   1.182  0.00  0.00    -0.631 OA
BRANCH  37  39
HETATM   39  O   UNK N   1      -1.762  -7.036  -0.969  0.00  0.00    -0.307 OA
HETATM   40  H   UNK N   1      -2.139  -7.792  -1.445  0.00  0.00     0.222 HD
ENDBRANCH  37  39
BRANCH  37  41
HETATM   41  O   UNK N   1      -4.177  -6.337   0.340  0.00  0.00    -0.307 OA
HETATM   42  H   UNK N   1      -4.890  -5.730   0.595  0.00  0.00     0.222 HD
ENDBRANCH  37  41
ENDBRANCH  36  37
ENDBRANCH  32  36
ENDBRANCH  31  32
ENDBRANCH  30  31
ENDBRANCH   1  30
TORSDOF 15
