REMARK  6 active torsions:
REMARK  status: ('A' for Active; 'I' for Inactive)
REMARK    1  A    between atoms: P_1  and  O_2 
REMARK    2  A    between atoms: P_1  and  O_3 
REMARK    3  A    between atoms: P_1  and  O_4 
REMARK    4  A    between atoms: O_2  and  C_7 
REMARK    5  A    between atoms: N_6  and  C_8 
REMARK    6  A    between atoms: C_7  and  C_8 
ROOT
HETATM    1  P   UNK N   1      11.275 -13.547  -0.646  0.00  0.00     0.390 P 
HETATM    2  O   UNK N   1      11.478 -14.636   0.445  0.00  0.00    -0.632 OA
ENDROOT
BRANCH   1   3
HETATM    3  O   UNK N   1      12.510 -12.819   0.343  0.00  0.00    -0.295 OA
BRANCH   3   4
HETATM    4  C   UNK N   1      13.716 -13.112  -0.302  0.00  0.00     0.199 C 
BRANCH   4   5
HETATM    5  C   UNK N   1      14.806 -12.195   0.210  0.00  0.00     0.138 C 
BRANCH   5   6
HETATM    6  N   UNK N   1      16.102 -12.762  -0.115  0.00  0.00    -0.428 N 
HETATM    7  H   UNK N   1      16.212 -13.750  -0.343  0.00  0.00     0.149 HD
HETATM    8  H   UNK N   1      16.923 -12.158  -0.115  0.00  0.00     0.149 HD
ENDBRANCH   5   6
ENDBRANCH   4   5
ENDBRANCH   3   4
ENDBRANCH   1   3
BRANCH   1   9
HETATM    9  O   UNK N   1       9.670 -13.799  -0.034  0.00  0.00    -0.307 OA
HETATM   10  H   UNK N   1       9.100 -13.092   0.307  0.00  0.00     0.222 HD
ENDBRANCH   1   9
BRANCH   1  11
HETATM   11  O   UNK N   1      10.660 -12.102   0.098  0.00  0.00    -0.307 OA
HETATM   12  H   UNK N   1      11.186 -11.401   0.513  0.00  0.00     0.222 HD
ENDBRANCH   1  11
TORSDOF 6
