REMARK  5 active torsions:
REMARK  status: ('A' for Active; 'I' for Inactive)
REMARK    1  A    between atoms: C_2  and  N_1 
REMARK    2  A    between atoms: C_2  and  C_3 
REMARK    3  A    between atoms: C_2  and  C_10 
REMARK    4  A    between atoms: C_3  and  C_4 
REMARK    5  A    between atoms: C_10  and  O_11 
ROOT
HETATM    1  C   UNK N   1       2.536   2.047   0.000  0.00  0.00     0.177 C 
ENDROOT
BRANCH   1   2
HETATM    2  N   UNK N   1       1.510   3.069  -0.000  0.00  0.00    -0.417 N 
HETATM    3  H   UNK N   1       1.771   4.055  -0.000  0.00  0.00     0.150 HD
HETATM    4  H   UNK N   1       0.525   2.803  -0.000  0.00  0.00     0.150 HD
ENDBRANCH   1   2
BRANCH   1   5
HETATM    5  C   UNK N   1       2.197   0.548  -0.000  0.00  0.00     0.082 C 
BRANCH   5   6
HETATM    6  C   UNK N   1       0.775   0.031  -0.000  0.00  0.00     0.038 A 
HETATM    7  C   UNK N   1       0.481  -1.321  -0.000  0.00  0.00     0.180 A 
HETATM    8  O   UNK N   1      -0.833  -1.451   0.000  0.00  0.00    -0.247 OA
HETATM    9  N   UNK N   1      -1.432  -0.296   0.000  0.00  0.00    -0.226 N 
HETATM   10  C   UNK N   1      -0.465   0.646   0.000  0.00  0.00     0.273 A 
HETATM   11  H   UNK N   1      -2.404  -0.139   0.000  0.00  0.00     0.198 HD
HETATM   12  O   UNK N   1      -0.702   1.837   0.000  0.00  0.00    -0.266 OA
ENDBRANCH   5   6
ENDBRANCH   1   5
BRANCH   1  13
HETATM   13  C   UNK N   1       3.952   2.533   0.000  0.00  0.00     0.163 C 
HETATM   14  O   UNK N   1       4.878   1.738  -0.000  0.00  0.00    -0.648 OA
BRANCH  13  15
HETATM   15  O   UNK N   1       4.209   3.856  -0.000  0.00  0.00    -0.775 OA
HETATM   16  H   UNK N   1       5.094   4.161  -0.000  0.00  0.00     0.167 HD
ENDBRANCH  13  15
ENDBRANCH   1  13
TORSDOF 5
