REMARK  2 active torsions:
REMARK  status: ('A' for Active; 'I' for Inactive)
REMARK    1  A    between atoms: O_1  and  N_2 
REMARK       I    between atoms: N_2  and  C_3 
REMARK    2  A    between atoms: C_3  and  C_5 
ROOT
HETATM    1  C   UNK N   1       0.832   1.192  -0.000  0.00  0.00     0.034 A 
HETATM    2  C   UNK N   1       2.066   0.524  -0.000  0.00  0.00     0.017 A 
HETATM    3  C   UNK N   1       2.106  -0.875   0.000  0.00  0.00     0.001 A 
HETATM    4  C   UNK N   1       0.916  -1.610   0.000  0.00  0.00     0.000 A 
HETATM    5  C   UNK N   1      -0.314  -0.949  -0.000  0.00  0.00     0.001 A 
HETATM    6  C   UNK N   1      -0.355   0.445  -0.000  0.00  0.00     0.017 A 
ENDROOT
BRANCH   1   7
HETATM    7  C   UNK N   1       0.764   2.666  -0.000  0.00  0.00     0.275 C 
HETATM    8  N   UNK N   1      -0.442   3.280  -0.000  0.00  0.00    -0.233 N 
HETATM    9  H   UNK N   1      -1.262   2.734  -0.000  0.00  0.00     0.197 HD
HETATM   10  O   UNK N   1       1.791   3.333   0.000  0.00  0.00    -0.265 OA
BRANCH   8  11
HETATM   11  O   UNK N   1      -0.543   4.615   0.000  0.00  0.00    -0.287 OA
HETATM   12  H   UNK N   1       0.258   5.161   0.000  0.00  0.00     0.244 HD
ENDBRANCH   8  11
ENDBRANCH   1   7
TORSDOF 2
