REMARK  10 active torsions:
REMARK  status: ('A' for Active; 'I' for Inactive)
REMARK    1  A    between atoms: C_9  and  C_5 
REMARK    2  A    between atoms: C_12  and  C_5 
REMARK    3  A    between atoms: C_13  and  C_7 
REMARK    4  A    between atoms: N_23  and  C_7 
REMARK    5  A    between atoms: C_15  and  C_8 
REMARK    6  A    between atoms: C_8  and  O_24 
REMARK    7  A    between atoms: O_26  and  C_13 
REMARK    8  A    between atoms: C_16  and  C_15 
REMARK    9  A    between atoms: C_15  and  N_19 
REMARK   10  A    between atoms: O_27  and  C_17 
ROOT
HETATM    1  C   UNK N   1       0.347   3.394   0.715  0.00  0.00     0.066 A 
HETATM    2  C   UNK N   1      -1.760   3.488   0.303  0.00  0.00     0.111 A 
HETATM    3  C   UNK N   1      -0.086   4.679   0.918  0.00  0.00     0.167 A 
HETATM    4  N   UNK N   1      -0.702   2.638   0.319  0.00  0.00    -0.344 N 
ATOM      5  HN  UNK N   1      -0.699   1.645   0.083  1.00  0.00     0.167 HD
HETATM    6  N   UNK N   1      -1.399   4.744   0.655  0.00  0.00    -0.304 N 
ENDROOT
BRANCH   1   7
HETATM    7  C   UNK N   1       1.741   2.906   0.978  0.00  0.00     0.102 C 
BRANCH   7   8
HETATM    8  C   UNK N   1       2.066   1.535   0.468  0.00  0.00    -0.021 A 
HETATM    9  C   UNK N   1       1.275   0.390   0.517  0.00  0.00     0.097 A 
HETATM   10  N   UNK N   1       1.954  -0.655  -0.024  0.00  0.00    -0.365 N 
HETATM   11  C   UNK N   1       3.155  -0.170  -0.390  0.00  0.00     0.045 A 
HETATM   12  H   UNK N   1       1.632  -1.579  -0.127  0.00  0.00     0.165 HD
HETATM   13  C   UNK N   1       4.202  -0.880  -0.974  0.00  0.00     0.030 A 
HETATM   14  C   UNK N   1       3.258   1.160  -0.101  0.00  0.00     0.037 A 
HETATM   15  C   UNK N   1       5.390  -0.181  -1.260  0.00  0.00     0.005 A 
HETATM   16  C   UNK N   1       5.502   1.195  -0.957  0.00  0.00     0.043 A 
HETATM   17  C   UNK N   1       4.423   1.880  -0.370  0.00  0.00     0.129 A 
HETATM   18  F   UNK N   1       4.525   3.197  -0.067  0.00  0.00    -0.205 F 
ENDBRANCH   7   8
ENDBRANCH   1   7
BRANCH   3  19
HETATM   19  O   UNK N   1       0.665   5.713   1.336  0.00  0.00    -0.344 OA
HETATM   20  H   UNK N   1       1.551   5.620   1.627  0.00  0.00     0.219 HD
ENDBRANCH   3  19
BRANCH   6  21
HETATM   21  C   UNK N   1      -2.261   5.917   0.763  0.00  0.00     0.242 C 
BRANCH  21  22
HETATM   22  C   UNK N   1      -1.974   6.898  -0.333  0.00  0.00     0.158 C 
HETATM   23  O   UNK N   1      -2.854   7.196  -1.123  0.00  0.00    -0.649 OA
BRANCH  22  24
HETATM   24  O   UNK N   1      -0.757   7.462  -0.445  0.00  0.00    -0.775 OA
HETATM   25  H   UNK N   1       0.006   6.925  -0.523  0.00  0.00     0.167 HD
ENDBRANCH  22  24
ENDBRANCH  21  22
ENDBRANCH   6  21
BRANCH   2  26
HETATM   26  C   UNK N   1      -3.182   3.081  -0.022  0.00  0.00     0.171 C 
BRANCH  26  27
HETATM   27  C   UNK N   1      -3.338   1.603  -0.428  0.00  0.00     0.143 C 
HETATM   28  C   UNK N   1      -2.862   0.657   0.664  0.00  0.00     0.042 C 
BRANCH  27  29
HETATM   29  O   UNK N   1      -4.684   1.329  -0.684  0.00  0.00    -0.393 OA
HETATM   30  H   UNK N   1      -5.316   2.043  -0.862  0.00  0.00     0.210 HD
ENDBRANCH  27  29
ENDBRANCH  26  27
BRANCH  26  31
HETATM   31  N   UNK N   1      -3.683   3.918  -1.102  0.00  0.00    -0.418 N 
HETATM   32  H   UNK N   1      -3.349   4.515  -1.859  0.00  0.00     0.150 HD
HETATM   33  H   UNK N   1      -4.702   3.903  -1.102  0.00  0.00     0.150 HD
ENDBRANCH  26  31
ENDBRANCH   2  26
TORSDOF 10
