REMARK  11 active torsions:
REMARK  status: ('A' for Active; 'I' for Inactive)
REMARK    1  A    between atoms: C_7  and  C_8 
REMARK    2  A    between atoms: C_8  and  N_9 
REMARK    3  A    between atoms: C_12  and  C_13 
REMARK    4  A    between atoms: C_13  and  C_14 
REMARK    5  A    between atoms: C_14  and  O_15 
REMARK    6  A    between atoms: P_16  and  O_15 
REMARK    7  A    between atoms: P_16  and  O_17 
REMARK    8  A    between atoms: P_16  and  O_19 
REMARK    9  A    between atoms: O_19  and  P_20 
REMARK   10  A    between atoms: P_20  and  O_21 
REMARK   11  A    between atoms: C_26  and  N_27 
ROOT
HETATM    1  N   UNK N   1      -3.982   4.241  -0.174  0.00  0.00    -0.349 N 
HETATM    2  C   UNK N   1      -4.759   5.336   0.038  0.00  0.00     0.141 A 
HETATM    3  S   UNK N   1      -3.794   6.682   0.019  0.00  0.00    -0.087 SA
HETATM    4  C   UNK N   1      -2.360   5.926  -0.241  0.00  0.00     0.008 A 
HETATM    5  C   UNK N   1      -2.647   4.560  -0.330  0.00  0.00     0.021 A 
HETATM    6  C   UNK N   1      -1.586   3.522  -0.533  0.00  0.00     0.069 C 
ENDROOT
BRANCH   1   7
HETATM    7  C   UNK N   1      -4.392   2.830  -0.197  0.00  0.00     0.173 C 
BRANCH   7   8
HETATM    8  C   UNK N   1      -5.800   2.238  -0.092  0.00  0.00     0.026 A 
HETATM    9  C   UNK N   1      -7.062   2.901  -0.122  0.00  0.00     0.018 A 
HETATM   10  N   UNK N   1      -8.204   2.167  -0.047  0.00  0.00    -0.349 N 
HETATM   11  C   UNK N   1      -7.244   4.361  -0.266  0.00  0.00     0.069 C 
HETATM   12  C   UNK N   1      -8.181   0.820   0.054  0.00  0.00     0.078 A 
ATOM     13  HN  UNK N   1      -9.104   2.647  -0.067  1.00  0.00     0.167 HD
HETATM   14  C   UNK N   1      -9.458   0.061   0.113  0.00  0.00     0.089 C 
HETATM   15  N   UNK N   1      -7.005   0.161   0.084  0.00  0.00    -0.332 N 
HETATM   16  C   UNK N   1      -5.824   0.829   0.016  0.00  0.00     0.110 A 
ATOM     17  HN  UNK N   1      -7.002  -0.856   0.160  1.00  0.00     0.168 HD
BRANCH  16  18
HETATM   18  N   UNK N   1      -4.623   0.088   0.043  0.00  0.00    -0.385 N 
HETATM   19  H   UNK N   1      -4.652  -0.896   0.063  0.00  0.00     0.157 HD
HETATM   20  H   UNK N   1      -3.756   0.555   0.043  0.00  0.00     0.157 HD
ENDBRANCH  16  18
ENDBRANCH   7   8
ENDBRANCH   1   7
BRANCH   4  21
HETATM   21  C   UNK N   1      -1.019   6.553  -0.253  0.00  0.00     0.075 C 
BRANCH  21  22
HETATM   22  C   UNK N   1      -0.299   5.938   0.929  0.00  0.00     0.185 C 
BRANCH  22  23
HETATM   23  O   UNK N   1       1.053   6.267   0.954  0.00  0.00    -0.296 OA
BRANCH  23  24
HETATM   24  P   UNK N   1       1.901   5.157  -0.097  0.00  0.00     0.402 P 
HETATM   25  O   UNK N   1       2.539   6.566  -0.232  0.00  0.00    -0.631 OA
BRANCH  24  26
HETATM   26  O   UNK N   1       1.894   4.512   1.519  0.00  0.00    -0.307 OA
HETATM   27  H   UNK N   1       1.580   4.335   2.420  0.00  0.00     0.222 HD
ENDBRANCH  24  26
BRANCH  24  28
HETATM   28  O   UNK N   1       3.532   4.776   0.439  0.00  0.00    -0.188 OA
BRANCH  28  29
HETATM   29  P   UNK N   1       4.646   4.867  -0.907  0.00  0.00     0.414 P 
HETATM   30  O   UNK N   1       4.834   3.309  -0.166  0.00  0.00    -0.624 OA
HETATM   31  O   UNK N   1       5.097   6.000   0.056  0.00  0.00    -0.624 OA
BRANCH  29  32
HETATM   32  O   UNK N   1       6.330   4.580  -0.608  0.00  0.00    -0.300 OA
HETATM   33  H   UNK N   1       6.662   3.684  -0.441  0.00  0.00     0.223 HD
ENDBRANCH  29  32
ENDBRANCH  28  29
ENDBRANCH  24  28
ENDBRANCH  23  24
ENDBRANCH  22  23
ENDBRANCH  21  22
ENDBRANCH   4  21
TORSDOF 11
