REMARK  9 active torsions:
REMARK  status: ('A' for Active; 'I' for Inactive)
REMARK    1  A    between atoms: C_2  and  O_1 
REMARK    2  A    between atoms: C_2  and  C_3 
REMARK    3  A    between atoms: C_2  and  C_11 
REMARK    4  A    between atoms: C_3  and  C_4 
REMARK    5  A    between atoms: C_3  and  C_8 
REMARK    6  A    between atoms: C_4  and  C_5 
REMARK    7  A    between atoms: C_5  and  O_6 
REMARK    8  A    between atoms: C_8  and  O_9 
REMARK    9  A    between atoms: C_11  and  O_12 
ROOT
HETATM    1  C   UNK N   1       4.061   1.867  -0.065  0.00  0.00     0.132 C 
ENDROOT
BRANCH   1   2
HETATM    2  C   UNK N   1       5.328   2.455   0.586  0.00  0.00     0.230 C 
BRANCH   2   3
HETATM    3  O   UNK N   1       5.522   3.766   0.141  0.00  0.00    -0.384 OA
HETATM    4  H   UNK N   1       6.378   4.104  -0.167  0.00  0.00     0.210 HD
ENDBRANCH   2   3
BRANCH   2   5
HETATM    5  C   UNK N   1       6.603   1.680   0.372  0.00  0.00     0.170 C 
HETATM    6  O   UNK N   1       6.630   0.690  -0.345  0.00  0.00    -0.648 OA
BRANCH   5   7
HETATM    7  O   UNK N   1       7.731   2.086   0.983  0.00  0.00    -0.774 OA
HETATM    8  H   UNK N   1       8.369   1.546   1.408  0.00  0.00     0.167 HD
ENDBRANCH   5   7
ENDBRANCH   2   5
ENDBRANCH   1   2
BRANCH   1   9
HETATM    9  C   UNK N   1       2.868   2.759   0.321  0.00  0.00     0.128 C 
BRANCH   9  10
HETATM   10  C   UNK N   1       1.520   2.361  -0.216  0.00  0.00     0.140 C 
HETATM   11  O   UNK N   1       1.366   1.325  -0.842  0.00  0.00    -0.650 OA
BRANCH  10  12
HETATM   12  O   UNK N   1       0.462   3.160   0.014  0.00  0.00    -0.776 OA
HETATM   13  H   UNK N   1       0.575   4.077   0.174  0.00  0.00     0.167 HD
ENDBRANCH  10  12
ENDBRANCH   9  10
ENDBRANCH   1   9
BRANCH   1  14
HETATM   14  C   UNK N   1       3.834   0.439   0.358  0.00  0.00     0.147 C 
HETATM   15  O   UNK N   1       3.658   0.159   1.533  0.00  0.00    -0.650 OA
BRANCH  14  16
HETATM   16  O   UNK N   1       3.825  -0.535  -0.572  0.00  0.00    -0.776 OA
HETATM   17  H   UNK N   1       3.236  -0.869  -1.219  0.00  0.00     0.167 HD
ENDBRANCH  14  16
ENDBRANCH   1  14
TORSDOF 9
