REMARK  20 active torsions:
REMARK  status: ('A' for Active; 'I' for Inactive)
REMARK    1  A    between atoms: C_1  and  C_2 
REMARK    2  A    between atoms: C_1  and  O_20 
REMARK    3  A    between atoms: C_2  and  C_4 
REMARK    4  A    between atoms: C_4  and  C_5 
REMARK    5  A    between atoms: C_5  and  C_6 
REMARK    6  A    between atoms: C_6  and  C_7 
REMARK    7  A    between atoms: C_7  and  C_8 
REMARK    8  A    between atoms: C_8  and  C_9 
REMARK    9  A    between atoms: C_9  and  C_10 
REMARK   10  A    between atoms: C_10  and  C_11 
REMARK   11  A    between atoms: C_12  and  C_11 
REMARK   12  A    between atoms: C_13  and  C_12 
REMARK   13  A    between atoms: C_14  and  C_13 
REMARK   14  A    between atoms: C_15  and  C_14 
REMARK   15  A    between atoms: C_16  and  C_15 
REMARK   16  A    between atoms: C_17  and  C_16 
REMARK   17  A    between atoms: C_18  and  C_17 
REMARK   18  A    between atoms: O_20  and  Al_22 
REMARK   19  A    between atoms: Al_22  and  O_21 
REMARK   20  A    between atoms: Al_22  and  O_23 
ROOT
HETATM    1  C   UNK N   1       1.191  -1.002   0.294  0.00  0.00     0.000 C 
ENDROOT
BRANCH   1   2
HETATM    2  C   UNK N   1       2.493  -1.518   0.876  0.00  0.00     0.000 C 
BRANCH   2   3
HETATM    3  C   UNK N   1       3.276  -2.296  -0.172  0.00  0.00     0.000 C 
BRANCH   3   4
HETATM    4  C   UNK N   1       4.479  -1.504  -0.655  0.00  0.00     0.010 C 
BRANCH   4   5
HETATM    5  C   UNK N   1       5.513  -1.376   0.454  0.00  0.00     0.114 C 
BRANCH   5   6
HETATM    6  C   UNK N   1       6.558  -0.382   0.074  0.00  0.00     0.289 C 
HETATM    7  O   UNK N   1       6.231   0.766  -0.191  0.00  0.00    -0.263 OA
BRANCH   6   8
HETATM    8  O   UNK N   1       7.862  -0.752   0.070  0.00  0.00    -0.150 OA
BRANCH   8   9
HETATM    9 Al   UNK N   1       9.245   0.318  -0.472  0.00  0.00     0.000 Al
BRANCH   9  10
HETATM   10  O   UNK N   1       9.136   1.941   0.375  0.00  0.00    -0.253 OA
HETATM   11  H   UNK N   1       9.850   2.421   0.823  0.00  0.00     0.253 HD
ENDBRANCH   9  10
BRANCH   9  12
HETATM   12  O   UNK N   1      10.841  -0.485  -0.055  0.00  0.00    -0.253 OA
HETATM   13  H   UNK N   1      10.896  -1.428   0.166  0.00  0.00     0.253 HD
ENDBRANCH   9  12
ENDBRANCH   8   9
ENDBRANCH   6   8
ENDBRANCH   5   6
ENDBRANCH   4   5
ENDBRANCH   3   4
ENDBRANCH   2   3
ENDBRANCH   1   2
BRANCH   1  14
HETATM   14  C   UNK N   1       1.359   0.423  -0.201  0.00  0.00     0.000 C 
BRANCH  14  15
HETATM   15  C   UNK N   1       0.056   0.945  -0.786  0.00  0.00     0.000 C 
BRANCH  15  16
HETATM   16  C   UNK N   1      -0.966   1.263   0.301  0.00  0.00     0.000 C 
BRANCH  16  17
HETATM   17  C   UNK N   1      -1.861   0.071   0.617  0.00  0.00     0.000 C 
BRANCH  17  18
HETATM   18  C   UNK N   1      -2.710  -0.291  -0.590  0.00  0.00     0.000 C 
BRANCH  18  19
HETATM   19  C   UNK N   1      -3.921  -1.100  -0.168  0.00  0.00     0.000 C 
BRANCH  19  20
HETATM   20  C   UNK N   1      -5.111  -0.176   0.003  0.00  0.00     0.000 C 
BRANCH  20  21
HETATM   21  C   UNK N   1      -6.374  -1.001   0.120  0.00  0.00     0.000 C 
BRANCH  21  22
HETATM   22  C   UNK N   1      -7.585  -0.094   0.068  0.00  0.00     0.000 C 
BRANCH  22  23
HETATM   23  C   UNK N   1      -8.840  -0.942   0.059  0.00  0.00    -0.000 C 
BRANCH  23  24
HETATM   24  C   UNK N   1     -10.061  -0.051  -0.007  0.00  0.00    -0.005 C 
HETATM   25  C   UNK N   1     -11.308  -0.911  -0.014  0.00  0.00     0.005 C 
ENDBRANCH  23  24
ENDBRANCH  22  23
ENDBRANCH  21  22
ENDBRANCH  20  21
ENDBRANCH  19  20
ENDBRANCH  18  19
ENDBRANCH  17  18
ENDBRANCH  16  17
ENDBRANCH  15  16
ENDBRANCH  14  15
ENDBRANCH   1  14
TORSDOF 20
