REMARK  0 active torsions:
REMARK  status: ('A' for Active; 'I' for Inactive)
ROOT
HETATM    1  C   UNK N   1      -1.607   2.276   0.000  0.00  0.00     0.107 A 
HETATM    2  C   UNK N   1      -1.456   0.888   0.000  0.00  0.00     0.116 A 
HETATM    3  C   UNK N   1       3.923   2.318  -0.000  0.00  0.00     0.182 A 
HETATM    4  C   UNK N   1       0.546  -0.548  -0.000  0.00  0.00     0.191 A 
HETATM    5  C   UNK N   1       1.848   1.866   0.000  0.00  0.00     0.122 A 
HETATM    6  C   UNK N   1       2.535   0.704  -0.000  0.00  0.00     0.138 A 
HETATM    7  C   UNK N   1       0.476   1.826   0.000  0.00  0.00     0.143 A 
HETATM    8  N   UNK N   1      -0.380   2.857   0.000  0.00  0.00    -0.349 N 
ATOM      9  HN  UNK N   1      -0.160   3.853   0.000  1.00  0.00     0.167 HD
HETATM   10  N   UNK N   1       2.692   2.901   0.000  0.00  0.00    -0.346 N 
ATOM     11  HN  UNK N   1       2.467   3.896   0.000  1.00  0.00     0.167 HD
HETATM   12  N   UNK N   1       3.849   0.956  -0.000  0.00  0.00    -0.337 N 
HETATM   13  N   UNK N   1       1.922  -0.516  -0.000  0.00  0.00    -0.336 N 
ATOM     14  HN  UNK N   1       2.467  -1.378  -0.000  1.00  0.00     0.168 HD
HETATM   15  N   UNK N   1      -0.140   0.638   0.000  0.00  0.00    -0.301 N 
HETATM   16  H   UNK N   1       4.591   0.308  -0.000  0.00  0.00     0.168 HD
ENDROOT
TORSDOF 0
