REMARK  2 active torsions:
REMARK  status: ('A' for Active; 'I' for Inactive)
REMARK    1  A    between atoms: O_1  and  C_2 
REMARK    2  A    between atoms: C_2  and  C_3 
ROOT
HETATM    1  C   UNK N   1       1.820   1.106   0.000  0.00  0.00     0.049 A 
HETATM    2  C   UNK N   1       1.816  -0.295  -0.000  0.00  0.00     0.169 A 
HETATM    3  F   UNK N   1       2.990  -0.979  -0.000  0.00  0.00    -0.202 F 
HETATM    4  C   UNK N   1       0.613  -1.003  -0.000  0.00  0.00     0.197 A 
HETATM    5  F   UNK N   1       0.629  -2.358  -0.000  0.00  0.00    -0.199 F 
HETATM    6  C   UNK N   1      -0.605  -0.316  -0.000  0.00  0.00     0.199 A 
HETATM    7  F   UNK N   1      -1.771  -1.008  -0.000  0.00  0.00    -0.199 F 
HETATM    8  C   UNK N   1      -0.619   1.081   0.000  0.00  0.00     0.197 A 
HETATM    9  F   UNK N   1      -1.804   1.743   0.000  0.00  0.00    -0.199 F 
HETATM   10  C   UNK N   1       0.584   1.800   0.000  0.00  0.00     0.169 A 
HETATM   11  F   UNK N   1       0.535   3.156   0.000  0.00  0.00    -0.202 F 
ENDROOT
BRANCH   1  12
HETATM   12  C   UNK N   1       3.159   1.799  -0.000  0.00  0.00     0.209 C 
BRANCH  12  13
HETATM   13  O   UNK N   1       3.068   3.189   0.000  0.00  0.00    -0.396 OA
HETATM   14  H   UNK N   1       3.875   3.728   0.000  0.00  0.00     0.209 HD
ENDBRANCH  12  13
ENDBRANCH   1  12
TORSDOF 2
