REMARK  14 active torsions:
REMARK  status: ('A' for Active; 'I' for Inactive)
REMARK    1  A    between atoms: C_2  and  O_1 
REMARK    2  A    between atoms: C_2  and  C_3 
REMARK    3  A    between atoms: C_2  and  C_9 
REMARK    4  A    between atoms: C_3  and  O_4 
REMARK    5  A    between atoms: O_4  and  P_5 
REMARK    6  A    between atoms: P_5  and  O_6 
REMARK    7  A    between atoms: P_5  and  O_7 
REMARK    8  A    between atoms: C_9  and  O_10 
REMARK    9  A    between atoms: C_9  and  C_11 
REMARK   10  A    between atoms: C_11  and  O_12 
REMARK   11  A    between atoms: C_11  and  C_13 
REMARK   12  A    between atoms: C_13  and  O_14 
REMARK   13  A    between atoms: C_13  and  C_15 
REMARK   14  A    between atoms: C_15  and  O_16 
ROOT
HETATM    1  C   UNK N   1       5.753   2.440  -0.292  0.00  0.00     0.180 C 
ENDROOT
BRANCH   1   2
HETATM    2  C   UNK N   1       4.631   1.454   0.079  0.00  0.00     0.173 C 
BRANCH   2   3
HETATM    3  O   UNK N   1       4.894   0.189  -0.446  0.00  0.00    -0.391 OA
HETATM    4  H   UNK N   1       4.223  -0.409  -0.812  0.00  0.00     0.210 HD
ENDBRANCH   2   3
BRANCH   2   5
HETATM    5  C   UNK N   1       3.301   1.912  -0.495  0.00  0.00     0.214 C 
BRANCH   5   6
HETATM    6  O   UNK N   1       2.645   2.748   0.411  0.00  0.00    -0.294 OA
BRANCH   6   7
HETATM    7  P   UNK N   1       1.389   3.515  -0.514  0.00  0.00     0.390 P 
HETATM    8  O   UNK N   1       1.999   4.695   0.289  0.00  0.00    -0.632 OA
BRANCH   7   9
HETATM    9  O   UNK N   1       0.016   4.188   0.306  0.00  0.00    -0.307 OA
HETATM   10  H   UNK N   1      -0.043   5.041   0.764  0.00  0.00     0.222 HD
ENDBRANCH   7   9
BRANCH   7  11
HETATM   11  O   UNK N   1       0.670   2.350   0.557  0.00  0.00    -0.307 OA
HETATM   12  H   UNK N   1      -0.093   2.372   1.155  0.00  0.00     0.222 HD
ENDBRANCH   7  11
ENDBRANCH   6   7
ENDBRANCH   5   6
ENDBRANCH   2   5
ENDBRANCH   1   2
BRANCH   1  13
HETATM   13  O   UNK N   1       5.449   3.703   0.225  0.00  0.00    -0.390 OA
HETATM   14  H   UNK N   1       6.102   4.324   0.584  0.00  0.00     0.210 HD
ENDBRANCH   1  13
BRANCH   1  15
HETATM   15  C   UNK N   1       7.157   2.007   0.186  0.00  0.00     0.188 C 
BRANCH  15  16
HETATM   16  O   UNK N   1       7.408   0.692  -0.213  0.00  0.00    -0.390 OA
HETATM   17  H   UNK N   1       6.704   0.084  -0.490  0.00  0.00     0.210 HD
ENDBRANCH  15  16
BRANCH  15  18
HETATM   18  C   UNK N   1       8.241   2.927  -0.409  0.00  0.00     0.246 C 
BRANCH  18  19
HETATM   19  O   UNK N   1       8.100   4.226   0.089  0.00  0.00    -0.382 OA
HETATM   20  H   UNK N   1       8.831   4.761   0.434  0.00  0.00     0.210 HD
ENDBRANCH  18  19
BRANCH  18  21
HETATM   21  C   UNK N   1       9.643   2.433  -0.151  0.00  0.00     0.172 C 
HETATM   22  O   UNK N   1       9.996   1.344  -0.577  0.00  0.00    -0.648 OA
BRANCH  21  23
HETATM   23  O   UNK N   1      10.529   3.204   0.508  0.00  0.00    -0.774 OA
HETATM   24  H   UNK N   1      11.302   2.938   0.966  0.00  0.00     0.167 HD
ENDBRANCH  21  23
ENDBRANCH  18  21
ENDBRANCH  15  18
ENDBRANCH   1  15
TORSDOF 14
