REMARK  22 active torsions:
REMARK  status: ('A' for Active; 'I' for Inactive)
REMARK    1  A    between atoms: C_1  and  O_4 
REMARK    2  A    between atoms: C_2  and  N_6 
REMARK    3  A    between atoms: O_4  and  P_8 
REMARK    4  A    between atoms: C_5  and  O_10 
REMARK       I    between atoms: N_6  and  C_11 
REMARK    5  A    between atoms: C_7  and  C_12 
REMARK    6  A    between atoms: P_8  and  O_13 
REMARK    7  A    between atoms: P_8  and  O_14 
REMARK    8  A    between atoms: C_9  and  O_16 
REMARK    9  A    between atoms: O_10  and  C_17 
REMARK   10  A    between atoms: C_12  and  O_20 
REMARK   11  A    between atoms: O_13  and  P_21 
REMARK   12  A    between atoms: C_17  and  C_22 
REMARK   13  A    between atoms: P_21  and  O_24 
REMARK   14  A    between atoms: P_21  and  O_25 
REMARK       I    between atoms: C_22  and  N_27 
REMARK   15  A    between atoms: O_24  and  C_29 
REMARK   16  A    between atoms: C_30  and  N_27 
REMARK   17  A    between atoms: C_31  and  C_29 
REMARK   18  A    between atoms: C_30  and  C_32 
REMARK   19  A    between atoms: C_32  and  O_36 
REMARK   20  A    between atoms: C_35  and  O_40 
REMARK   21  A    between atoms: C_38  and  N_41 
REMARK   22  A    between atoms: C_39  and  O_42 
ROOT
HETATM    1  O   UNK N   1      21.286 -10.877  -0.185  0.00  0.00    -0.263 OA
ENDROOT
BRANCH   1   2
HETATM    2  C   UNK N   1      20.182 -11.528   0.382  0.00  0.00     0.297 C 
HETATM    3  C   UNK N   1      20.133 -13.002  -0.145  0.00  0.00     0.171 C 
HETATM    4  C   UNK N   1      18.730 -13.581   0.026  0.00  0.00     0.181 C 
HETATM    5  C   UNK N   1      17.694 -12.634  -0.553  0.00  0.00     0.180 C 
HETATM    6  C   UNK N   1      17.863 -11.404   0.330  0.00  0.00     0.179 C 
HETATM    7  O   UNK N   1      19.062 -10.765  -0.026  0.00  0.00    -0.348 OA
BRANCH   3   8
HETATM    8  N   UNK N   1      21.061 -13.820   0.607  0.00  0.00    -0.349 N 
HETATM    9  C   UNK N   1      21.712 -14.883   0.079  0.00  0.00     0.214 C 
HETATM   10  C   UNK N   1      22.610 -15.697   0.946  0.00  0.00     0.117 C 
HETATM   11  O   UNK N   1      21.557 -15.195  -1.092  0.00  0.00    -0.274 OA
HETATM   12  H   UNK N   1      21.228 -13.591   1.550  0.00  0.00     0.163 HD
ENDBRANCH   3   8
BRANCH   4  13
HETATM   13  O   UNK N   1      18.602 -14.903  -0.429  0.00  0.00    -0.367 OA
BRANCH  13  14
HETATM   14  C   UNK N   1      18.184 -15.581   0.726  0.00  0.00     0.209 C 
HETATM   15  C   UNK N   1      16.679 -15.774   0.758  0.00  0.00     0.050 C 
BRANCH  14  16
HETATM   16  C   UNK N   1      18.944 -16.850   1.012  0.00  0.00     0.247 C 
HETATM   17  N   UNK N   1      18.795 -17.982   0.276  0.00  0.00    -0.345 N 
HETATM   18  H   UNK N   1      19.289 -18.785   0.558  0.00  0.00     0.163 HD
HETATM   19  O   UNK N   1      19.681 -16.873   1.983  0.00  0.00    -0.271 OA
BRANCH  17  20
HETATM   20  C   UNK N   1      17.957 -18.081  -0.895  0.00  0.00     0.178 C 
HETATM   21  C   UNK N   1      18.784 -18.664  -2.031  0.00  0.00     0.043 C 
BRANCH  20  22
HETATM   22  C   UNK N   1      16.739 -18.920  -0.590  0.00  0.00     0.163 C 
HETATM   23  O   UNK N   1      16.526 -19.962  -1.190  0.00  0.00    -0.648 OA
BRANCH  22  24
HETATM   24  O   UNK N   1      15.862 -18.507   0.345  0.00  0.00    -0.775 OA
HETATM   25  H   UNK N   1      15.806 -17.835   0.996  0.00  0.00     0.167 HD
ENDBRANCH  22  24
ENDBRANCH  20  22
ENDBRANCH  17  20
ENDBRANCH  14  16
ENDBRANCH  13  14
ENDBRANCH   4  13
BRANCH   5  26
HETATM   26  O   UNK N   1      16.412 -13.168  -0.419  0.00  0.00    -0.390 OA
HETATM   27  H   UNK N   1      15.645 -12.582  -0.327  0.00  0.00     0.210 HD
ENDBRANCH   5  26
BRANCH   6  28
HETATM   28  C   UNK N   1      16.705 -10.417   0.248  0.00  0.00     0.198 C 
BRANCH  28  29
HETATM   29  O   UNK N   1      16.705  -9.749  -0.976  0.00  0.00    -0.398 OA
HETATM   30  H   UNK N   1      17.108  -9.517  -1.827  0.00  0.00     0.209 HD
ENDBRANCH  28  29
ENDBRANCH   6  28
ENDBRANCH   1   2
BRANCH   1  31
HETATM   31  P   UNK N   1      22.686 -10.963   0.850  0.00  0.00     0.404 P 
HETATM   32  O   UNK N   1      22.410 -11.913   2.047  0.00  0.00    -0.631 OA
BRANCH  31  33
HETATM   33  O   UNK N   1      24.118 -11.569   0.041  0.00  0.00    -0.195 OA
BRANCH  33  34
HETATM   34  P   UNK N   1      23.788 -12.031  -1.632  0.00  0.00     0.401 P 
HETATM   35  O   UNK N   1      22.296 -12.327  -1.917  0.00  0.00    -0.631 OA
BRANCH  34  36
HETATM   36  O   UNK N   1      24.627 -13.497  -2.055  0.00  0.00    -0.294 OA
BRANCH  36  37
HETATM   37  C   UNK N   1      24.834 -14.209  -0.869  0.00  0.00     0.215 C 
BRANCH  37  38
HETATM   38  C   UNK N   1      26.151 -13.785  -0.235  0.00  0.00     0.180 C 
HETATM   39  O   UNK N   1      27.170 -13.634  -1.185  0.00  0.00    -0.353 OA
HETATM   40  C   UNK N   1      28.299 -13.403  -0.382  0.00  0.00     0.263 C 
HETATM   41  C   UNK N   1      28.126 -14.278   0.863  0.00  0.00     0.198 C 
HETATM   42  C   UNK N   1      26.674 -14.730   0.818  0.00  0.00     0.182 C 
BRANCH  40  43
HETATM   43  N   UNK N   1      28.464 -11.973  -0.016  0.00  0.00    -0.280 N 
HETATM   44  C   UNK N   1      27.669 -10.941  -0.509  0.00  0.00     0.331 A 
HETATM   45  N   UNK N   1      27.882  -9.653  -0.095  0.00  0.00    -0.275 N 
HETATM   46  O   UNK N   1      26.789 -11.155  -1.319  0.00  0.00    -0.246 OA
HETATM   47  C   UNK N   1      28.875  -9.354   0.791  0.00  0.00     0.250 A 
HETATM   48  H   UNK N   1      27.309  -8.931  -0.442  0.00  0.00     0.173 HD
HETATM   49  O   UNK N   1      29.042  -8.204   1.153  0.00  0.00    -0.268 OA
HETATM   50  C   UNK N   1      29.696 -10.363   1.273  0.00  0.00     0.092 A 
HETATM   51  C   UNK N   1      29.473 -11.671   0.851  0.00  0.00     0.104 A 
ENDBRANCH  40  43
BRANCH  41  52
HETATM   52  O   UNK N   1      29.002 -15.367   0.801  0.00  0.00    -0.388 OA
HETATM   53  H   UNK N   1      28.651 -16.271   0.759  0.00  0.00     0.210 HD
ENDBRANCH  41  52
BRANCH  42  54
HETATM   54  O   UNK N   1      26.579 -16.048   0.353  0.00  0.00    -0.390 OA
HETATM   55  H   UNK N   1      25.756 -16.447   0.031  0.00  0.00     0.210 HD
ENDBRANCH  42  54
ENDBRANCH  37  38
ENDBRANCH  36  37
ENDBRANCH  34  36
BRANCH  34  56
HETATM   56  O   UNK N   1      24.274 -10.785  -2.739  0.00  0.00    -0.307 OA
HETATM   57  H   UNK N   1      25.013 -10.673  -3.357  0.00  0.00     0.222 HD
ENDBRANCH  34  56
ENDBRANCH  33  34
ENDBRANCH  31  33
BRANCH  31  58
HETATM   58  O   UNK N   1      23.010  -9.405   1.545  0.00  0.00    -0.307 OA
HETATM   59  H   UNK N   1      23.854  -9.127   1.934  0.00  0.00     0.222 HD
ENDBRANCH  31  58
ENDBRANCH   1  31
TORSDOF 22
