REMARK  7 active torsions:
REMARK  status: ('A' for Active; 'I' for Inactive)
REMARK       I    between atoms: N_2  and  C_4 
REMARK       I    between atoms: C_4  and  N_5 
REMARK    1  A    between atoms: N_6  and  C_8 
REMARK    2  A    between atoms: C_8  and  C_9 
REMARK    3  A    between atoms: C_9  and  C_10 
REMARK    4  A    between atoms: C_10  and  C_11 
REMARK    5  A    between atoms: C_11  and  N_12 
REMARK    6  A    between atoms: C_11  and  C_13 
REMARK    7  A    between atoms: C_13  and  O_14 
ROOT
HETATM    1  C   UNK N   1       1.887   0.401  -0.098  0.00  0.00     0.138 C 
ENDROOT
BRANCH   1   2
HETATM    2  N   UNK N   1       0.976   1.511   0.172  0.00  0.00    -0.227 N 
HETATM    3  C   UNK N   1       1.098   2.769  -0.128  0.00  0.00     0.668 C 
HETATM    4  N   UNK N   1       0.065   3.680   0.240  0.00  0.00    -0.227 N 
HETATM    5  N   UNK N   1       2.231   3.261  -0.823  0.00  0.00    -0.235 N 
HETATM    6  C   UNK N   1       0.202   5.087  -0.033  0.00  0.00     0.168 C 
HETATM    7  C   UNK N   1      -1.137   3.212   0.881  0.00  0.00     0.168 C 
HETATM    8  H   UNK N   1       2.920   2.750  -1.305  0.00  0.00     0.174 HD
HETATM    9  H   UNK N   1       2.343   4.239  -0.823  0.00  0.00     0.174 HD
ATOM     10  HN  UNK N   1       0.120   1.262   0.667  1.00  0.00     0.177 HD
ENDBRANCH   1   2
BRANCH   1  11
HETATM   11  C   UNK N   1       3.227   0.739  -0.738  0.00  0.00     0.023 C 
BRANCH  11  12
HETATM   12  C   UNK N   1       4.152   1.380   0.277  0.00  0.00     0.037 C 
BRANCH  12  13
HETATM   13  C   UNK N   1       5.424   1.817  -0.420  0.00  0.00     0.173 C 
BRANCH  13  14
HETATM   14  N   UNK N   1       5.611   3.247  -0.234  0.00  0.00    -0.418 N 
HETATM   15  H   UNK N   1       6.545   3.635  -0.103  0.00  0.00     0.150 HD
HETATM   16  H   UNK N   1       4.801   3.867  -0.234  0.00  0.00     0.150 HD
ENDBRANCH  13  14
BRANCH  13  17
HETATM   17  C   UNK N   1       6.587   1.046   0.128  0.00  0.00     0.163 C 
HETATM   18  O   UNK N   1       6.614  -0.170   0.016  0.00  0.00    -0.648 OA
BRANCH  17  19
HETATM   19  O   UNK N   1       7.604   1.680   0.743  0.00  0.00    -0.775 OA
HETATM   20  H   UNK N   1       8.340   1.289   1.170  0.00  0.00     0.167 HD
ENDBRANCH  17  19
ENDBRANCH  13  17
ENDBRANCH  12  13
ENDBRANCH  11  12
ENDBRANCH   1  11
TORSDOF 7
