REMARK  4 active torsions:
REMARK  status: ('A' for Active; 'I' for Inactive)
REMARK    1  A    between atoms: O_1  and  C_2 
REMARK    2  A    between atoms: C_2  and  C_4 
REMARK    3  A    between atoms: C_10  and  C_11 
REMARK    4  A    between atoms: C_11  and  O_12 
ROOT
HETATM    1  C   UNK N   1       1.501   0.653  -0.000  0.00  0.00     0.071 A 
HETATM    2  C   UNK N   1       1.502  -0.755  -0.000  0.00  0.00     0.022 A 
HETATM    3  C   UNK N   1       0.323  -1.489  -0.000  0.00  0.00     0.018 A 
HETATM    4  C   UNK N   1      -0.886  -0.818   0.000  0.00  0.00     0.088 A 
HETATM    5  N   UNK N   1      -0.908   0.536   0.000  0.00  0.00    -0.360 N 
ATOM      6  HN  UNK N   1      -1.815   1.002   0.000  1.00  0.00     0.165 HD
HETATM    7  C   UNK N   1       0.217   1.314   0.000  0.00  0.00     0.123 A 
ENDROOT
BRANCH   1   8
HETATM    8  C   UNK N   1       2.861   1.293  -0.000  0.00  0.00     0.178 C 
HETATM    9  O   UNK N   1       3.856   0.583  -0.000  0.00  0.00    -0.646 OA
BRANCH   8  10
HETATM   10  O   UNK N   1       3.038   2.620   0.000  0.00  0.00    -0.773 OA
HETATM   11  H   UNK N   1       3.905   2.977   0.000  0.00  0.00     0.167 HD
ENDBRANCH   8  10
ENDBRANCH   1   8
BRANCH   7  12
HETATM   12  C   UNK N   1      -0.047   2.788   0.000  0.00  0.00     0.194 C 
HETATM   13  O   UNK N   1      -1.205   3.172   0.000  0.00  0.00    -0.645 OA
BRANCH  12  14
HETATM   14  O   UNK N   1       0.921   3.715  -0.000  0.00  0.00    -0.772 OA
HETATM   15  H   UNK N   1       1.821   3.453  -0.000  0.00  0.00     0.167 HD
ENDBRANCH  12  14
ENDBRANCH   7  12
TORSDOF 4
