REMARK  8 active torsions:
REMARK  status: ('A' for Active; 'I' for Inactive)
REMARK    1  A    between atoms: O_1  and  C_2 
REMARK    2  A    between atoms: C_2  and  C_3 
REMARK    3  A    between atoms: C_3  and  C_4 
REMARK    4  A    between atoms: C_3  and  O_6 
REMARK    5  A    between atoms: C_4  and  O_5 
REMARK    6  A    between atoms: O_6  and  P_7 
REMARK    7  A    between atoms: P_7  and  O_8 
REMARK    8  A    between atoms: P_7  and  O_9 
ROOT
HETATM    1  C   UNK N   1       0.930  -0.980   0.028  0.00  0.00     0.180 C 
ENDROOT
BRANCH   1   2
HETATM    2  C   UNK N   1      -0.214  -1.965   0.220  0.00  0.00     0.198 C 
BRANCH   2   3
HETATM    3  O   UNK N   1      -1.224  -1.732  -0.716  0.00  0.00    -0.398 OA
HETATM    4  H   UNK N   1      -1.435  -1.044  -1.367  0.00  0.00     0.209 HD
ENDBRANCH   2   3
ENDBRANCH   1   2
BRANCH   1   5
HETATM    5  C   UNK N   1       0.415   0.445   0.193  0.00  0.00     0.198 C 
BRANCH   5   6
HETATM    6  O   UNK N   1       1.418   1.362  -0.117  0.00  0.00    -0.398 OA
HETATM    7  H   UNK N   1       2.320   1.077  -0.333  0.00  0.00     0.209 HD
ENDBRANCH   5   6
ENDBRANCH   1   5
BRANCH   1   8
HETATM    8  O   UNK N   1       1.914  -1.236   0.987  0.00  0.00    -0.287 OA
BRANCH   8   9
HETATM    9  P   UNK N   1       3.435  -1.326   0.137  0.00  0.00     0.391 P 
HETATM   10  O   UNK N   1       4.520  -0.867   1.146  0.00  0.00    -0.632 OA
BRANCH   9  11
HETATM   11  O   UNK N   1       3.535  -0.229  -1.207  0.00  0.00    -0.307 OA
HETATM   12  H   UNK N   1       4.093   0.029  -1.957  0.00  0.00     0.222 HD
ENDBRANCH   9  11
BRANCH   9  13
HETATM   13  O   UNK N   1       3.845  -2.948  -0.323  0.00  0.00    -0.307 OA
HETATM   14  H   UNK N   1       3.174  -3.600  -0.581  0.00  0.00     0.222 HD
ENDBRANCH   9  13
ENDBRANCH   8   9
ENDBRANCH   1   8
TORSDOF 8
