REMARK  11 active torsions:
REMARK  status: ('A' for Active; 'I' for Inactive)
REMARK    1  A    between atoms: C_14  and  C_10 
REMARK    2  A    between atoms: C_18  and  C_11 
REMARK    3  A    between atoms: C_15  and  C_12 
REMARK    4  A    between atoms: C_17  and  C_13 
REMARK    5  A    between atoms: C_19  and  C_13 
REMARK    6  A    between atoms: C_19  and  C_15 
REMARK    7  A    between atoms: C_18  and  C_16 
REMARK    8  A    between atoms: C_20  and  C_16 
REMARK    9  A    between atoms: C_18  and  N_21 
REMARK   10  A    between atoms: C_19  and  O_24 
REMARK   11  A    between atoms: O_23  and  C_20 
ROOT
HETATM    1  C   UNK N   1       0.309   4.594   2.373  0.00  0.00     0.048 C 
HETATM    2  C   UNK N   1       0.117   4.087  -0.049  0.00  0.00    -0.013 C 
HETATM    3  C   UNK N   1      -0.240   4.861   1.005  0.00  0.00    -0.066 C 
ENDROOT
BRANCH   3   4
HETATM    4  C   UNK N   1      -1.323   5.874   0.863  0.00  0.00     0.004 C 
HETATM    5  C   UNK N   1      -1.676   6.394  -0.333  0.00  0.00    -0.001 C 
BRANCH   5   6
HETATM    6  C   UNK N   1      -2.896   7.248  -0.573  0.00  0.00     0.111 C 
BRANCH   6   7
HETATM    7  C   UNK N   1      -4.060   7.090   0.436  0.00  0.00     0.105 C 
HETATM    8  C   UNK N   1      -4.418   5.620   0.639  0.00  0.00     0.023 C 
BRANCH   7   9
HETATM    9  C   UNK N   1      -5.290   7.790  -0.080  0.00  0.00     0.145 C 
HETATM   10  O   UNK N   1      -5.794   7.446  -1.142  0.00  0.00    -0.650 OA
BRANCH   9  11
HETATM   11  O   UNK N   1      -5.849   8.788   0.626  0.00  0.00    -0.776 OA
HETATM   12  H   UNK N   1      -5.442   9.473   1.119  0.00  0.00     0.167 HD
ENDBRANCH   9  11
ENDBRANCH   7   9
ENDBRANCH   6   7
BRANCH   6  13
HETATM   13  N   UNK N   1      -2.503   8.641  -0.716  0.00  0.00    -0.422 N 
HETATM   14  H   UNK N   1      -1.519   8.890  -0.816  0.00  0.00     0.150 HD
HETATM   15  H   UNK N   1      -3.214   9.371  -0.716  0.00  0.00     0.150 HD
ENDBRANCH   6  13
ENDBRANCH   5   6
ENDBRANCH   3   4
BRANCH   2  16
HETATM   16  C   UNK N   1       1.055   2.912   0.052  0.00  0.00     0.034 C 
HETATM   17  C   UNK N   1       2.480   3.404   0.279  0.00  0.00     0.017 C 
BRANCH  16  18
HETATM   18  C   UNK N   1       0.963   2.034  -1.243  0.00  0.00     0.132 C 
BRANCH  18  19
HETATM   19  C   UNK N   1       1.913   0.821  -1.204  0.00  0.00     0.071 C 
BRANCH  19  20
HETATM   20  C   UNK N   1       1.683  -0.260  -0.178  0.00  0.00    -0.056 A 
HETATM   21  C   UNK N   1       2.642  -1.270  -0.058  0.00  0.00     0.007 A 
HETATM   22  C   UNK N   1       2.485  -2.287   0.890  0.00  0.00     0.001 A 
HETATM   23  C   UNK N   1       1.363  -2.300   1.723  0.00  0.00     0.000 A 
HETATM   24  C   UNK N   1       0.398  -1.299   1.607  0.00  0.00     0.001 A 
HETATM   25  C   UNK N   1       0.560  -0.284   0.663  0.00  0.00     0.007 A 
ENDBRANCH  19  20
ENDBRANCH  18  19
BRANCH  18  26
HETATM   26  O   UNK N   1      -0.336   1.638  -1.686  0.00  0.00    -0.390 OA
HETATM   27  C   UNK N   1      -1.279   1.543  -0.647  0.00  0.00     0.202 C 
ENDBRANCH  18  26
ENDBRANCH  16  18
ENDBRANCH   2  16
TORSDOF 11
