REMARK  19 active torsions:
REMARK  status: ('A' for Active; 'I' for Inactive)
REMARK    1  A    between atoms: C_3  and  C_2 
REMARK    2  A    between atoms: C_4  and  C_3 
REMARK    3  A    between atoms: C_5  and  C_4 
REMARK    4  A    between atoms: C_6  and  C_5 
REMARK    5  A    between atoms: C_7  and  C_6 
REMARK    6  A    between atoms: C_11  and  C_7 
REMARK    7  A    between atoms: C_11  and  C_8 
REMARK    8  A    between atoms: C_12  and  C_8 
REMARK    9  A    between atoms: C_13  and  C_9 
REMARK   10  A    between atoms: O_21  and  C_9 
REMARK   11  A    between atoms: C_20  and  C_10 
REMARK   12  A    between atoms: O_22  and  C_10 
REMARK   13  A    between atoms: C_11  and  O_23 
REMARK   14  A    between atoms: C_14  and  O_24 
REMARK   15  A    between atoms: C_15  and  O_25 
REMARK   16  A    between atoms: C_16  and  O_26 
REMARK   17  A    between atoms: C_18  and  O_28 
REMARK   18  A    between atoms: C_19  and  O_31 
REMARK   19  A    between atoms: C_20  and  O_31 
ROOT
HETATM    1  C   UNK N   1      15.636   6.690  -0.178  0.00  0.00     0.179 C 
HETATM    2  C   UNK N   1      15.822   8.084   0.469  0.00  0.00     0.180 C 
HETATM    3  C   UNK N   1      14.612   8.959   0.116  0.00  0.00     0.183 C 
HETATM    4  C   UNK N   1      13.314   8.241   0.507  0.00  0.00     0.204 C 
HETATM    5  C   UNK N   1      13.300   6.854  -0.168  0.00  0.00     0.295 C 
HETATM    6  O   UNK N   1      13.239   8.088   1.896  0.00  0.00    -0.388 OA
HETATM    7  O   UNK N   1      14.422   6.102   0.279  0.00  0.00    -0.348 OA
HETATM    8  H   UNK N   1      13.122   8.080   2.859  0.00  0.00     0.210 HD
ENDROOT
BRANCH   3   9
HETATM    9  O   UNK N   1      14.698  10.195   0.762  0.00  0.00    -0.390 OA
HETATM   10  H   UNK N   1      15.471  10.572   1.210  0.00  0.00     0.210 HD
ENDBRANCH   3   9
BRANCH   5  11
HETATM   11  O   UNK N   1      12.111   6.145   0.175  0.00  0.00    -0.318 OA
BRANCH  11  12
HETATM   12  C   UNK N   1      10.936   6.448  -0.597  0.00  0.00     0.217 C 
HETATM   13  C   UNK N   1      10.001   5.203  -0.521  0.00  0.00     0.214 C 
HETATM   14  C   UNK N   1       8.983   5.655   0.492  0.00  0.00     0.181 C 
HETATM   15  C   UNK N   1       8.889   7.119   0.108  0.00  0.00     0.159 C 
HETATM   16  O   UNK N   1      10.231   7.531   0.004  0.00  0.00    -0.343 OA
BRANCH  12  17
HETATM   17  C   UNK N   1      11.186   6.792  -2.090  0.00  0.00     0.235 C 
BRANCH  17  18
HETATM   18  O   UNK N   1      11.547   8.134  -2.251  0.00  0.00    -0.395 OA
HETATM   19  H   UNK N   1      12.478   8.382  -2.362  0.00  0.00     0.209 HD
ENDBRANCH  17  18
ENDBRANCH  12  17
BRANCH  13  20
HETATM   20  O   UNK N   1       9.345   4.976  -1.743  0.00  0.00    -0.387 OA
HETATM   21  H   UNK N   1       8.983   5.289  -2.586  0.00  0.00     0.210 HD
ENDBRANCH  13  20
BRANCH  14  22
HETATM   22  O   UNK N   1       7.775   4.961   0.375  0.00  0.00    -0.390 OA
HETATM   23  H   UNK N   1       6.939   5.446   0.294  0.00  0.00     0.210 HD
ENDBRANCH  14  22
BRANCH  15  24
HETATM   24  C   UNK N   1       8.139   7.999   1.118  0.00  0.00     0.066 C 
BRANCH  24  25
HETATM   25  C   UNK N   1       6.616   7.936   0.976  0.00  0.00     0.120 C 
BRANCH  25  26
HETATM   26  C   UNK N   1       5.998   9.107   1.728  0.00  0.00     0.032 C 
BRANCH  26  27
HETATM   27  C   UNK N   1       4.483   9.174   1.552  0.00  0.00     0.002 C 
BRANCH  27  28
HETATM   28  C   UNK N   1       4.102   9.976   0.313  0.00  0.00     0.000 C 
BRANCH  28  29
HETATM   29  C   UNK N   1       4.067   9.101  -0.933  0.00  0.00     0.000 C 
BRANCH  29  30
HETATM   30  C   UNK N   1       2.668   8.571  -1.216  0.00  0.00    -0.000 C 
BRANCH  30  31
HETATM   31  C   UNK N   1       2.301   7.433  -0.281  0.00  0.00    -0.005 C 
HETATM   32  C   UNK N   1       1.396   7.945   0.822  0.00  0.00     0.005 C 
ENDBRANCH  30  31
ENDBRANCH  29  30
ENDBRANCH  28  29
ENDBRANCH  27  28
ENDBRANCH  26  27
ENDBRANCH  25  26
BRANCH  25  33
HETATM   33  O   UNK N   1       6.125   6.739   1.498  0.00  0.00    -0.395 OA
HETATM   34  H   UNK N   1       5.233   6.619   1.861  0.00  0.00     0.210 HD
ENDBRANCH  25  33
ENDBRANCH  24  25
ENDBRANCH  15  24
ENDBRANCH  11  12
ENDBRANCH   5  11
BRANCH   2  35
HETATM   35  O   UNK N   1      16.990   8.698   0.008  0.00  0.00    -0.390 OA
HETATM   36  H   UNK N   1      17.765   8.210  -0.311  0.00  0.00     0.210 HD
ENDBRANCH   2  35
BRANCH   1  37
HETATM   37  C   UNK N   1      16.783   5.751   0.190  0.00  0.00     0.198 C 
BRANCH  37  38
HETATM   38  O   UNK N   1      17.985   6.176  -0.382  0.00  0.00    -0.398 OA
HETATM   39  H   UNK N   1      18.658   5.601  -0.779  0.00  0.00     0.209 HD
ENDBRANCH  37  38
ENDBRANCH   1  37
TORSDOF 19
