REMARK  0 active torsions:
REMARK  status: ('A' for Active; 'I' for Inactive)
ROOT
HETATM    1  C   UNK N   1      -2.345   0.688   0.000  0.00  0.00     0.182 A 
HETATM    2  C   UNK N   1      -0.365  -0.101  -0.000  0.00  0.00     0.117 A 
HETATM    3  C   UNK N   1       0.798  -0.860   0.000  0.00  0.00     0.136 A 
HETATM    4  C   UNK N   1      -0.294   1.243  -0.000  0.00  0.00     0.138 A 
HETATM    5  C   UNK N   1       2.035   1.179  -0.000  0.00  0.00     0.156 A 
HETATM    6 Br   UNK N   1       3.713   2.070   0.000  0.00  0.00    -0.010 Br
HETATM    7 Cl   UNK N   1       0.768  -2.613   0.000  0.00  0.00    -0.062 Cl
HETATM    8  N   UNK N   1      -1.648  -0.484   0.000  0.00  0.00    -0.347 N 
ATOM      9  HN  UNK N   1      -2.019  -1.434   0.000  1.00  0.00     0.167 HD
HETATM   10  N   UNK N   1      -1.524   1.772  -0.000  0.00  0.00    -0.337 N 
ATOM     11  HN  UNK N   1      -1.784   2.758  -0.000  1.00  0.00     0.168 HD
HETATM   12  N   UNK N   1       1.990  -0.194  -0.000  0.00  0.00    -0.325 N 
ATOM     13  HN  UNK N   1       2.861  -0.724   0.000  1.00  0.00     0.169 HD
HETATM   14  N   UNK N   1       0.879   1.911  -0.000  0.00  0.00    -0.321 N 
HETATM   15  H   UNK N   1       0.902   2.896  -0.000  0.00  0.00     0.169 HD
ENDROOT
TORSDOF 0
