REMARK  0 active torsions:
REMARK  status: ('A' for Active; 'I' for Inactive)
REMARK       I    between atoms: N_6  and  C_8 
ROOT
HETATM    1  C   UNK N   1       3.404  -1.261   0.000  0.00  0.00     0.011 C 
HETATM    2  C   UNK N   1       2.046  -0.593  -0.000  0.00  0.00    -0.001 A 
HETATM    3  C   UNK N   1       0.832  -1.485   0.000  0.00  0.00     0.007 A 
HETATM    4  C   UNK N   1      -0.506  -0.775  -0.000  0.00  0.00     0.020 A 
HETATM    5  C   UNK N   1      -0.564   0.752   0.000  0.00  0.00     0.125 A 
HETATM    6  N   UNK N   1       0.675   1.521   0.000  0.00  0.00    -0.352 N 
HETATM    7  C   UNK N   1       1.999   0.920   0.000  0.00  0.00     0.130 A 
HETATM    8  C   UNK N   1       0.586   2.885   0.000  0.00  0.00     0.215 C 
HETATM    9  C   UNK N   1      -0.746   3.575  -0.000  0.00  0.00     0.117 C 
HETATM   10  O   UNK N   1       1.597   3.573   0.000  0.00  0.00    -0.274 OA
ENDROOT
TORSDOF 0
