REMARK  6 active torsions:
REMARK  status: ('A' for Active; 'I' for Inactive)
REMARK    1  A    between atoms: O_1  and  C_2 
REMARK    2  A    between atoms: C_2  and  C_3 
REMARK    3  A    between atoms: C_3  and  O_4 
REMARK    4  A    between atoms: C_3  and  C_5 
REMARK    5  A    between atoms: C_5  and  S_6 
REMARK    6  A    between atoms: S_6  and  O_7 
ROOT
HETATM    1  C   UNK N   1       1.187   0.803  -0.240  0.00  0.00     0.153 C 
ENDROOT
BRANCH   1   2
HETATM    2  C   UNK N   1      -0.099   1.490   0.188  0.00  0.00     0.196 C 
BRANCH   2   3
HETATM    3  O   UNK N   1      -1.205   0.771  -0.271  0.00  0.00    -0.398 OA
HETATM    4  H   UNK N   1      -2.021   1.187  -0.590  0.00  0.00     0.209 HD
ENDBRANCH   2   3
ENDBRANCH   1   2
BRANCH   1   5
HETATM    5  O   UNK N   1       1.195  -0.505   0.242  0.00  0.00    -0.393 OA
HETATM    6  H   UNK N   1       0.410  -0.965   0.577  0.00  0.00     0.210 HD
ENDBRANCH   1   5
BRANCH   1   7
HETATM    7  C   UNK N   1       2.364   1.567   0.344  0.00  0.00     0.138 C 
BRANCH   7   8
HETATM    8  S   UNK N   1       3.939   0.791  -0.135  0.00  0.00    -0.013 SA
BRANCH   8   9
HETATM    9  O   UNK N   1       4.764   2.296  -0.127  0.00  0.00    -0.329 OA
HETATM   10  H   UNK N   1       5.734   2.317  -0.123  0.00  0.00     0.227 HD
ENDBRANCH   8   9
ENDBRANCH   7   8
ENDBRANCH   1   7
TORSDOF 6
