REMARK  10 active torsions:
REMARK  status: ('A' for Active; 'I' for Inactive)
REMARK    1  A    between atoms: C_2  and  O_1 
REMARK    2  A    between atoms: C_2  and  C_3 
REMARK    3  A    between atoms: C_2  and  C_9 
REMARK    4  A    between atoms: C_3  and  O_4 
REMARK    5  A    between atoms: O_4  and  P_5 
REMARK    6  A    between atoms: P_5  and  O_6 
REMARK    7  A    between atoms: P_5  and  O_7 
REMARK    8  A    between atoms: C_9  and  O_10 
REMARK    9  A    between atoms: C_9  and  C_11 
REMARK   10  A    between atoms: C_11  and  O_12 
ROOT
HETATM    1  C   UNK N   1       4.120   0.771   0.410  0.00  0.00     0.181 C 
ENDROOT
BRANCH   1   2
HETATM    2  O   UNK N   1       4.644  -0.520   0.342  0.00  0.00    -0.390 OA
HETATM    3  H   UNK N   1       4.049  -1.285   0.294  0.00  0.00     0.210 HD
ENDBRANCH   1   2
BRANCH   1   4
HETATM    4  C   UNK N   1       2.699   0.725  -0.132  0.00  0.00     0.215 C 
BRANCH   4   5
HETATM    5  O   UNK N   1       1.884   1.651   0.526  0.00  0.00    -0.294 OA
BRANCH   5   6
HETATM    6  P   UNK N   1       0.743   2.185  -0.674  0.00  0.00     0.390 P 
HETATM    7  O   UNK N   1       1.158   3.515   0.009  0.00  0.00    -0.632 OA
BRANCH   6   8
HETATM    8  O   UNK N   1      -0.780   2.871  -0.201  0.00  0.00    -0.307 OA
HETATM    9  H   UNK N   1      -0.874   3.799   0.063  0.00  0.00     0.222 HD
ENDBRANCH   6   8
BRANCH   6  10
HETATM   10  O   UNK N   1      -0.080   1.166   0.470  0.00  0.00    -0.307 OA
HETATM   11  H   UNK N   1      -0.801   1.279   1.108  0.00  0.00     0.222 HD
ENDBRANCH   6  10
ENDBRANCH   5   6
ENDBRANCH   4   5
ENDBRANCH   1   4
BRANCH   1  12
HETATM   12  C   UNK N   1       4.985   1.745  -0.403  0.00  0.00     0.246 C 
BRANCH  12  13
HETATM   13  O   UNK N   1       4.518   3.051  -0.227  0.00  0.00    -0.382 OA
HETATM   14  H   UNK N   1       5.141   3.784  -0.105  0.00  0.00     0.210 HD
ENDBRANCH  12  13
BRANCH  12  15
HETATM   15  C   UNK N   1       6.447   1.664  -0.036  0.00  0.00     0.172 C 
HETATM   16  O   UNK N   1       7.063   0.625  -0.209  0.00  0.00    -0.648 OA
BRANCH  15  17
HETATM   17  O   UNK N   1       7.092   2.743   0.449  0.00  0.00    -0.774 OA
HETATM   18  H   UNK N   1       7.967   2.730   0.786  0.00  0.00     0.167 HD
ENDBRANCH  15  17
ENDBRANCH  12  15
ENDBRANCH   1  12
TORSDOF 10
