REMARK  3 active torsions:
REMARK  status: ('A' for Active; 'I' for Inactive)
REMARK    1  A    between atoms: O_1  and  B_2 
REMARK    2  A    between atoms: B_2  and  O_3 
REMARK    3  A    between atoms: B_2  and  C_4 
ROOT
HETATM    1  C   UNK N   1       0.788   1.537   0.000  0.00  0.00    -0.032 A 
HETATM    2  C   UNK N   1       2.006   0.846   0.000  0.00  0.00     0.001 A 
HETATM    3  C   UNK N   1       2.019  -0.553   0.000  0.00  0.00    -0.000 A 
HETATM    4  C   UNK N   1       0.814  -1.264  -0.000  0.00  0.00     0.000 A 
HETATM    5  C   UNK N   1      -0.402  -0.576  -0.000  0.00  0.00    -0.000 A 
HETATM    6  C   UNK N   1      -0.415   0.821  -0.000  0.00  0.00     0.001 A 
ENDROOT
BRANCH   1   7
HETATM    7  B   UNK N   1       0.758   3.102   0.000  0.00  0.00     0.529 B 
BRANCH   7   8
HETATM    8  O   UNK N   1      -0.522   3.806   0.000  0.00  0.00    -0.433 OA
HETATM    9  H   UNK N   1      -0.542   4.776   0.000  0.00  0.00     0.185 HD
ENDBRANCH   7   8
BRANCH   7  10
HETATM   10  O   UNK N   1       2.003   3.867  -0.000  0.00  0.00    -0.433 OA
HETATM   11  H   UNK N   1       2.856   3.405  -0.000  0.00  0.00     0.185 HD
ENDBRANCH   7  10
ENDBRANCH   1   7
TORSDOF 3
