REMARK  3 active torsions:
REMARK  status: ('A' for Active; 'I' for Inactive)
REMARK    1  A    between atoms: O_12  and  C_4 
REMARK    2  A    between atoms: O_13  and  C_6 
REMARK    3  A    between atoms: S_15  and  O_14 
ROOT
HETATM    1  C   UNK N   1       0.740  -1.266   0.000  0.00  0.00     0.203 A 
HETATM    2  C   UNK N   1       1.060  -0.557   0.000  0.00  0.00     0.179 A 
HETATM    3  C   UNK N   1       0.500  -0.117   0.000  0.00  0.00     0.181 A 
HETATM    4  C   UNK N   1       0.640  -0.930   0.000  0.00  0.00     0.188 A 
HETATM    5  C   UNK N   1       1.611  -0.930   0.000  0.00  0.00     0.230 A 
HETATM    6  C   UNK N   1       2.127  -1.359   0.000  0.00  0.00     0.290 A 
HETATM    7  O   UNK N   1       0.077   0.591   0.000  0.00  0.00    -0.390 OA
HETATM    8  O   UNK N   1       2.539  -2.074   0.000  0.00  0.00    -0.368 OA
HETATM    9  O   UNK N   1       2.395  -2.968   0.000  0.00  0.00    -0.274 OA
HETATM   10  O   UNK N   1       1.232  -2.869   0.000  0.00  0.00    -0.579 OA
HETATM   11  O   UNK N   1       2.664  -2.535   0.000  0.00  0.00    -0.579 OA
HETATM   12  O   UNK N   1       0.120  -1.643   0.000  0.00  0.00    -0.378 OA
HETATM   13  O   UNK N   1       1.989  -0.542   0.000  0.00  0.00    -0.349 OA
HETATM   14  O   UNK N   1       1.331  -1.706   0.000  0.00  0.00    -0.251 OA
HETATM   15  S   UNK N   1       1.863  -2.337   0.000  0.00  0.00     0.241 SA
HETATM   16  H   UNK N   1       0.550   1.438   0.000  0.00  0.00     0.210 HD
HETATM   17  H   UNK N   1       2.053  -2.914   0.000  0.00  0.00     0.212 HD
HETATM   18  H   UNK N   1       2.065  -3.880   0.000  0.00  0.00     0.234 HD
ENDROOT
TORSDOF 3
