REMARK  5 active torsions:
REMARK  status: ('A' for Active; 'I' for Inactive)
REMARK    1  A    between atoms: C_4  and  C_2 
REMARK    2  A    between atoms: O_6  and  C_2 
REMARK    3  A    between atoms: C_4  and  C_3 
REMARK    4  A    between atoms: C_3  and  O_7 
REMARK    5  A    between atoms: C_4  and  N_5 
ROOT
HETATM    1  C   UNK N   1       1.500  -0.943   0.298  0.00  0.00     0.126 C 
ENDROOT
BRANCH   1   2
HETATM    2  C   UNK N   1       0.777  -2.290   0.330  0.00  0.00     0.191 C 
BRANCH   2   3
HETATM    3  O   UNK N   1       0.213  -2.591  -0.912  0.00  0.00    -0.399 OA
HETATM    4  H   UNK N   1      -0.164  -2.356  -1.774  0.00  0.00     0.209 HD
ENDBRANCH   2   3
ENDBRANCH   1   2
BRANCH   1   5
HETATM    5  C   UNK N   1       0.546   0.204  -0.076  0.00  0.00     0.138 C 
HETATM    6  C   UNK N   1       1.261   1.544   0.010  0.00  0.00     0.041 C 
BRANCH   5   7
HETATM    7  O   UNK N   1      -0.545   0.225   0.791  0.00  0.00    -0.394 OA
HETATM    8  H   UNK N   1      -0.913   0.890   1.394  0.00  0.00     0.210 HD
ENDBRANCH   5   7
ENDBRANCH   1   5
BRANCH   1   9
HETATM    9  N   UNK N   1       2.606  -1.009  -0.642  0.00  0.00    -0.422 N 
HETATM   10  H   UNK N   1       2.954  -1.704  -1.302  0.00  0.00     0.150 HD
HETATM   11  H   UNK N   1       3.168  -0.157  -0.642  0.00  0.00     0.150 HD
ENDBRANCH   1   9
TORSDOF 5
