REMARK  9 active torsions:
REMARK  status: ('A' for Active; 'I' for Inactive)
REMARK    1  A    between atoms: O_1  and  C_2 
REMARK    2  A    between atoms: C_2  and  C_3 
REMARK    3  A    between atoms: C_3  and  O_4 
REMARK    4  A    between atoms: C_3  and  C_5 
REMARK    5  A    between atoms: C_5  and  O_6 
REMARK    6  A    between atoms: C_5  and  C_7 
REMARK    7  A    between atoms: C_7  and  O_8 
REMARK    8  A    between atoms: C_7  and  C_9 
REMARK    9  A    between atoms: C_9  and  O_10 
ROOT
HETATM    1  C   UNK N   1       3.953   1.631   0.295  0.00  0.00     0.179 C 
ENDROOT
BRANCH   1   2
HETATM    2  C   UNK N   1       2.682   2.272  -0.291  0.00  0.00     0.173 C 
BRANCH   2   3
HETATM    3  C   UNK N   1       1.419   1.687   0.328  0.00  0.00     0.198 C 
BRANCH   3   4
HETATM    4  O   UNK N   1       1.172   0.407  -0.169  0.00  0.00    -0.398 OA
HETATM    5  H   UNK N   1       0.316   0.111  -0.516  0.00  0.00     0.209 HD
ENDBRANCH   3   4
ENDBRANCH   2   3
BRANCH   2   6
HETATM    6  O   UNK N   1       2.674   3.648  -0.047  0.00  0.00    -0.391 OA
HETATM    7  H   UNK N   1       3.498   4.130   0.122  0.00  0.00     0.210 HD
ENDBRANCH   2   6
ENDBRANCH   1   2
BRANCH   1   8
HETATM    8  O   UNK N   1       3.930   0.252   0.057  0.00  0.00    -0.390 OA
HETATM    9  H   UNK N   1       3.095  -0.212  -0.109  0.00  0.00     0.210 HD
ENDBRANCH   1   8
BRANCH   1  10
HETATM   10  C   UNK N   1       5.249   2.225  -0.288  0.00  0.00     0.173 C 
BRANCH  10  11
HETATM   11  O   UNK N   1       5.300   3.602  -0.061  0.00  0.00    -0.391 OA
HETATM   12  H   UNK N   1       6.146   4.050   0.096  0.00  0.00     0.210 HD
ENDBRANCH  10  11
BRANCH  10  13
HETATM   13  C   UNK N   1       6.485   1.606   0.350  0.00  0.00     0.198 C 
BRANCH  13  14
HETATM   14  O   UNK N   1       6.724   0.335  -0.174  0.00  0.00    -0.398 OA
HETATM   15  H   UNK N   1       6.042  -0.250  -0.537  0.00  0.00     0.209 HD
ENDBRANCH  13  14
ENDBRANCH  10  13
ENDBRANCH   1  10
TORSDOF 9
