REMARK WARNING: 32 MAX_TORS EXCEEDED!!!
REMARK  36 active torsions:
REMARK  status: ('A' for Active; 'I' for Inactive)
REMARK    1  A    between atoms: C_14  and  C_4 
REMARK    2  A    between atoms: C_16  and  C_4 
REMARK    3  A    between atoms: C_15  and  C_5 
REMARK    4  A    between atoms: C_17  and  C_5 
REMARK    5  A    between atoms: C_11  and  C_6 
REMARK    6  A    between atoms: C_22  and  C_6 
REMARK    7  A    between atoms: C_32  and  C_11 
REMARK    8  A    between atoms: N_43  and  C_14 
REMARK    9  A    between atoms: N_45  and  C_15 
REMARK   10  A    between atoms: N_47  and  C_16 
REMARK   11  A    between atoms: N_47  and  C_17 
REMARK   12  A    between atoms: C_29  and  C_20 
REMARK   13  A    between atoms: O_48  and  C_20 
REMARK   14  A    between atoms: C_30  and  C_21 
REMARK   15  A    between atoms: O_49  and  C_21 
REMARK   16  A    between atoms: C_26  and  C_22 
REMARK   17  A    between atoms: C_24  and  O_50 
REMARK   18  A    between atoms: C_33  and  C_29 
REMARK   19  A    between atoms: C_29  and  O_51 
REMARK   20  A    between atoms: C_34  and  C_30 
REMARK   21  A    between atoms: C_30  and  O_52 
REMARK   22  A    between atoms: C_31  and  O_53 
REMARK       I    between atoms: N_47  and  C_32 
REMARK   23  A    between atoms: C_35  and  C_33 
REMARK   24  A    between atoms: C_33  and  O_55 
REMARK   25  A    between atoms: C_36  and  C_34 
REMARK   26  A    between atoms: C_34  and  O_56 
REMARK   27  A    between atoms: C_37  and  C_35 
REMARK   28  A    between atoms: C_35  and  O_57 
REMARK   29  A    between atoms: C_38  and  C_36 
REMARK   30  A    between atoms: C_36  and  O_58 
REMARK   31  A    between atoms: C_39  and  C_37 
REMARK   32  A    between atoms: C_37  and  O_59 
REMARK   33  A    between atoms: C_40  and  C_38 
REMARK   34  A    between atoms: C_38  and  O_60 
REMARK   35  A    between atoms: O_61  and  C_39 
REMARK   36  A    between atoms: O_62  and  C_40 
ROOT
HETATM    1  C   UNK N   1      -0.294   7.931   0.103  0.00  0.00     0.219 C 
HETATM    2  N   UNK N   1      -1.557   7.413   0.185  0.00  0.00    -0.352 N 
HETATM    3  O   UNK N   1       0.195   8.484   1.073  0.00  0.00    -0.273 OA
ENDROOT
BRANCH   2   4
HETATM    4  C   UNK N   1      -2.315   7.701   1.383  0.00  0.00     0.127 C 
BRANCH   4   5
HETATM    5  C   UNK N   1      -3.570   8.504   1.005  0.00  0.00     0.039 C 
BRANCH   5   6
HETATM    6  C   UNK N   1      -3.315   9.879   0.356  0.00  0.00     0.123 C 
BRANCH   6   7
HETATM    7  N   UNK N   1      -2.610   9.825  -0.923  0.00  0.00    -0.372 N 
HETATM    8  C   UNK N   1      -1.500  10.471  -1.142  0.00  0.00     0.143 C 
ATOM      9  HN  UNK N   1      -3.002   9.257  -1.674  1.00  0.00     0.161 HD
BRANCH   8  10
HETATM   10  C   UNK N   1      -0.879  11.316  -0.044  0.00  0.00     0.223 C 
BRANCH  10  11
HETATM   11  C   UNK N   1       0.653  11.592   0.045  0.00  0.00     0.186 C 
BRANCH  11  12
HETATM   12  C   UNK N   1       1.319  12.803  -0.653  0.00  0.00     0.180 C 
BRANCH  12  13
HETATM   13  C   UNK N   1       2.667  13.092   0.081  0.00  0.00     0.173 C 
BRANCH  13  14
HETATM   14  C   UNK N   1       3.373  14.357  -0.388  0.00  0.00     0.198 C 
BRANCH  14  15
HETATM   15  O   UNK N   1       3.947  14.174  -1.644  0.00  0.00    -0.398 OA
HETATM   16  H   UNK N   1       4.037  13.764  -2.518  0.00  0.00     0.209 HD
ENDBRANCH  14  15
ENDBRANCH  13  14
BRANCH  13  17
HETATM   17  O   UNK N   1       3.545  12.008  -0.012  0.00  0.00    -0.391 OA
HETATM   18  H   UNK N   1       3.199  11.104  -0.076  0.00  0.00     0.210 HD
ENDBRANCH  13  17
ENDBRANCH  12  13
BRANCH  12  19
HETATM   19  O   UNK N   1       0.506  13.930  -0.525  0.00  0.00    -0.390 OA
HETATM   20  H   UNK N   1       0.902  14.811  -0.435  0.00  0.00     0.210 HD
ENDBRANCH  12  19
ENDBRANCH  11  12
BRANCH  11  21
HETATM   21  O   UNK N   1       1.384  10.446  -0.254  0.00  0.00    -0.390 OA
HETATM   22  H   UNK N   1       0.947   9.605  -0.463  0.00  0.00     0.210 HD
ENDBRANCH  11  21
ENDBRANCH  10  11
BRANCH  10  23
HETATM   23  O   UNK N   1      -1.628  12.480   0.135  0.00  0.00    -0.385 OA
HETATM   24  H   UNK N   1      -1.189  13.335   0.260  0.00  0.00     0.210 HD
ENDBRANCH  10  23
ENDBRANCH   8  10
BRANCH   8  25
HETATM   25  O   UNK N   1      -0.885  10.344  -2.335  0.00  0.00    -0.348 OA
HETATM   26  H   UNK N   1      -0.748   9.930  -3.164  0.00  0.00     0.219 HD
ENDBRANCH   8  25
ENDBRANCH   6   7
ENDBRANCH   5   6
ENDBRANCH   4   5
ENDBRANCH   2   4
BRANCH   2  27
HETATM   27  C   UNK N   1      -2.294   6.740  -0.876  0.00  0.00     0.127 C 
BRANCH  27  28
HETATM   28  C   UNK N   1      -1.601   6.312  -2.174  0.00  0.00     0.039 C 
BRANCH  28  29
HETATM   29  C   UNK N   1      -1.536   4.787  -2.310  0.00  0.00     0.123 C 
BRANCH  29  30
HETATM   30  N   UNK N   1      -2.688   4.216  -1.663  0.00  0.00    -0.372 N 
HETATM   31  C   UNK N   1      -2.598   3.666  -0.503  0.00  0.00     0.143 C 
ATOM     32  HN  UNK N   1      -3.593   4.249  -2.133  1.00  0.00     0.161 HD
BRANCH  31  33
HETATM   33  C   UNK N   1      -3.851   3.309   0.232  0.00  0.00     0.223 C 
BRANCH  33  34
HETATM   34  C   UNK N   1      -4.682   2.277  -0.550  0.00  0.00     0.186 C 
BRANCH  34  35
HETATM   35  C   UNK N   1      -6.046   1.989   0.123  0.00  0.00     0.180 C 
BRANCH  35  36
HETATM   36  C   UNK N   1      -6.868   0.958  -0.675  0.00  0.00     0.173 C 
BRANCH  36  37
HETATM   37  C   UNK N   1      -8.268   0.781  -0.093  0.00  0.00     0.198 C 
BRANCH  37  38
HETATM   38  O   UNK N   1      -8.209   0.318   1.223  0.00  0.00    -0.398 OA
HETATM   39  H   UNK N   1      -8.467   0.121   2.137  0.00  0.00     0.209 HD
ENDBRANCH  37  38
ENDBRANCH  36  37
BRANCH  36  40
HETATM   40  O   UNK N   1      -6.224  -0.281  -0.697  0.00  0.00    -0.391 OA
HETATM   41  H   UNK N   1      -6.746  -1.099  -0.713  0.00  0.00     0.210 HD
ENDBRANCH  36  40
ENDBRANCH  35  36
BRANCH  35  42
HETATM   42  O   UNK N   1      -6.788   3.173   0.199  0.00  0.00    -0.390 OA
HETATM   43  H   UNK N   1      -6.334   4.029   0.252  0.00  0.00     0.210 HD
ENDBRANCH  35  42
ENDBRANCH  34  35
BRANCH  34  44
HETATM   44  O   UNK N   1      -3.935   1.098  -0.656  0.00  0.00    -0.390 OA
HETATM   45  H   UNK N   1      -4.384   0.242  -0.729  0.00  0.00     0.210 HD
ENDBRANCH  34  44
ENDBRANCH  33  34
BRANCH  33  46
HETATM   46  O   UNK N   1      -4.573   4.492   0.415  0.00  0.00    -0.385 OA
HETATM   47  H   UNK N   1      -4.112   5.336   0.542  0.00  0.00     0.210 HD
ENDBRANCH  33  46
ENDBRANCH  31  33
BRANCH  31  48
HETATM   48  O   UNK N   1      -1.398   3.510   0.097  0.00  0.00    -0.348 OA
HETATM   49  H   UNK N   1      -1.075   2.735   0.513  0.00  0.00     0.219 HD
ENDBRANCH  31  48
ENDBRANCH  29  30
ENDBRANCH  28  29
ENDBRANCH  27  28
ENDBRANCH   2  27
BRANCH   1  50
HETATM   50  C   UNK N   1       0.475   7.997  -1.187  0.00  0.00     0.103 C 
BRANCH  50  51
HETATM   51  C   UNK N   1       1.151   6.744  -1.694  0.00  0.00     0.014 C 
BRANCH  51  52
HETATM   52  C   UNK N   1       1.671   5.747  -0.676  0.00  0.00    -0.013 C 
HETATM   53  C   UNK N   1       2.427   4.749  -1.529  0.00  0.00     0.010 C 
BRANCH  52  54
HETATM   54  C   UNK N   1       2.435   6.386   0.547  0.00  0.00     0.000 C 
HETATM   55  C   UNK N   1       3.028   7.804   0.260  0.00  0.00     0.006 C 
HETATM   56  C   UNK N   1       4.555   7.684   0.212  0.00  0.00     0.006 C 
HETATM   57  C   UNK N   1       4.718   6.195   0.084  0.00  0.00     0.001 C 
HETATM   58  C   UNK N   1       6.035   5.506   0.334  0.00  0.00    -0.005 C 
HETATM   59  C   UNK N   1       3.664   5.638   1.080  0.00  0.00    -0.010 C 
HETATM   60  C   UNK N   1       7.260   6.129  -0.327  0.00  0.00     0.006 C 
HETATM   61  C   UNK N   1       5.865   4.045  -0.210  0.00  0.00     0.001 C 
HETATM   62  C   UNK N   1       8.491   5.334   0.132  0.00  0.00     0.006 C 
HETATM   63  C   UNK N   1       8.366   3.847  -0.242  0.00  0.00    -0.004 C 
HETATM   64  C   UNK N   1       9.565   3.064   0.298  0.00  0.00     0.037 C 
HETATM   65  C   UNK N   1       7.050   3.202   0.286  0.00  0.00    -0.036 C 
HETATM   66  C   UNK N   1       9.496   1.588  -0.111  0.00  0.00     0.118 C 
HETATM   67  C   UNK N   1       8.156   0.949   0.261  0.00  0.00     0.032 C 
HETATM   68  C   UNK N   1       6.975   1.770  -0.259  0.00  0.00     0.012 C 
HETATM   69  C   UNK N   1       7.021   3.141   1.823  0.00  0.00     0.016 C 
HETATM   70  C   UNK N   1       4.465   3.411   0.063  0.00  0.00     0.038 C 
HETATM   71  C   UNK N   1       3.709   4.078   1.209  0.00  0.00     0.127 C 
HETATM   72  C   UNK N   1       3.913   6.162   2.517  0.00  0.00     0.018 C 
BRANCH  66  73
HETATM   73  O   UNK N   1      10.515   0.895   0.539  0.00  0.00    -0.396 OA
HETATM   74  H   UNK N   1      10.451   0.039   0.992  0.00  0.00     0.210 HD
ENDBRANCH  66  73
BRANCH  71  75
HETATM   75  O   UNK N   1       2.434   3.532   1.374  0.00  0.00    -0.395 OA
HETATM   76  H   UNK N   1       1.663   4.109   1.488  0.00  0.00     0.210 HD
ENDBRANCH  71  75
ENDBRANCH  52  54
ENDBRANCH  51  52
ENDBRANCH  50  51
ENDBRANCH   1  50
TORSDOF 36
