REMARK  5 active torsions:
REMARK  status: ('A' for Active; 'I' for Inactive)
REMARK    1  A    between atoms: C_2  and  C_3 
REMARK    2  A    between atoms: C_3  and  C_5 
REMARK    3  A    between atoms: C_5  and  N_6 
REMARK    4  A    between atoms: C_5  and  C_7 
REMARK    5  A    between atoms: C_7  and  O_8 
ROOT
HETATM    1  C   UNK N   1       1.856   1.126   0.427  0.00  0.00     0.177 C 
ENDROOT
BRANCH   1   2
HETATM    2  C   UNK N   1       0.728   0.370  -0.310  0.00  0.00     0.014 C 
HETATM    3  C   UNK N   1       0.852  -1.130  -0.100  0.00  0.00     0.012 C 
BRANCH   2   4
HETATM    4  C   UNK N   1      -0.651   0.757   0.225  0.00  0.00     0.002 C 
HETATM    5  C   UNK N   1      -1.103   2.123  -0.260  0.00  0.00     0.005 C 
ENDBRANCH   2   4
ENDBRANCH   1   2
BRANCH   1   6
HETATM    6  N   UNK N   1       1.723   2.562   0.210  0.00  0.00    -0.417 N 
HETATM    7  H   UNK N   1       2.546   3.145   0.058  0.00  0.00     0.150 HD
HETATM    8  H   UNK N   1       0.796   2.988   0.210  0.00  0.00     0.150 HD
ENDBRANCH   1   6
BRANCH   1   9
HETATM    9  C   UNK N   1       3.252   0.697   0.037  0.00  0.00     0.163 C 
HETATM   10  O   UNK N   1       3.591  -0.476   0.161  0.00  0.00    -0.648 OA
BRANCH   9  11
HETATM   11  O   UNK N   1       4.155   1.597  -0.391  0.00  0.00    -0.775 OA
HETATM   12  H   UNK N   1       5.013   1.366  -0.688  0.00  0.00     0.167 HD
ENDBRANCH   9  11
ENDBRANCH   1   9
TORSDOF 5
