REMARK  1 active torsions:
REMARK  status: ('A' for Active; 'I' for Inactive)
REMARK    1  A    between atoms: C_4  and  N_2 
ROOT
HETATM    1  C   UNK N   1       0.657  -0.791  -0.000  0.00  0.00     0.082 A 
HETATM    2  C   UNK N   1      -0.723  -0.140   0.000  0.00  0.00     0.029 A 
HETATM    3  C   UNK N   1      -0.739   1.388  -0.000  0.00  0.00     0.035 A 
HETATM    4  C   UNK N   1       0.582   2.110  -0.000  0.00  0.00    -0.087 A 
HETATM    5  C   UNK N   1       0.563   3.599  -0.000  0.00  0.00     0.043 C 
HETATM    6  C   UNK N   1       1.769   1.489   0.000  0.00  0.00    -0.022 A 
HETATM    7  C   UNK N   1       1.959   0.003   0.000  0.00  0.00     0.052 A 
ENDROOT
BRANCH   1   8
HETATM    8  N   UNK N   1       0.731  -2.256   0.000  0.00  0.00    -0.416 N 
HETATM    9  C   UNK N   1       2.010  -2.949  -0.000  0.00  0.00     0.143 C 
HETATM   10  C   UNK N   1      -0.477  -3.068  -0.000  0.00  0.00     0.143 C 
ENDBRANCH   1   8
TORSDOF 1
