REMARK WARNING: 32 MAX_TORS EXCEEDED!!!
REMARK  40 active torsions:
REMARK  status: ('A' for Active; 'I' for Inactive)
REMARK    1  A    between atoms: C_6  and  C_5 
REMARK    2  A    between atoms: C_9  and  C_5 
REMARK    3  A    between atoms: C_15  and  C_6 
REMARK    4  A    between atoms: C_26  and  C_9 
REMARK    5  A    between atoms: C_12  and  C_10 
REMARK    6  A    between atoms: C_22  and  C_10 
REMARK    7  A    between atoms: C_13  and  C_11 
REMARK    8  A    between atoms: C_27  and  C_11 
REMARK    9  A    between atoms: N_38  and  C_12 
REMARK   10  A    between atoms: N_42  and  C_13 
REMARK   11  A    between atoms: C_16  and  C_14 
REMARK   12  A    between atoms: N_40  and  C_14 
REMARK   13  A    between atoms: S_72  and  C_15 
REMARK   14  A    between atoms: S_72  and  C_16 
REMARK   15  A    between atoms: C_25  and  C_18 
REMARK   16  A    between atoms: O_64  and  C_18 
REMARK   17  A    between atoms: C_36  and  C_19 
REMARK   18  A    between atoms: O_65  and  C_19 
REMARK   19  A    between atoms: N_38  and  C_26 
REMARK   20  A    between atoms: O_52  and  C_26 
REMARK   21  A    between atoms: N_40  and  C_27 
REMARK   22  A    between atoms: O_53  and  C_27 
REMARK   23  A    between atoms: C_29  and  O_54 
REMARK   24  A    between atoms: C_30  and  O_67 
REMARK   25  A    between atoms: C_34  and  C_31 
REMARK   26  A    between atoms: C_36  and  C_31 
REMARK   27  A    between atoms: C_31  and  O_55 
REMARK   28  A    between atoms: N_37  and  C_32 
REMARK   29  A    between atoms: N_42  and  C_34 
REMARK   30  A    between atoms: O_56  and  C_34 
REMARK   31  A    between atoms: C_35  and  N_51 
REMARK   32  A    between atoms: P_69  and  O_57 
REMARK   33  A    between atoms: P_69  and  O_58 
REMARK   34  A    between atoms: P_70  and  O_60 
REMARK   35  A    between atoms: P_71  and  O_62 
REMARK   36  A    between atoms: P_70  and  O_64 
REMARK   37  A    between atoms: P_71  and  O_65 
REMARK   38  A    between atoms: P_69  and  O_67 
REMARK   39  A    between atoms: P_70  and  O_68 
REMARK   40  A    between atoms: P_71  and  O_68 
ROOT
HETATM    1  C   UNK N   1      -7.120  12.241   0.764  0.00  0.00     0.192 C 
ENDROOT
BRANCH   1   2
HETATM    2  C   UNK N   1      -7.690  13.495   1.465  0.00  0.00     0.008 C 
HETATM    3  C   UNK N   1      -8.830  13.075   2.383  0.00  0.00     0.020 C 
HETATM    4  C   UNK N   1      -6.594  14.068   2.350  0.00  0.00     0.020 C 
BRANCH   2   5
HETATM    5  C   UNK N   1      -8.199  14.599   0.486  0.00  0.00     0.202 C 
BRANCH   5   6
HETATM    6  C   UNK N   1      -7.110  15.102  -0.421  0.00  0.00     0.141 C 
BRANCH   6   7
HETATM    7  N   UNK N   1      -6.549  14.291  -1.245  0.00  0.00    -0.372 N 
ATOM      8  HN  UNK N   1      -6.905  13.338  -1.316  1.00  0.00     0.161 HD
BRANCH   7   9
HETATM    9  C   UNK N   1      -5.440  14.680  -2.070  0.00  0.00     0.129 C 
BRANCH   9  10
HETATM   10  C   UNK N   1      -4.268  13.787  -1.710  0.00  0.00     0.103 C 
BRANCH  10  11
HETATM   11  C   UNK N   1      -3.691  14.085  -0.341  0.00  0.00     0.112 C 
BRANCH  11  12
HETATM   12  N   UNK N   1      -2.928  13.234   0.256  0.00  0.00    -0.374 N 
ATOM     13  HN  UNK N   1      -2.530  13.480   1.162  1.00  0.00     0.161 HD
BRANCH  12  14
HETATM   14  C   UNK N   1      -2.618  11.943  -0.314  0.00  0.00     0.131 C 
BRANCH  14  15
HETATM   15  C   UNK N   1      -1.217  11.936  -0.905  0.00  0.00     0.093 C 
BRANCH  15  16
HETATM   16  S   UNK N   1      -1.112  13.097  -2.306  0.00  0.00    -0.168 SA
BRANCH  16  17
HETATM   17  C   UNK N   1       0.346  13.938  -1.631  0.00  0.00     0.074 C 
BRANCH  17  18
HETATM   18  C   UNK N   1      -0.022  14.979  -0.589  0.00  0.00     0.010 C 
BRANCH  18  19
HETATM   19  C   UNK N   1       0.795  14.773   0.680  0.00  0.00     0.009 C 
BRANCH  19  20
HETATM   20  C   UNK N   1       2.290  15.097   0.547  0.00  0.00     0.083 C 
BRANCH  20  21
HETATM   21  C   UNK N   1       3.121  14.180  -0.331  0.00  0.00     0.111 C 
BRANCH  21  22
HETATM   22  N   UNK N   1       2.984  12.895  -0.346  0.00  0.00    -0.374 N 
ATOM     23  HN  UNK N   1       3.617  12.359  -0.939  1.00  0.00     0.161 HD
BRANCH  22  24
HETATM   24  C   UNK N   1       1.996  12.161   0.417  0.00  0.00     0.126 C 
BRANCH  24  25
HETATM   25  C   UNK N   1       2.615  11.146   1.373  0.00  0.00     0.060 C 
BRANCH  25  26
HETATM   26  C   UNK N   1       3.823  10.473   0.807  0.00  0.00    -0.029 A 
HETATM   27  C   UNK N   1       5.094  11.030   0.719  0.00  0.00     0.096 A 
HETATM   28  N   UNK N   1       5.944  10.134   0.158  0.00  0.00    -0.365 N 
HETATM   29  C   UNK N   1       5.212   9.035  -0.097  0.00  0.00     0.042 A 
HETATM   30  H   UNK N   1       6.903  10.262  -0.025  0.00  0.00     0.165 HD
HETATM   31  C   UNK N   1       5.658   7.851  -0.675  0.00  0.00     0.030 A 
HETATM   32  C   UNK N   1       3.912   9.208   0.288  0.00  0.00    -0.002 A 
HETATM   33  C   UNK N   1       4.720   6.818  -0.858  0.00  0.00     0.002 A 
HETATM   34  C   UNK N   1       3.375   6.996  -0.462  0.00  0.00     0.001 A 
HETATM   35  C   UNK N   1       2.957   8.207   0.121  0.00  0.00     0.014 A 
ENDBRANCH  25  26
ENDBRANCH  24  25
ENDBRANCH  22  24
ENDBRANCH  21  22
BRANCH  21  36
HETATM   36  O   UNK N   1       4.073  14.734  -1.105  0.00  0.00    -0.350 OA
HETATM   37  H   UNK N   1       4.738  14.354  -1.645  0.00  0.00     0.219 HD
ENDBRANCH  21  36
ENDBRANCH  20  21
ENDBRANCH  19  20
ENDBRANCH  18  19
ENDBRANCH  17  18
ENDBRANCH  16  17
ENDBRANCH  15  16
ENDBRANCH  14  15
ENDBRANCH  12  14
ENDBRANCH  11  12
BRANCH  11  38
HETATM   38  O   UNK N   1      -3.953  15.262   0.259  0.00  0.00    -0.350 OA
HETATM   39  H   UNK N   1      -3.336  15.830   0.677  0.00  0.00     0.219 HD
ENDBRANCH  11  38
ENDBRANCH  10  11
ENDBRANCH   9  10
ENDBRANCH   7   9
ENDBRANCH   6   7
BRANCH   6  40
HETATM   40  O   UNK N   1      -6.711  16.391  -0.341  0.00  0.00    -0.348 OA
HETATM   41  H   UNK N   1      -5.798  16.597  -0.286  0.00  0.00     0.219 HD
ENDBRANCH   6  40
ENDBRANCH   5   6
BRANCH   5  42
HETATM   42  O   UNK N   1      -9.261  14.128  -0.292  0.00  0.00    -0.387 OA
HETATM   43  H   UNK N   1      -9.913  14.602  -0.832  0.00  0.00     0.210 HD
ENDBRANCH   5  42
ENDBRANCH   2   5
ENDBRANCH   1   2
BRANCH   1  44
HETATM   44  O   UNK N   1      -8.113  11.614   0.009  0.00  0.00    -0.296 OA
BRANCH  44  45
HETATM   45  P   UNK N   1      -7.393  10.352  -0.965  0.00  0.00     0.401 P 
HETATM   46  O   UNK N   1      -5.913  10.501  -1.420  0.00  0.00    -0.631 OA
BRANCH  45  47
HETATM   47  O   UNK N   1      -8.042  10.977  -2.429  0.00  0.00    -0.307 OA
HETATM   48  H   UNK N   1      -7.920  11.470  -3.256  0.00  0.00     0.222 HD
ENDBRANCH  45  47
BRANCH  45  49
HETATM   49  O   UNK N   1      -8.188   8.800  -1.201  0.00  0.00    -0.195 OA
BRANCH  49  50
HETATM   50  P   UNK N   1      -7.104   7.476  -0.863  0.00  0.00     0.401 P 
HETATM   51  O   UNK N   1      -8.000   6.261  -1.252  0.00  0.00    -0.631 OA
BRANCH  50  52
HETATM   52  O   UNK N   1      -7.259   7.853  -2.553  0.00  0.00    -0.307 OA
HETATM   53  H   UNK N   1      -7.119   8.033  -3.496  0.00  0.00     0.222 HD
ENDBRANCH  50  52
BRANCH  50  54
HETATM   54  O   UNK N   1      -8.238   7.903   0.409  0.00  0.00    -0.294 OA
BRANCH  54  55
HETATM   55  C   UNK N   1      -8.603   6.794   1.172  0.00  0.00     0.215 C 
BRANCH  55  56
HETATM   56  C   UNK N   1     -10.106   6.509   1.062  0.00  0.00     0.180 C 
HETATM   57  C   UNK N   1     -11.141   7.616   0.663  0.00  0.00     0.197 C 
HETATM   58  C   UNK N   1     -12.142   6.808  -0.171  0.00  0.00     0.199 C 
HETATM   59  C   UNK N   1     -11.853   5.419   0.350  0.00  0.00     0.262 C 
HETATM   60  O   UNK N   1     -10.440   5.344   0.337  0.00  0.00    -0.353 OA
BRANCH  57  61
HETATM   61  O   UNK N   1     -10.633   8.678  -0.144  0.00  0.00    -0.286 OA
BRANCH  61  62
HETATM   62  P   UNK N   1     -10.949  10.347   0.419  0.00  0.00     0.391 P 
HETATM   63  O   UNK N   1     -10.143   9.856   1.653  0.00  0.00    -0.632 OA
BRANCH  62  64
HETATM   64  O   UNK N   1     -11.984  10.488   1.806  0.00  0.00    -0.307 OA
HETATM   65  H   UNK N   1     -12.205  11.027   2.581  0.00  0.00     0.222 HD
ENDBRANCH  62  64
BRANCH  62  66
HETATM   66  O   UNK N   1     -12.571   9.780   0.159  0.00  0.00    -0.307 OA
HETATM   67  H   UNK N   1     -13.298  10.406   0.014  0.00  0.00     0.222 HD
ENDBRANCH  62  66
ENDBRANCH  61  62
ENDBRANCH  57  61
BRANCH  58  68
HETATM   68  O   UNK N   1     -13.454   7.230   0.047  0.00  0.00    -0.388 OA
HETATM   69  H   UNK N   1     -13.656   8.167   0.198  0.00  0.00     0.210 HD
ENDBRANCH  58  68
BRANCH  59  70
HETATM   70  N   UNK N   1     -12.492   4.271  -0.293  0.00  0.00    -0.297 N 
HETATM   71  C   UNK N   1     -11.917   3.055  -0.499  0.00  0.00     0.188 A 
HETATM   72  N   UNK N   1     -12.853   2.105  -0.779  0.00  0.00    -0.346 N 
HETATM   73  C   UNK N   1     -14.026   2.767  -0.727  0.00  0.00     0.122 A 
ATOM     74  HN  UNK N   1     -12.701   1.117  -0.983  1.00  0.00     0.167 HD
HETATM   75  C   UNK N   1     -15.323   2.288  -0.817  0.00  0.00     0.131 A 
HETATM   76  C   UNK N   1     -13.803   4.067  -0.462  0.00  0.00     0.142 A 
HETATM   77  N   UNK N   1     -16.348   3.183  -0.680  0.00  0.00    -0.337 N 
HETATM   78  C   UNK N   1     -16.097   4.512  -0.446  0.00  0.00     0.183 A 
ATOM     79  HN  UNK N   1     -17.312   2.858  -0.753  1.00  0.00     0.168 HD
HETATM   80  N   UNK N   1     -14.813   4.958  -0.305  0.00  0.00    -0.336 N 
ATOM     81  HN  UNK N   1     -14.620   5.936  -0.086  1.00  0.00     0.168 HD
BRANCH  75  82
HETATM   82  N   UNK N   1     -15.588   0.914  -0.974  0.00  0.00    -0.383 N 
HETATM   83  H   UNK N   1     -16.513   0.594  -1.084  0.00  0.00     0.157 HD
HETATM   84  H   UNK N   1     -14.845   0.269  -0.974  0.00  0.00     0.157 HD
ENDBRANCH  75  82
ENDBRANCH  59  70
ENDBRANCH  55  56
ENDBRANCH  54  55
ENDBRANCH  50  54
ENDBRANCH  49  50
ENDBRANCH  45  49
ENDBRANCH  44  45
ENDBRANCH   1  44
TORSDOF 40
