REMARK  3 active torsions:
REMARK  status: ('A' for Active; 'I' for Inactive)
REMARK    1  A    between atoms: C_4  and  O_7 
REMARK    2  A    between atoms: C_5  and  O_8 
REMARK    3  A    between atoms: C_6  and  O_9 
ROOT
HETATM    1  C   UNK N   1      -0.256   2.868   0.601  0.00  0.00     0.040 C 
HETATM    2  C   UNK N   1       1.598   1.189   0.874  0.00  0.00     0.066 C 
HETATM    3  C   UNK N   1       0.616   1.861  -0.124  0.00  0.00     0.123 C 
HETATM    4  C   UNK N   1       2.058  -0.131   0.269  0.00  0.00     0.154 C 
HETATM    5  C   UNK N   1       0.827  -1.054   0.108  0.00  0.00     0.201 C 
HETATM    6  C   UNK N   1      -0.460  -0.223  -0.125  0.00  0.00     0.288 C 
HETATM    7  O   UNK N   1      -0.185   0.941  -0.879  0.00  0.00    -0.354 OA
ENDROOT
BRANCH   4   8
HETATM    8  O   UNK N   1       2.633   0.136  -0.979  0.00  0.00    -0.393 OA
HETATM    9  H   UNK N   1       2.993  -0.116  -1.844  0.00  0.00     0.210 HD
ENDBRANCH   4   8
BRANCH   5  10
HETATM   10  O   UNK N   1       1.057  -1.956  -0.936  0.00  0.00    -0.388 OA
HETATM   11  H   UNK N   1       0.595  -2.407  -1.659  0.00  0.00     0.210 HD
ENDBRANCH   5  10
BRANCH   6  12
HETATM   12  O   UNK N   1      -1.438  -0.993  -0.763  0.00  0.00    -0.369 OA
HETATM   13  H   UNK N   1      -2.239  -0.673  -1.205  0.00  0.00     0.212 HD
ENDBRANCH   6  12
TORSDOF 3
