REMARK  7 active torsions:
REMARK  status: ('A' for Active; 'I' for Inactive)
REMARK    1  A    between atoms: C_2  and  O_3 
REMARK    2  A    between atoms: P_4  and  O_3 
REMARK    3  A    between atoms: P_4  and  O_5 
REMARK    4  A    between atoms: P_4  and  O_7 
REMARK    5  A    between atoms: O_7  and  P_8 
REMARK    6  A    between atoms: P_8  and  O_9 
REMARK    7  A    between atoms: P_8  and  O_10 
ROOT
HETATM    1  P   UNK N   1       3.467  -1.466   0.439  0.00  0.00     0.401 P 
HETATM    2  O   UNK N   1       3.512  -0.294  -0.583  0.00  0.00    -0.631 OA
ENDROOT
BRANCH   1   3
HETATM    3  O   UNK N   1       1.949  -1.619  -0.401  0.00  0.00    -0.297 OA
BRANCH   3   4
HETATM    4  C   UNK N   1       0.977  -1.188   0.510  0.00  0.00     0.176 C 
HETATM    5  C   UNK N   1       0.435   0.161   0.076  0.00  0.00     0.034 C 
ENDBRANCH   3   4
ENDBRANCH   1   3
BRANCH   1   6
HETATM    6  O   UNK N   1       3.407  -2.990  -0.395  0.00  0.00    -0.307 OA
HETATM    7  H   UNK N   1       2.653  -3.386  -0.861  0.00  0.00     0.222 HD
ENDBRANCH   1   6
BRANCH   1   8
HETATM    8  O   UNK N   1       4.967  -1.731  -0.409  0.00  0.00    -0.195 OA
BRANCH   8   9
HETATM    9  P   UNK N   1       6.215  -1.403   0.763  0.00  0.00     0.399 P 
HETATM   10  O   UNK N   1       6.342  -0.188  -0.198  0.00  0.00    -0.631 OA
BRANCH   9  11
HETATM   11  O   UNK N   1       7.887  -1.439   0.294  0.00  0.00    -0.307 OA
HETATM   12  H   UNK N   1       8.336  -2.258   0.033  0.00  0.00     0.222 HD
ENDBRANCH   9  11
BRANCH   9  13
HETATM   13  O   UNK N   1       6.581  -2.869  -0.094  0.00  0.00    -0.307 OA
HETATM   14  H   UNK N   1       5.974  -3.455  -0.573  0.00  0.00     0.222 HD
ENDBRANCH   9  13
ENDBRANCH   8   9
ENDBRANCH   1   8
TORSDOF 7
