REMARK  3 active torsions:
REMARK  status: ('A' for Active; 'I' for Inactive)
REMARK    1  A    between atoms: C_5  and  C_9 
REMARK    2  A    between atoms: C_11  and  C_28 
REMARK    3  A    between atoms: N_19  and  C_20 
ROOT
HETATM    1  C   UNK N   1      -0.078   0.726   0.114  0.00  0.00    -0.014 A 
HETATM    2  C   UNK N   1      -1.309   0.054   0.126  0.00  0.00     0.020 A 
HETATM    3  C   UNK N   1      -1.396  -1.339   0.073  0.00  0.00    -0.051 A 
HETATM    4  C   UNK N   1      -0.227  -2.092  -0.012  0.00  0.00     0.038 A 
HETATM    5  C   UNK N   1       1.029  -1.482  -0.077  0.00  0.00     0.050 A 
HETATM    6  C   UNK N   1       1.109  -0.066   0.016  0.00  0.00    -0.019 A 
HETATM    7  C   UNK N   1       2.481   0.543   0.028  0.00  0.00     0.051 C 
HETATM    8  C   UNK N   1       3.355  -0.142  -0.993  0.00  0.00     0.108 C 
HETATM    9  C   UNK N   1       3.376  -1.612  -0.704  0.00  0.00     0.229 C 
HETATM   10  O   UNK N   1       4.404  -2.234  -0.932  0.00  0.00    -0.273 OA
HETATM   11  N   UNK N   1       2.236  -2.261  -0.286  0.00  0.00    -0.279 N 
ENDROOT
BRANCH   1  12
HETATM   12  C   UNK N   1      -0.082   2.242   0.146  0.00  0.00     0.013 A 
HETATM   13  C   UNK N   1       1.122   2.962   0.041  0.00  0.00     0.018 A 
HETATM   14  C   UNK N   1       1.143   4.357   0.020  0.00  0.00     0.043 A 
HETATM   15  C   UNK N   1      -0.049   5.071   0.102  0.00  0.00     0.119 A 
HETATM   16  F   UNK N   1      -0.031   6.425   0.067  0.00  0.00    -0.206 F 
HETATM   17  C   UNK N   1      -1.259   4.390   0.215  0.00  0.00     0.085 A 
HETATM   18  C   UNK N   1      -1.290   2.991   0.238  0.00  0.00     0.130 A 
HETATM   19  F   UNK N   1      -2.500   2.388   0.340  0.00  0.00    -0.205 F 
ENDBRANCH   1  12
BRANCH   3  20
HETATM   20  C   UNK N   1      -2.726  -2.036  -0.058  0.00  0.00     0.022 C 
HETATM   21  C   UNK N   1      -2.975  -3.080   1.025  0.00  0.00     0.028 C 
HETATM   22  C   UNK N   1      -4.264  -3.827   0.682  0.00  0.00     0.114 C 
HETATM   23  N   UNK N   1      -5.394  -2.897   0.628  0.00  0.00    -0.421 N 
HETATM   24  C   UNK N   1      -5.175  -1.933  -0.450  0.00  0.00     0.114 C 
HETATM   25  H   UNK N   1      -6.205  -2.918   1.245  0.00  0.00     0.153 HD
HETATM   26  C   UNK N   1      -3.930  -1.098  -0.165  0.00  0.00     0.028 C 
ENDBRANCH   3  20
BRANCH  11  27
HETATM   27  C   UNK N   1       2.265  -3.695  -0.109  0.00  0.00     0.086 A 
HETATM   28  C   UNK N   1       3.184  -4.276   0.810  0.00  0.00     0.063 A 
HETATM   29 Cl   UNK N   1       4.255  -3.302   1.812  0.00  0.00    -0.082 Cl
HETATM   30  C   UNK N   1       3.241  -5.662   0.971  0.00  0.00     0.026 A 
HETATM   31  C   UNK N   1       2.407  -6.495   0.234  0.00  0.00     0.003 A 
HETATM   32  C   UNK N   1       1.515  -5.949  -0.683  0.00  0.00     0.026 A 
HETATM   33  C   UNK N   1       1.431  -4.566  -0.867  0.00  0.00     0.063 A 
HETATM   34 Cl   UNK N   1       0.356  -4.005  -2.143  0.00  0.00    -0.082 Cl
ENDBRANCH  11  27
TORSDOF 3
