REMARK  0 active torsions:
REMARK  status: ('A' for Active; 'I' for Inactive)
ROOT
HETATM    1  C   UNK N   1       0.148   0.620  -0.540  0.00  0.00     0.034 A 
HETATM    2  C   UNK N   1       0.138  -0.724  -0.246  0.00  0.00     0.034 A 
HETATM    3  C   UNK N   1       3.396   2.189   1.305  0.00  0.00    -0.004 C 
HETATM    4  C   UNK N   1       4.805   2.088   1.399  0.00  0.00    -0.004 C 
HETATM    5  C   UNK N   1       3.460  -4.040   0.070  0.00  0.00     0.034 A 
HETATM    6  C   UNK N   1       4.809  -4.034   0.044  0.00  0.00     0.034 A 
HETATM    7  C   UNK N   1       8.239   0.422   0.041  0.00  0.00     0.034 A 
HETATM    8  C   UNK N   1       8.149  -0.930   0.183  0.00  0.00     0.034 A 
HETATM    9  C   UNK N   1       1.960   2.333  -0.552  0.00  0.00     0.029 C 
HETATM   10  C   UNK N   1       1.833  -2.409   0.081  0.00  0.00     0.063 A 
HETATM   11  C   UNK N   1       6.504   2.183  -0.247  0.00  0.00     0.029 C 
HETATM   12  C   UNK N   1       6.396  -2.475   0.092  0.00  0.00     0.063 C 
HETATM   13  C   UNK N   1       1.455   0.999  -0.527  0.00  0.00     0.055 A 
HETATM   14  C   UNK N   1       1.435  -1.072  -0.117  0.00  0.00     0.059 A 
HETATM   15  C   UNK N   1       3.143   2.566   0.001  0.00  0.00     0.123 C 
HETATM   16  C   UNK N   1       3.076  -2.741   0.103  0.00  0.00     0.059 A 
HETATM   17  C   UNK N   1       5.271   2.460   0.156  0.00  0.00     0.123 C 
HETATM   18  C   UNK N   1       5.166  -2.752   0.082  0.00  0.00     0.059 A 
HETATM   19  C   UNK N   1       6.956   0.862  -0.134  0.00  0.00     0.055 A 
HETATM   20  C   UNK N   1       6.841  -1.199   0.078  0.00  0.00     0.059 A 
HETATM   21 Fe   UNK N   1       4.169   0.029  -0.249  0.00  0.00     0.000 Fe
HETATM   22  N   UNK N   1       2.237  -0.028  -0.330  0.00  0.00    -0.249 N 
HETATM   23  N   UNK N   1       4.240   2.138  -0.572  0.00  0.00    -0.224 NA
HETATM   24  N   UNK N   1       4.121  -1.922   0.050  0.00  0.00    -0.249 N 
HETATM   25  N   UNK N   1       6.110  -0.120  -0.126  0.00  0.00    -0.249 N 
ENDROOT
TORSDOF 0
