REMARK  3 active torsions:
REMARK  status: ('A' for Active; 'I' for Inactive)
REMARK    1  A    between atoms: C_2  and  C_3 
REMARK    2  A    between atoms: C_3  and  C_4 
REMARK    3  A    between atoms: C_4  and  C_5 
ROOT
HETATM    1  C   UNK N   1       0.989   0.521   0.000  0.00  0.00     0.006 C 
ENDROOT
BRANCH   1   2
HETATM    2  C   UNK N   1      -0.295   1.317  -0.000  0.00  0.00    -0.004 C 
HETATM    3  C   UNK N   1      -1.462   0.355   0.000  0.00  0.00     0.005 C 
ENDBRANCH   1   2
BRANCH   1   4
HETATM    4  C   UNK N   1       2.173   1.459  -0.000  0.00  0.00     0.069 C 
BRANCH   4   5
HETATM    5  C   UNK N   1       3.421   0.647   0.000  0.00  0.00     0.231 C 
HETATM    6  O   UNK N   1       4.504   1.195  -0.000  0.00  0.00    -0.307 OA
ENDBRANCH   4   5
ENDBRANCH   1   4
TORSDOF 3
