REMARK  1 active torsions:
REMARK  status: ('A' for Active; 'I' for Inactive)
REMARK    1  A    between atoms: C_20  and  O_2 
ROOT
HETATM    1  O   UNK N   1      26.067 -11.088  -1.497  0.00  0.00    -0.395 OA
HETATM    2  C   UNK N   1      24.530 -13.128  -0.100  0.00  0.00     0.001 C 
HETATM    3  C   UNK N   1      24.469 -11.646   0.223  0.00  0.00    -0.014 C 
HETATM    4  C   UNK N   1      23.247 -13.920   0.279  0.00  0.00    -0.002 C 
HETATM    5  C   UNK N   1      22.002 -12.984   0.292  0.00  0.00    -0.002 C 
HETATM    6  C   UNK N   1      23.334 -11.005  -0.624  0.00  0.00     0.012 C 
HETATM    7  C   UNK N   1      25.889 -11.195  -0.113  0.00  0.00     0.126 C 
HETATM    8  C   UNK N   1      22.115 -11.959  -0.856  0.00  0.00     0.006 C 
HETATM    9  C   UNK N   1      25.845 -13.601   0.485  0.00  0.00     0.008 C 
HETATM   10  C   UNK N   1      20.674 -13.777   0.398  0.00  0.00     0.019 C 
HETATM   11  C   UNK N   1      26.755 -12.363   0.395  0.00  0.00     0.033 C 
HETATM   12  C   UNK N   1      23.102 -15.023  -0.788  0.00  0.00     0.033 C 
HETATM   13  C   UNK N   1      24.244 -11.371   1.715  0.00  0.00     0.018 C 
HETATM   14  C   UNK N   1      20.646 -15.088  -0.359  0.00  0.00    -0.077 C 
HETATM   15  C   UNK N   1      19.476 -12.906  -0.016  0.00  0.00     0.012 C 
HETATM   16  C   UNK N   1      21.740 -15.642  -0.885  0.00  0.00    -0.023 C 
HETATM   17  C   UNK N   1      19.355 -15.845  -0.396  0.00  0.00     0.065 C 
HETATM   18  C   UNK N   1      18.162 -13.689   0.045  0.00  0.00     0.032 C 
HETATM   19  C   UNK N   1      18.232 -14.923  -0.856  0.00  0.00     0.122 C 
HETATM   20  H   UNK N   1      26.193 -11.158  -2.456  0.00  0.00     0.210 HD
ENDROOT
BRANCH  19  21
HETATM   21  O   UNK N   1      17.021 -15.610  -0.796  0.00  0.00    -0.395 OA
HETATM   22  H   UNK N   1      16.186 -15.118  -0.754  0.00  0.00     0.210 HD
ENDBRANCH  19  21
TORSDOF 1
