REMARK  23 active torsions:
REMARK  status: ('A' for Active; 'I' for Inactive)
REMARK    1  A    between atoms: C_10  and  C_9 
REMARK    2  A    between atoms: C_17  and  C_9 
REMARK    3  A    between atoms: C_20  and  C_10 
REMARK    4  A    between atoms: C_28  and  C_17 
REMARK    5  A    between atoms: N_37  and  C_20 
REMARK    6  A    between atoms: C_26  and  C_23 
REMARK    7  A    between atoms: C_31  and  C_23 
REMARK    8  A    between atoms: C_27  and  C_24 
REMARK    9  A    between atoms: O_53  and  C_24 
REMARK   10  A    between atoms: C_34  and  C_25 
REMARK   11  A    between atoms: N_42  and  C_25 
REMARK   12  A    between atoms: C_32  and  C_28 
REMARK   13  A    between atoms: C_28  and  N_38 
REMARK   14  A    between atoms: C_29  and  C_33 
REMARK   15  A    between atoms: C_30  and  C_35 
REMARK   16  A    between atoms: C_31  and  N_40 
REMARK   17  A    between atoms: P_54  and  C_31 
REMARK   18  A    between atoms: C_32  and  O_45 
REMARK   19  A    between atoms: C_33  and  O_46 
REMARK       I    between atoms: N_43  and  C_34 
REMARK   20  A    between atoms: O_52  and  C_35 
REMARK       I    between atoms: N_44  and  C_36 
REMARK   21  A    between atoms: O_53  and  C_36 
REMARK   22  A    between atoms: P_54  and  N_42 
REMARK   23  A    between atoms: P_54  and  O_50 
ROOT
HETATM    1  C   UNK N   1       5.453   4.451   0.971  0.00  0.00     0.135 C 
HETATM    2  N   UNK N   1       6.484   4.697   0.227  0.00  0.00    -0.357 N 
ATOM      3  HN  UNK N   1       6.851   5.643   0.331  1.00  0.00     0.162 HD
ENDROOT
BRANCH   1   4
HETATM    4  C   UNK N   1       4.661   3.146   1.077  0.00  0.00     0.158 C 
BRANCH   4   5
HETATM    5  C   UNK N   1       3.178   3.328   0.708  0.00  0.00     0.033 C 
BRANCH   5   6
HETATM    6  C   UNK N   1       2.921   3.958  -0.656  0.00  0.00     0.004 C 
BRANCH   6   7
HETATM    7  C   UNK N   1       1.626   4.757  -0.624  0.00  0.00     0.027 C 
BRANCH   7   8
HETATM    8  C   UNK N   1       0.422   3.865  -0.372  0.00  0.00     0.229 C 
BRANCH   8   9
HETATM    9  N   UNK N   1      -0.745   4.689  -0.118  0.00  0.00    -0.079 N 
HETATM   10  H   UNK N   1      -0.654   5.689   0.061  0.00  0.00     0.274 HD
HETATM   11  H   UNK N   1      -1.671   4.261  -0.118  0.00  0.00     0.274 HD
HETATM   12  H   UNK N   1      -1.574   5.257   0.060  0.00  0.00     0.274 HD
ENDBRANCH   8   9
ENDBRANCH   7   8
ENDBRANCH   6   7
ENDBRANCH   5   6
ENDBRANCH   4   5
BRANCH   4  13
HETATM   13  N   UNK N   1       5.255   1.866   0.694  0.00  0.00    -0.361 N 
HETATM   14  C   UNK N   1       4.888   1.087  -0.274  0.00  0.00     0.135 C 
ATOM     15  HN  UNK N   1       6.048   1.551   1.252  1.00  0.00     0.162 HD
BRANCH  14  16
HETATM   16  C   UNK N   1       5.416  -0.337  -0.359  0.00  0.00     0.163 C 
HETATM   17  C   UNK N   1       6.485  -0.726   0.645  0.00  0.00     0.035 C 
HETATM   18  C   UNK N   1       6.507  -2.263   0.558  0.00  0.00     0.022 C 
HETATM   19  C   UNK N   1       5.130  -2.669   0.023  0.00  0.00     0.129 C 
HETATM   20  N   UNK N   1       4.463  -1.411  -0.160  0.00  0.00    -0.316 N 
HETATM   21  C   UNK N   1       3.110  -1.303   0.046  0.00  0.00     0.363 C 
HETATM   22  O   UNK N   1       2.441  -2.309   0.228  0.00  0.00    -0.238 OA
BRANCH  21  23
HETATM   23  O   UNK N   1       2.509  -0.090   0.084  0.00  0.00    -0.299 OA
BRANCH  23  24
HETATM   24  C   UNK N   1       1.471   0.275  -0.748  0.00  0.00     0.219 C 
BRANCH  24  25
HETATM   25  C   UNK N   1       0.131  -0.170  -0.288  0.00  0.00    -0.034 A 
HETATM   26  C   UNK N   1      -0.280  -1.491  -0.493  0.00  0.00     0.009 A 
HETATM   27  C   UNK N   1      -1.580  -1.878  -0.160  0.00  0.00     0.001 A 
HETATM   28  C   UNK N   1      -2.475  -0.941   0.366  0.00  0.00     0.000 A 
HETATM   29  C   UNK N   1      -2.069   0.382   0.561  0.00  0.00     0.001 A 
HETATM   30  C   UNK N   1      -0.769   0.769   0.225  0.00  0.00     0.009 A 
ENDBRANCH  24  25
ENDBRANCH  23  24
ENDBRANCH  21  23
ENDBRANCH  14  16
BRANCH  14  31
HETATM   31  O   UNK N   1       4.030   1.510  -1.221  0.00  0.00    -0.348 OA
HETATM   32  H   UNK N   1       3.987   2.174  -1.881  0.00  0.00     0.219 HD
ENDBRANCH  14  31
ENDBRANCH   4  13
ENDBRANCH   1   4
BRANCH   1  33
HETATM   33  O   UNK N   1       4.983   5.474   1.711  0.00  0.00    -0.348 OA
HETATM   34  H   UNK N   1       5.436   6.113   2.225  0.00  0.00     0.219 HD
ENDBRANCH   1  33
BRANCH   2  35
HETATM   35  C   UNK N   1       7.216   3.889  -0.724  0.00  0.00     0.192 C 
BRANCH  35  36
HETATM   36  C   UNK N   1       8.027   4.863  -1.599  0.00  0.00     0.075 C 
BRANCH  36  37
HETATM   37  C   UNK N   1       8.818   5.895  -0.826  0.00  0.00    -0.056 A 
HETATM   38  C   UNK N   1       8.344   7.210  -0.748  0.00  0.00     0.007 A 
HETATM   39  C   UNK N   1       9.058   8.177  -0.031  0.00  0.00     0.001 A 
HETATM   40  C   UNK N   1      10.255   7.835   0.606  0.00  0.00     0.000 A 
HETATM   41  C   UNK N   1      10.737   6.526   0.525  0.00  0.00     0.001 A 
HETATM   42  C   UNK N   1      10.018   5.561  -0.188  0.00  0.00     0.007 A 
ENDBRANCH  36  37
ENDBRANCH  35  36
BRANCH  35  43
HETATM   43  P   UNK N   1       8.436   2.710   0.107  0.00  0.00     0.218 P 
HETATM   44  O   UNK N   1       8.027   1.912   1.373  0.00  0.00    -0.657 OA
BRANCH  43  45
HETATM   45  N   UNK N   1       9.845   1.922  -0.690  0.00  0.00    -0.341 N 
HETATM   46  H   UNK N   1       9.751   1.169  -1.371  0.00  0.00     0.163 HD
BRANCH  45  47
HETATM   47  C   UNK N   1      11.130   2.460  -0.272  0.00  0.00     0.173 C 
HETATM   48  C   UNK N   1      11.699   3.218  -1.460  0.00  0.00     0.042 C 
BRANCH  47  49
HETATM   49  C   UNK N   1      12.139   1.392   0.153  0.00  0.00     0.243 C 
HETATM   50  N   UNK N   1      11.858   0.037   0.232  0.00  0.00    -0.336 N 
HETATM   51  C   UNK N   1      10.570  -0.515  -0.102  0.00  0.00     0.127 C 
HETATM   52  C   UNK N   1      12.814  -1.017   0.545  0.00  0.00     0.187 C 
HETATM   53  C   UNK N   1      10.797  -2.011  -0.252  0.00  0.00     0.022 C 
HETATM   54  C   UNK N   1      12.311  -2.162  -0.314  0.00  0.00     0.037 C 
HETATM   55  O   UNK N   1      13.253   1.797   0.440  0.00  0.00    -0.271 OA
BRANCH  52  56
HETATM   56  C   UNK N   1      14.287  -0.738   0.324  0.00  0.00     0.281 C 
HETATM   57  O   UNK N   1      14.887  -0.006   1.100  0.00  0.00    -0.263 OA
BRANCH  56  58
HETATM   58  O   UNK N   1      14.953  -1.358  -0.681  0.00  0.00    -0.325 OA
HETATM   59  C   UNK N   1      16.292  -1.145  -0.915  0.00  0.00     0.213 C 
ENDBRANCH  56  58
ENDBRANCH  52  56
ENDBRANCH  47  49
ENDBRANCH  45  47
ENDBRANCH  43  45
BRANCH  43  60
HETATM   60  O   UNK N   1       7.612   1.513  -0.827  0.00  0.00    -0.333 OA
HETATM   61  H   UNK N   1       6.798   1.578  -1.351  0.00  0.00     0.219 HD
ENDBRANCH  43  60
ENDBRANCH  35  43
ENDBRANCH   2  35
TORSDOF 23
