REMARK  8 active torsions:
REMARK  status: ('A' for Active; 'I' for Inactive)
REMARK    1  A    between atoms: C_11  and  C_6 
REMARK    2  A    between atoms: C_13  and  C_6 
REMARK    3  A    between atoms: C_12  and  C_10 
REMARK    4  A    between atoms: C_18  and  C_13 
REMARK    5  A    between atoms: N_19  and  C_13 
REMARK    6  A    between atoms: N_20  and  C_14 
REMARK    7  A    between atoms: O_23  and  C_17 
REMARK    8  A    between atoms: O_25  and  C_18 
ROOT
HETATM    1  C   UNK N   1      -3.584   0.734   0.144  0.00  0.00     0.072 C 
HETATM    2  C   UNK N   1      -5.923  -0.995  -0.146  0.00  0.00     0.089 C 
HETATM    3  C   UNK N   1      -4.917   1.361  -0.279  0.00  0.00     0.068 C 
HETATM    4  C   UNK N   1      -3.476  -0.700  -0.290  0.00  0.00     0.039 C 
HETATM    5  C   UNK N   1      -6.067   0.448   0.087  0.00  0.00     0.156 C 
HETATM    6  C   UNK N   1      -4.714  -1.532  -0.361  0.00  0.00     0.091 C 
HETATM    7  N   UNK N   1      -2.347  -1.297  -0.511  0.00  0.00    -0.386 N 
ATOM      8  HN  UNK N   1      -2.477  -2.274  -0.773  1.00  0.00     0.160 HD
HETATM    9  O   UNK N   1      -7.104   0.879   0.565  0.00  0.00    -0.293 OA
ENDROOT
BRANCH   6  10
HETATM   10  O   UNK N   1      -4.622  -2.853  -0.603  0.00  0.00    -0.359 OA
HETATM   11  H   UNK N   1      -5.386  -3.369  -0.772  0.00  0.00     0.217 HD
ENDBRANCH   6  10
BRANCH   7  12
HETATM   12  C   UNK N   1      -0.934  -0.924  -0.478  0.00  0.00     0.090 A 
HETATM   13  C   UNK N   1      -0.630  -0.469   0.952  0.00  0.00     0.037 A 
HETATM   14  C   UNK N   1      -0.154   0.379  -0.199  0.00  0.00     0.043 A 
BRANCH  14  15
HETATM   15  C   UNK N   1      -0.668   1.791  -0.235  0.00  0.00    -0.052 A 
HETATM   16  C   UNK N   1      -1.352   2.378   0.842  0.00  0.00     0.007 A 
HETATM   17  C   UNK N   1      -1.669   3.741   0.817  0.00  0.00     0.001 A 
HETATM   18  C   UNK N   1      -1.265   4.534  -0.260  0.00  0.00     0.000 A 
HETATM   19  C   UNK N   1      -0.547   3.967  -1.313  0.00  0.00     0.001 A 
HETATM   20  C   UNK N   1      -0.242   2.603  -1.294  0.00  0.00     0.007 A 
ENDBRANCH  14  15
ENDBRANCH   7  12
BRANCH   3  21
HETATM   21  C   UNK N   1      -5.031   2.762   0.320  0.00  0.00     0.048 C 
BRANCH  21  22
HETATM   22  C   UNK N   1      -5.843   3.726  -0.539  0.00  0.00     0.174 C 
BRANCH  22  23
HETATM   23  C   UNK N   1      -5.547   5.135  -0.106  0.00  0.00     0.163 C 
HETATM   24  O   UNK N   1      -6.433   5.859   0.319  0.00  0.00    -0.648 OA
BRANCH  23  25
HETATM   25  O   UNK N   1      -4.289   5.606  -0.192  0.00  0.00    -0.775 OA
HETATM   26  H   UNK N   1      -3.567   5.012  -0.251  0.00  0.00     0.167 HD
ENDBRANCH  23  25
ENDBRANCH  22  23
BRANCH  22  27
HETATM   27  N   UNK N   1      -7.266   3.442  -0.427  0.00  0.00    -0.418 N 
HETATM   28  H   UNK N   1      -7.937   4.206  -0.349  0.00  0.00     0.150 HD
HETATM   29  H   UNK N   1      -7.593   2.476  -0.427  0.00  0.00     0.150 HD
ENDBRANCH  22  27
ENDBRANCH  21  22
ENDBRANCH   3  21
TORSDOF 8
