REMARK  1 active torsions:
REMARK  status: ('A' for Active; 'I' for Inactive)
REMARK    1  A    between atoms: O_19  and  C_15 
ROOT
HETATM    1  C   UNK N   1       0.509  -0.741  -0.189  0.00  0.00     0.024 C 
HETATM    2  C   UNK N   1      -0.879  -0.898   0.125  0.00  0.00    -0.004 A 
HETATM    3  C   UNK N   1       1.274   0.084   0.807  0.00  0.00     0.035 C 
HETATM    4  C   UNK N   1      -1.296  -2.102  -0.308  0.00  0.00     0.110 A 
HETATM    5  C   UNK N   1       0.911  -2.213  -0.204  0.00  0.00     0.142 C 
HETATM    6  O   UNK N   1      -0.232  -2.834  -0.729  0.00  0.00    -0.341 OA
HETATM    7  C   UNK N   1       0.545   1.474   0.814  0.00  0.00     0.232 C 
HETATM    8  C   UNK N   1      -1.666   0.059   0.714  0.00  0.00    -0.046 A 
HETATM    9  C   UNK N   1       2.748   0.047   0.321  0.00  0.00     0.008 C 
HETATM   10  C   UNK N   1      -0.985   1.323   1.235  0.00  0.00     0.075 C 
HETATM   11  N   UNK N   1       0.675   2.109  -0.520  0.00  0.00     0.089 N 
HETATM   12  C   UNK N   1       0.578  -0.100  -1.604  0.00  0.00     0.048 C 
HETATM   13  C   UNK N   1       3.253  -1.412   0.029  0.00  0.00     0.003 C 
HETATM   14  C   UNK N   1       2.295  -2.302  -0.835  0.00  0.00     0.034 C 
HETATM   15  C   UNK N   1      -2.649  -2.429  -0.233  0.00  0.00     0.099 A 
HETATM   16  C   UNK N   1       0.035   1.327  -1.580  0.00  0.00     0.273 C 
HETATM   17  C   UNK N   1      -3.035  -0.237   0.844  0.00  0.00     0.011 A 
HETATM   18  C   UNK N   1      -3.533  -1.477   0.345  0.00  0.00     0.040 A 
HETATM   19  C   UNK N   1       0.059   3.430  -0.519  0.00  0.00     0.310 C 
ENDROOT
BRANCH  15  20
HETATM   20  O   UNK N   1      -3.105  -3.611  -0.678  0.00  0.00    -0.358 OA
HETATM   21  H   UNK N   1      -3.978  -3.748  -0.988  0.00  0.00     0.217 HD
ENDBRANCH  15  20
TORSDOF 1
