REMARK  11 active torsions:
REMARK  status: ('A' for Active; 'I' for Inactive)
REMARK    1  A    between atoms: C_2  and  C_3 
REMARK    2  A    between atoms: C_2  and  C_5 
REMARK    3  A    between atoms: C_3  and  O_4 
REMARK    4  A    between atoms: C_5  and  C_6 
REMARK    5  A    between atoms: C_6  and  O_7 
REMARK    6  A    between atoms: P_8  and  O_7 
REMARK    7  A    between atoms: P_8  and  O_9 
REMARK    8  A    between atoms: P_8  and  O_11 
REMARK    9  A    between atoms: O_11  and  P_12 
REMARK   10  A    between atoms: P_12  and  O_13 
REMARK   11  A    between atoms: P_12  and  O_14 
ROOT
HETATM    1  P   UNK N   1       6.566  -2.141  -0.198  0.00  0.00     0.401 P 
HETATM    2  O   UNK N   1       6.700  -0.703   0.368  0.00  0.00    -0.631 OA
ENDROOT
BRANCH   1   3
HETATM    3  O   UNK N   1       5.146  -2.000   0.798  0.00  0.00    -0.297 OA
BRANCH   3   4
HETATM    4  C   UNK N   1       4.121  -2.638   0.092  0.00  0.00     0.181 C 
BRANCH   4   5
HETATM    5  C   UNK N   1       2.977  -1.672  -0.169  0.00  0.00     0.033 C 
BRANCH   5   6
HETATM    6  C   UNK N   1       1.633  -2.359   0.038  0.00  0.00     0.007 C 
HETATM    7  C   UNK N   1       1.449  -3.501  -0.952  0.00  0.00     0.012 C 
BRANCH   6   8
HETATM    8  C   UNK N   1       0.518  -1.343  -0.134  0.00  0.00     0.168 C 
BRANCH   8   9
HETATM    9  O   UNK N   1      -0.712  -1.915   0.198  0.00  0.00    -0.400 OA
HETATM   10  H   UNK N   1      -1.483  -1.374   0.428  0.00  0.00     0.209 HD
ENDBRANCH   8   9
ENDBRANCH   6   8
ENDBRANCH   5   6
ENDBRANCH   4   5
ENDBRANCH   3   4
ENDBRANCH   1   3
BRANCH   1  11
HETATM   11  O   UNK N   1       6.658  -3.298   1.095  0.00  0.00    -0.307 OA
HETATM   12  H   UNK N   1       6.124  -3.665   1.817  0.00  0.00     0.222 HD
ENDBRANCH   1  11
BRANCH   1  13
HETATM   13  O   UNK N   1       8.154  -2.172   0.514  0.00  0.00    -0.195 OA
BRANCH  13  14
HETATM   14  P   UNK N   1       9.264  -2.238  -0.825  0.00  0.00     0.399 P 
HETATM   15  O   UNK N   1       9.705  -0.948  -0.085  0.00  0.00    -0.631 OA
BRANCH  14  16
HETATM   16  O   UNK N   1      10.955  -2.507  -0.547  0.00  0.00    -0.307 OA
HETATM   17  H   UNK N   1      11.297  -3.401  -0.392  0.00  0.00     0.222 HD
ENDBRANCH  14  16
BRANCH  14  18
HETATM   18  O   UNK N   1       9.505  -3.623   0.192  0.00  0.00    -0.307 OA
HETATM   19  H   UNK N   1       8.902  -4.127   0.761  0.00  0.00     0.222 HD
ENDBRANCH  14  18
ENDBRANCH  13  14
ENDBRANCH   1  13
TORSDOF 11
