REMARK  16 active torsions:
REMARK  status: ('A' for Active; 'I' for Inactive)
REMARK    1  A    between atoms: C_22  and  O_2 
REMARK    2  A    between atoms: O_2  and  C_26 
REMARK    3  A    between atoms: C_18  and  O_4 
REMARK    4  A    between atoms: C_19  and  O_5 
REMARK    5  A    between atoms: C_25  and  O_6 
REMARK    6  A    between atoms: O_6  and  C_29 
REMARK    7  A    between atoms: C_20  and  O_7 
REMARK    8  A    between atoms: C_21  and  O_8 
REMARK    9  A    between atoms: C_23  and  O_9 
REMARK   10  A    between atoms: C_24  and  O_10 
REMARK   11  A    between atoms: O_13  and  C_35 
REMARK   12  A    between atoms: O_14  and  C_40 
REMARK   13  A    between atoms: O_15  and  C_41 
REMARK   14  A    between atoms: O_16  and  C_43 
REMARK   15  A    between atoms: C_17  and  C_26 
REMARK   16  A    between atoms: C_30  and  C_33 
ROOT
HETATM    1  O   UNK N   1      27.864 -14.810  -1.234  0.00  0.00    -0.348 OA
HETATM    2  C   UNK N   1      28.201 -16.009  -0.601  0.00  0.00     0.180 C 
HETATM    3  C   UNK N   1      26.994 -16.878  -0.277  0.00  0.00     0.180 C 
HETATM    4  C   UNK N   1      25.821 -16.015   0.207  0.00  0.00     0.183 C 
HETATM    5  C   UNK N   1      26.177 -14.538   0.530  0.00  0.00     0.205 C 
HETATM    6  C   UNK N   1      27.436 -13.976  -0.177  0.00  0.00     0.298 C 
ENDROOT
BRANCH   6   7
HETATM    7  O   UNK N   1      28.461 -13.753   0.744  0.00  0.00    -0.311 OA
BRANCH   7   8
HETATM    8  C   UNK N   1      29.522 -12.941   0.494  0.00  0.00     0.157 A 
HETATM    9  C   UNK N   1      29.373 -11.548   0.246  0.00  0.00     0.124 A 
HETATM   10  O   UNK N   1      30.447 -10.815  -0.043  0.00  0.00    -0.306 OA
HETATM   11  C   UNK N   1      31.679 -11.306  -0.101  0.00  0.00     0.096 A 
HETATM   12  C   UNK N   1      31.917 -12.677   0.144  0.00  0.00     0.084 A 
HETATM   13  C   UNK N   1      32.742 -10.452  -0.407  0.00  0.00     0.075 A 
HETATM   14  C   UNK N   1      30.813 -13.491   0.455  0.00  0.00     0.223 A 
HETATM   15  C   UNK N   1      33.245 -13.168   0.053  0.00  0.00     0.085 A 
HETATM   16  O   UNK N   1      30.964 -14.681   0.679  0.00  0.00    -0.284 OA
HETATM   17  C   UNK N   1      34.293 -12.299  -0.259  0.00  0.00     0.074 A 
HETATM   18  C   UNK N   1      34.045 -10.945  -0.483  0.00  0.00     0.071 A 
BRANCH   9  19
HETATM   19  C   UNK N   1      28.061 -10.852   0.296  0.00  0.00     0.004 A 
HETATM   20  C   UNK N   1      27.933  -9.600  -0.321  0.00  0.00     0.053 A 
HETATM   21  C   UNK N   1      26.697  -8.949  -0.352  0.00  0.00     0.099 A 
HETATM   22  C   UNK N   1      25.579  -9.537   0.252  0.00  0.00     0.098 A 
HETATM   23  C   UNK N   1      25.708 -10.761   0.906  0.00  0.00     0.040 A 
HETATM   24  C   UNK N   1      26.942 -11.409   0.928  0.00  0.00     0.017 A 
BRANCH  21  25
HETATM   25  O   UNK N   1      26.586  -7.765  -0.977  0.00  0.00    -0.358 OA
HETATM   26  H   UNK N   1      27.262  -7.285  -1.413  0.00  0.00     0.217 HD
ENDBRANCH  21  25
BRANCH  22  27
HETATM   27  O   UNK N   1      24.381  -8.932   0.207  0.00  0.00    -0.358 OA
HETATM   28  H   UNK N   1      24.329  -7.997   0.175  0.00  0.00     0.217 HD
ENDBRANCH  22  27
ENDBRANCH   9  19
BRANCH  15  29
HETATM   29  O   UNK N   1      33.522 -14.467   0.255  0.00  0.00    -0.360 OA
HETATM   30  H   UNK N   1      32.834 -15.087   0.395  0.00  0.00     0.217 HD
ENDBRANCH  15  29
BRANCH  18  31
HETATM   31  O   UNK N   1      35.060 -10.117  -0.775  0.00  0.00    -0.361 OA
HETATM   32  H   UNK N   1      35.915 -10.442  -0.979  0.00  0.00     0.217 HD
ENDBRANCH  18  31
ENDBRANCH   7   8
ENDBRANCH   6   7
BRANCH   5  33
HETATM   33  O   UNK N   1      25.077 -13.708   0.298  0.00  0.00    -0.388 OA
HETATM   34  H   UNK N   1      25.194 -12.759   0.137  0.00  0.00     0.210 HD
ENDBRANCH   5  33
BRANCH   2  35
HETATM   35  C   UNK N   1      29.438 -16.687  -1.127  0.00  0.00     0.205 C 
BRANCH  35  36
HETATM   36  O   UNK N   1      30.080 -17.182   0.003  0.00  0.00    -0.356 OA
BRANCH  36  37
HETATM   37  C   UNK N   1      31.213 -17.860  -0.424  0.00  0.00     0.291 C 
HETATM   38  O   UNK N   1      32.324 -17.316   0.254  0.00  0.00    -0.351 OA
HETATM   39  C   UNK N   1      33.486 -17.945  -0.228  0.00  0.00     0.152 C 
HETATM   40  C   UNK N   1      33.502 -19.400   0.248  0.00  0.00     0.178 C 
HETATM   41  C   UNK N   1      34.699 -17.210   0.315  0.00  0.00     0.042 C 
HETATM   42  C   UNK N   1      32.290 -20.106  -0.350  0.00  0.00     0.183 C 
HETATM   43  C   UNK N   1      31.027 -19.325  -0.025  0.00  0.00     0.204 C 
BRANCH  40  44
HETATM   44  O   UNK N   1      34.668 -20.040  -0.175  0.00  0.00    -0.390 OA
HETATM   45  H   UNK N   1      34.688 -20.964  -0.469  0.00  0.00     0.210 HD
ENDBRANCH  40  44
BRANCH  42  46
HETATM   46  O   UNK N   1      32.186 -21.398   0.164  0.00  0.00    -0.390 OA
HETATM   47  H   UNK N   1      31.372 -21.785   0.522  0.00  0.00     0.210 HD
ENDBRANCH  42  46
BRANCH  43  48
HETATM   48  O   UNK N   1      29.938 -19.872  -0.708  0.00  0.00    -0.388 OA
HETATM   49  H   UNK N   1      29.231 -19.407  -1.182  0.00  0.00     0.210 HD
ENDBRANCH  43  48
ENDBRANCH  36  37
ENDBRANCH  35  36
ENDBRANCH   2  35
BRANCH   4  50
HETATM   50  O   UNK N   1      24.786 -16.096  -0.725  0.00  0.00    -0.390 OA
HETATM   51  H   UNK N   1      24.377 -15.501  -1.373  0.00  0.00     0.210 HD
ENDBRANCH   4  50
BRANCH   3  52
HETATM   52  O   UNK N   1      27.332 -17.806   0.708  0.00  0.00    -0.390 OA
HETATM   53  H   UNK N   1      26.891 -18.332   1.394  0.00  0.00     0.210 HD
ENDBRANCH   3  52
TORSDOF 16
