REMARK  8 active torsions:
REMARK  status: ('A' for Active; 'I' for Inactive)
REMARK    1  A    between atoms: C_2  and  C_3 
REMARK    2  A    between atoms: C_3  and  O_4 
REMARK    3  A    between atoms: P_5  and  O_4 
REMARK    4  A    between atoms: P_5  and  O_6 
REMARK    5  A    between atoms: P_5  and  O_8 
REMARK    6  A    between atoms: O_8  and  P_9 
REMARK    7  A    between atoms: P_9  and  O_10 
REMARK    8  A    between atoms: P_9  and  O_11 
ROOT
HETATM    1  P   UNK N   1       3.540  -1.568   0.435  0.00  0.00     0.401 P 
HETATM    2  O   UNK N   1       3.590  -0.312  -0.479  0.00  0.00    -0.631 OA
ENDROOT
BRANCH   1   3
HETATM    3  O   UNK N   1       2.067  -1.678  -0.483  0.00  0.00    -0.297 OA
BRANCH   3   4
HETATM    4  C   UNK N   1       1.028  -1.564   0.445  0.00  0.00     0.180 C 
BRANCH   4   5
HETATM    5  C   UNK N   1       0.036  -0.529  -0.045  0.00  0.00     0.022 C 
HETATM    6  C   UNK N   1      -1.373  -1.020   0.212  0.00  0.00     0.007 C 
ENDBRANCH   4   5
ENDBRANCH   3   4
ENDBRANCH   1   3
BRANCH   1   7
HETATM    7  O   UNK N   1       3.517  -3.033  -0.499  0.00  0.00    -0.307 OA
HETATM    8  H   UNK N   1       2.803  -3.431  -1.021  0.00  0.00     0.222 HD
ENDBRANCH   1   7
BRANCH   1   9
HETATM    9  O   UNK N   1       5.054  -1.761  -0.410  0.00  0.00    -0.195 OA
BRANCH   9  10
HETATM   10  P   UNK N   1       6.297  -1.479   0.778  0.00  0.00     0.399 P 
HETATM   11  O   UNK N   1       6.420  -0.229  -0.135  0.00  0.00    -0.631 OA
BRANCH  10  12
HETATM   12  O   UNK N   1       7.967  -1.488   0.306  0.00  0.00    -0.307 OA
HETATM   13  H   UNK N   1       8.430  -2.298   0.042  0.00  0.00     0.222 HD
ENDBRANCH  10  12
BRANCH  10  14
HETATM   14  O   UNK N   1       6.669  -2.914  -0.126  0.00  0.00    -0.307 OA
HETATM   15  H   UNK N   1       6.080  -3.495  -0.632  0.00  0.00     0.222 HD
ENDBRANCH  10  14
ENDBRANCH   9  10
ENDBRANCH   1   9
TORSDOF 8
