REMARK  6 active torsions:
REMARK  status: ('A' for Active; 'I' for Inactive)
REMARK    1  A    between atoms: O_1  and  C_4 
REMARK    2  A    between atoms: O_1  and  C_14 
REMARK    3  A    between atoms: N_3  and  C_10 
REMARK    4  A    between atoms: C_4  and  C_9 
REMARK    5  A    between atoms: C_10  and  C_11 
REMARK    6  A    between atoms: C_11  and  C_15 
ROOT
HETATM    1  N   UNK N   1       4.497  -0.280  -0.475  0.00  0.00    -0.412 N 
HETATM    2  C   UNK N   1       3.014   2.114   0.429  0.00  0.00     0.101 C 
HETATM    3  C   UNK N   1       2.559   1.263  -0.769  0.00  0.00     0.063 C 
HETATM    4  C   UNK N   1       3.674   1.149   1.421  0.00  0.00     0.063 C 
HETATM    5  C   UNK N   1       3.717   0.517  -1.428  0.00  0.00     0.120 C 
HETATM    6  C   UNK N   1       4.835   0.353   0.810  0.00  0.00     0.120 C 
ENDROOT
BRANCH   2   7
HETATM    7  O   UNK N   1       1.896   2.641   1.073  0.00  0.00    -0.305 OA
BRANCH   7   8
HETATM    8  C   UNK N   1       0.919   3.402   0.502  0.00  0.00     0.255 C 
HETATM    9  O   UNK N   1       0.835   3.515  -0.713  0.00  0.00    -0.266 OA
HETATM   10  C   UNK N   1      -0.058   4.114   1.371  0.00  0.00     0.126 C 
ENDBRANCH   7   8
ENDBRANCH   2   7
BRANCH   2  11
HETATM   11  C   UNK N   1       3.988   3.241   0.033  0.00  0.00    -0.023 A 
HETATM   12  C   UNK N   1       3.688   4.586   0.320  0.00  0.00     0.010 A 
HETATM   13  C   UNK N   1       4.580   5.607  -0.021  0.00  0.00     0.001 A 
HETATM   14  C   UNK N   1       5.790   5.300  -0.647  0.00  0.00     0.000 A 
HETATM   15  C   UNK N   1       6.106   3.973  -0.935  0.00  0.00     0.001 A 
HETATM   16  C   UNK N   1       5.213   2.953  -0.598  0.00  0.00     0.010 A 
ENDBRANCH   2  11
BRANCH   1  17
HETATM   17  C   UNK N   1       4.075  -1.678  -0.400  0.00  0.00     0.121 C 
BRANCH  17  18
HETATM   18  C   UNK N   1       2.867  -1.912   0.498  0.00  0.00     0.058 C 
BRANCH  18  19
HETATM   19  C   UNK N   1       2.373  -3.309   0.311  0.00  0.00    -0.057 A 
HETATM   20  C   UNK N   1       3.223  -4.403   0.535  0.00  0.00     0.007 A 
HETATM   21  C   UNK N   1       2.756  -5.707   0.338  0.00  0.00     0.001 A 
HETATM   22  C   UNK N   1       1.439  -5.922  -0.076  0.00  0.00     0.000 A 
HETATM   23  C   UNK N   1       0.587  -4.834  -0.291  0.00  0.00     0.001 A 
HETATM   24  C   UNK N   1       1.054  -3.529  -0.101  0.00  0.00     0.007 A 
ENDBRANCH  18  19
ENDBRANCH  17  18
ENDBRANCH   1  17
TORSDOF 6
