REMARK  4 active torsions:
REMARK  status: ('A' for Active; 'I' for Inactive)
REMARK    1  A    between atoms: C_21  and  C_13 
REMARK    2  A    between atoms: C_22  and  C_18 
REMARK    3  A    between atoms: C_23  and  O_30 
REMARK    4  A    between atoms: C_25  and  O_32 
ROOT
HETATM    1  C   UNK N   1      -1.833  -2.163  -1.506  0.00  0.00     0.043 C 
HETATM    2  C   UNK N   1      -1.404   3.347   0.974  0.00  0.00     0.012 C 
HETATM    3  C   UNK N   1       2.318   4.419   0.968  0.00  0.00     0.020 C 
HETATM    4  C   UNK N   1       4.840   1.862  -1.814  0.00  0.00     0.026 C 
HETATM    5  C   UNK N   1       4.643   4.066  -0.828  0.00  0.00     0.026 C 
HETATM    6  C   UNK N   1      -1.674   0.559   0.255  0.00  0.00     0.005 C 
HETATM    7  C   UNK N   1      -1.132  -0.820   0.590  0.00  0.00     0.033 C 
HETATM    8  C   UNK N   1      -0.637   1.440  -0.464  0.00  0.00     0.007 C 
HETATM    9  C   UNK N   1       0.531  -1.733  -0.984  0.00  0.00    -0.022 C 
HETATM   10  C   UNK N   1       1.601  -1.174  -0.083  0.00  0.00     0.064 C 
HETATM   11  C   UNK N   1       5.292   0.792   1.254  0.00  0.00     0.144 C 
HETATM   12  C   UNK N   1      -0.758  -1.574  -0.654  0.00  0.00    -0.087 C 
HETATM   13  C   UNK N   1      -0.188   2.669   0.350  0.00  0.00     0.011 C 
HETATM   14  C   UNK N   1       2.345   2.899   1.078  0.00  0.00     0.081 C 
HETATM   15  C   UNK N   1       3.016  -1.708  -0.299  0.00  0.00     0.164 C 
HETATM   16  C   UNK N   1       5.452   2.192   0.625  0.00  0.00     0.142 C 
HETATM   17  C   UNK N   1       4.919  -0.327   0.331  0.00  0.00     0.262 C 
HETATM   18  C   UNK N   1       0.913   2.390   1.426  0.00  0.00     0.132 C 
HETATM   19  C   UNK N   1       2.998   2.294  -0.158  0.00  0.00     0.143 C 
HETATM   20  C   UNK N   1       4.463   2.585  -0.520  0.00  0.00     0.040 C 
HETATM   21  O   UNK N   1       5.614  -0.602  -0.632  0.00  0.00    -0.265 OA
HETATM   22  O   UNK N   1       2.348   1.541  -0.868  0.00  0.00    -0.297 OA
HETATM   23  O   UNK N   1       3.807  -1.048   0.621  0.00  0.00    -0.311 OA
ENDROOT
BRANCH  15  24
HETATM   24  C   UNK N   1       3.169  -3.215  -0.117  0.00  0.00    -0.052 C 
HETATM   25  C   UNK N   1       4.505  -3.794  -0.469  0.00  0.00     0.046 C 
HETATM   26  C   UNK N   1       2.145  -4.003   0.311  0.00  0.00     0.035 C 
BRANCH  26  27
HETATM   27  C   UNK N   1       2.155  -5.477   0.424  0.00  0.00     0.039 A 
HETATM   28  C   UNK N   1       3.249  -6.309   0.107  0.00  0.00     0.081 A 
HETATM   29  S   UNK N   1       2.688  -7.853   0.333  0.00  0.00    -0.087 SA
HETATM   30  C   UNK N   1       1.156  -7.479   0.800  0.00  0.00     0.047 A 
HETATM   31  C   UNK N   1       0.079  -8.443   1.143  0.00  0.00     0.076 C 
HETATM   32  N   UNK N   1       1.004  -6.137   0.803  0.00  0.00    -0.354 N 
ATOM     33  HN  UNK N   1       0.136  -5.665   1.057  1.00  0.00     0.166 HD
ENDBRANCH  26  27
ENDBRANCH  15  24
BRANCH  16  34
HETATM   34  O   UNK N   1       6.774   2.346   0.198  0.00  0.00    -0.394 OA
HETATM   35  H   UNK N   1       7.326   1.605  -0.098  0.00  0.00     0.210 HD
ENDBRANCH  16  34
BRANCH  18  36
HETATM   36  O   UNK N   1       0.952   1.038   1.779  0.00  0.00    -0.394 OA
HETATM   37  H   UNK N   1       0.153   0.546   2.025  0.00  0.00     0.210 HD
ENDBRANCH  18  36
TORSDOF 4
