REMARK  12 active torsions:
REMARK  status: ('A' for Active; 'I' for Inactive)
REMARK    1  A    between atoms: C_5  and  N_4 
REMARK    2  A    between atoms: C_7  and  C_8 
REMARK    3  A    between atoms: C_8  and  O_9 
REMARK    4  A    between atoms: P_10  and  O_9 
REMARK    5  A    between atoms: P_10  and  O_11 
REMARK    6  A    between atoms: P_10  and  O_13 
REMARK    7  A    between atoms: P_14  and  O_13 
REMARK    8  A    between atoms: P_14  and  O_15 
REMARK    9  A    between atoms: P_14  and  O_17 
REMARK   10  A    between atoms: O_17  and  P_18 
REMARK   11  A    between atoms: P_18  and  O_19 
REMARK   12  A    between atoms: P_18  and  O_20 
ROOT
HETATM    1  O   UNK N   1      -1.433   1.046  -1.104  0.00  0.00    -0.294 OA
ENDROOT
BRANCH   1   2
HETATM    2  C   UNK N   1      -2.667   1.541  -1.493  0.00  0.00     0.216 C 
BRANCH   2   3
HETATM    3  C   UNK N   1      -3.743   0.459  -1.530  0.00  0.00     0.171 C 
HETATM    4  O   UNK N   1      -4.955   1.123  -1.280  0.00  0.00    -0.352 OA
HETATM    5  C   UNK N   1      -5.214   0.922   0.093  0.00  0.00     0.257 C 
HETATM    6  C   UNK N   1      -4.515  -0.325   0.473  0.00  0.00     0.025 C 
HETATM    7  C   UNK N   1      -3.627  -0.571  -0.453  0.00  0.00     0.007 C 
BRANCH   5   8
HETATM    8  N   UNK N   1      -6.649   1.001   0.316  0.00  0.00    -0.278 N 
HETATM    9  C   UNK N   1      -7.127   2.257   0.509  0.00  0.00     0.111 A 
HETATM   10  C   UNK N   1      -8.486   2.504   0.568  0.00  0.00     0.022 A 
HETATM   11  C   UNK N   1      -8.964   3.904   0.752  0.00  0.00     0.056 C 
HETATM   12  C   UNK N   1      -9.369   1.434   0.418  0.00  0.00     0.256 A 
HETATM   13  N   UNK N   1      -8.876   0.167   0.237  0.00  0.00    -0.275 N 
HETATM   14  O   UNK N   1     -10.573   1.618   0.433  0.00  0.00    -0.267 OA
HETATM   15  C   UNK N   1      -7.527  -0.058   0.176  0.00  0.00     0.331 A 
HETATM   16  H   UNK N   1      -9.500  -0.590   0.150  0.00  0.00     0.173 HD
HETATM   17  O   UNK N   1      -7.117  -1.188  -0.032  0.00  0.00    -0.246 OA
ENDBRANCH   5   8
ENDBRANCH   2   3
ENDBRANCH   1   2
BRANCH   1  18
HETATM   18  P   UNK N   1      -1.123   1.778   0.452  0.00  0.00     0.401 P 
HETATM   19  O   UNK N   1      -1.942   1.004   1.519  0.00  0.00    -0.631 OA
BRANCH  18  20
HETATM   20  O   UNK N   1      -1.636   3.438   0.515  0.00  0.00    -0.307 OA
HETATM   21  H   UNK N   1      -0.977   4.149   0.550  0.00  0.00     0.222 HD
ENDBRANCH  18  20
BRANCH  18  22
HETATM   22  O   UNK N   1       0.549   1.634   0.918  0.00  0.00    -0.195 OA
BRANCH  22  23
HETATM   23  P   UNK N   1       1.269   0.447  -0.140  0.00  0.00     0.410 P 
HETATM   24  O   UNK N   1       0.368  -0.820  -0.122  0.00  0.00    -0.631 OA
BRANCH  23  25
HETATM   25  O   UNK N   1       1.360   0.992  -1.788  0.00  0.00    -0.307 OA
HETATM   26  H   UNK N   1       1.648   1.100  -2.707  0.00  0.00     0.222 HD
ENDBRANCH  23  25
BRANCH  23  27
HETATM   27  O   UNK N   1       2.814  -0.079   0.448  0.00  0.00    -0.195 OA
BRANCH  27  28
HETATM   28  P   UNK N   1       3.811   1.344   0.491  0.00  0.00     0.399 P 
HETATM   29  O   UNK N   1       5.165   0.900   1.103  0.00  0.00    -0.631 OA
BRANCH  28  30
HETATM   30  O   UNK N   1       4.162   1.951  -1.097  0.00  0.00    -0.307 OA
HETATM   31  H   UNK N   1       4.554   1.950  -1.984  0.00  0.00     0.222 HD
ENDBRANCH  28  30
BRANCH  28  32
HETATM   32  O   UNK N   1       3.178   2.571   1.543  0.00  0.00    -0.307 OA
HETATM   33  H   UNK N   1       3.595   3.221   2.130  0.00  0.00     0.222 HD
ENDBRANCH  28  32
ENDBRANCH  27  28
ENDBRANCH  23  27
ENDBRANCH  22  23
ENDBRANCH  18  22
ENDBRANCH   1  18
TORSDOF 12
