REMARK  9 active torsions:
REMARK  status: ('A' for Active; 'I' for Inactive)
REMARK    1  A    between atoms: C_6  and  C_7 
REMARK    2  A    between atoms: C_7  and  O_8 
REMARK    3  A    between atoms: O_8  and  P_9 
REMARK    4  A    between atoms: P_9  and  O_10 
REMARK    5  A    between atoms: P_9  and  O_11 
REMARK    6  A    between atoms: C_13  and  C_14 
REMARK    7  A    between atoms: C_14  and  N_15 
REMARK    8  A    between atoms: C_16  and  N_15 
REMARK    9  A    between atoms: C_22  and  O_23 
ROOT
HETATM    1  C   UNK N   1      -0.239   8.385   0.929  0.00  0.00     0.071 C 
HETATM    2  C   UNK N   1       1.078   7.851   0.480  0.00  0.00     0.039 A 
HETATM    3  N   UNK N   1       2.192   8.615   0.631  0.00  0.00    -0.367 N 
ATOM      4  HN  UNK N   1       2.108   9.535   1.064  1.00  0.00     0.165 HD
HETATM    5  C   UNK N   1       3.413   8.184   0.222  0.00  0.00     0.098 A 
HETATM    6  C   UNK N   1       3.559   6.931  -0.380  0.00  0.00    -0.008 A 
HETATM    7  C   UNK N   1       2.423   6.109  -0.546  0.00  0.00     0.004 A 
HETATM    8  C   UNK N   1       1.173   6.580  -0.108  0.00  0.00     0.096 A 
ENDROOT
BRANCH   7   9
HETATM    9  C   UNK N   1       2.498   4.765  -1.229  0.00  0.00     0.157 C 
BRANCH   9  10
HETATM   10  N   UNK N   1       3.619   3.938  -0.783  0.00  0.00    -0.404 N 
HETATM   11  H   UNK N   1       4.523   3.912  -1.254  0.00  0.00     0.154 HD
BRANCH  10  12
HETATM   12  C   UNK N   1       3.308   3.154   0.411  0.00  0.00     0.198 C 
HETATM   13  C   UNK N   1       4.467   2.169   0.658  0.00  0.00     0.235 C 
HETATM   14  O   UNK N   1       4.076   0.839   0.316  0.00  0.00    -0.275 OA
HETATM   15  N   UNK N   1       2.753   0.924   0.124  0.00  0.00    -0.233 N 
HETATM   16  C   UNK N   1       2.275   2.159   0.146  0.00  0.00     0.265 C 
HETATM   17  H   UNK N   1       2.183   0.134  -0.022  0.00  0.00     0.197 HD
HETATM   18  O   UNK N   1       1.096   2.412  -0.028  0.00  0.00    -0.269 OA
ENDBRANCH  10  12
ENDBRANCH   9  10
ENDBRANCH   7   9
BRANCH   6  19
HETATM   19  C   UNK N   1       4.914   6.508  -0.845  0.00  0.00     0.221 C 
BRANCH  19  20
HETATM   20  O   UNK N   1       5.757   6.299   0.252  0.00  0.00    -0.292 OA
BRANCH  20  21
HETATM   21  P   UNK N   1       7.019   5.269  -0.357  0.00  0.00     0.391 P 
HETATM   22  O   UNK N   1       6.519   4.433   0.851  0.00  0.00    -0.632 OA
BRANCH  21  23
HETATM   23  O   UNK N   1       8.495   5.005   0.515  0.00  0.00    -0.307 OA
HETATM   24  H   UNK N   1       8.780   4.216   1.002  0.00  0.00     0.222 HD
ENDBRANCH  21  23
BRANCH  21  25
HETATM   25  O   UNK N   1       7.678   6.756   0.251  0.00  0.00    -0.307 OA
HETATM   26  H   UNK N   1       8.582   6.852   0.591  0.00  0.00     0.222 HD
ENDBRANCH  21  25
ENDBRANCH  20  21
ENDBRANCH  19  20
ENDBRANCH   6  19
BRANCH   8  27
HETATM   27  O   UNK N   1       0.069   5.826  -0.267  0.00  0.00    -0.358 OA
HETATM   28  H   UNK N   1      -0.770   6.229  -0.378  0.00  0.00     0.217 HD
ENDBRANCH   8  27
TORSDOF 9
