REMARK  13 active torsions:
REMARK  status: ('A' for Active; 'I' for Inactive)
REMARK    1  A    between atoms: C_1  and  N_2 
REMARK    2  A    between atoms: C_7  and  C_12 
REMARK    3  A    between atoms: C_8  and  O_13 
REMARK    4  A    between atoms: C_12  and  O_16 
REMARK    5  A    between atoms: O_16  and  P_18 
REMARK    6  A    between atoms: P_18  and  O_19 
REMARK    7  A    between atoms: P_18  and  O_20 
REMARK    8  A    between atoms: O_19  and  P_22 
REMARK    9  A    between atoms: P_22  and  O_23 
REMARK   10  A    between atoms: P_22  and  O_24 
REMARK   11  A    between atoms: O_23  and  P_26 
REMARK   12  A    between atoms: P_26  and  O_27 
REMARK   13  A    between atoms: P_26  and  O_28 
ROOT
HETATM    1  C   UNK N   1      -0.791  -0.414   1.759  0.00  0.00     0.215 C 
ENDROOT
BRANCH   1   2
HETATM    2  C   UNK N   1       0.613  -0.968   1.500  0.00  0.00     0.177 C 
HETATM    3  O   UNK N   1       1.565   0.030   1.303  0.00  0.00    -0.356 OA
HETATM    4  C   UNK N   1       2.634  -0.708   0.770  0.00  0.00     0.235 C 
HETATM    5  C   UNK N   1       2.047  -1.664  -0.250  0.00  0.00     0.088 C 
HETATM    6  C   UNK N   1       0.682  -1.922   0.323  0.00  0.00     0.153 C 
BRANCH   4   7
HETATM    7  N   UNK N   1       3.692   0.158   0.226  0.00  0.00    -0.282 N 
HETATM    8  C   UNK N   1       4.829  -0.384  -0.346  0.00  0.00     0.331 A 
HETATM    9  N   UNK N   1       5.839   0.439  -0.770  0.00  0.00    -0.275 N 
HETATM   10  O   UNK N   1       4.951  -1.590  -0.465  0.00  0.00    -0.246 OA
HETATM   11  C   UNK N   1       5.748   1.796  -0.630  0.00  0.00     0.256 A 
HETATM   12  H   UNK N   1       6.643   0.047  -1.182  0.00  0.00     0.173 HD
HETATM   13  O   UNK N   1       6.670   2.505  -0.995  0.00  0.00    -0.267 OA
HETATM   14  C   UNK N   1       4.601   2.357  -0.064  0.00  0.00     0.022 A 
HETATM   15  C   UNK N   1       3.582   1.511   0.358  0.00  0.00     0.110 A 
HETATM   16  C   UNK N   1       4.458   3.830   0.118  0.00  0.00     0.056 C 
ENDBRANCH   4   7
BRANCH   6  17
HETATM   17  O   UNK N   1       0.549  -3.239   0.761  0.00  0.00    -0.393 OA
HETATM   18  H   UNK N   1      -0.291  -3.617   1.067  0.00  0.00     0.210 HD
ENDBRANCH   6  17
ENDBRANCH   1   2
BRANCH   1  19
HETATM   19  O   UNK N   1      -1.276   0.578   0.857  0.00  0.00    -0.294 OA
BRANCH  19  20
HETATM   20  P   UNK N   1      -1.209   0.132  -0.862  0.00  0.00     0.401 P 
HETATM   21  O   UNK N   1      -1.780   1.577  -0.850  0.00  0.00    -0.631 OA
BRANCH  20  22
HETATM   22  O   UNK N   1      -2.708   0.038  -1.860  0.00  0.00    -0.195 OA
BRANCH  22  23
HETATM   23  P   UNK N   1      -4.393   0.227  -1.216  0.00  0.00     0.410 P 
HETATM   24  O   UNK N   1      -3.808   0.617   0.165  0.00  0.00    -0.631 OA
BRANCH  23  25
HETATM   25  O   UNK N   1      -4.946  -1.001  -0.107  0.00  0.00    -0.195 OA
BRANCH  25  26
HETATM   26  P   UNK N   1      -6.621  -0.668   0.248  0.00  0.00     0.399 P 
HETATM   27  O   UNK N   1      -6.805   0.861   0.450  0.00  0.00    -0.631 OA
BRANCH  26  28
HETATM   28  O   UNK N   1      -7.074  -1.419   1.745  0.00  0.00    -0.307 OA
HETATM   29  H   UNK N   1      -7.564  -1.409   2.583  0.00  0.00     0.222 HD
ENDBRANCH  26  28
BRANCH  26  30
HETATM   30  O   UNK N   1      -7.665  -1.174  -1.042  0.00  0.00    -0.307 OA
HETATM   31  H   UNK N   1      -8.202  -0.810  -1.763  0.00  0.00     0.222 HD
ENDBRANCH  26  30
ENDBRANCH  25  26
ENDBRANCH  23  25
BRANCH  23  32
HETATM   32  O   UNK N   1      -4.181  -1.435  -1.691  0.00  0.00    -0.307 OA
HETATM   33  H   UNK N   1      -4.924  -2.000  -1.955  0.00  0.00     0.222 HD
ENDBRANCH  23  32
ENDBRANCH  22  23
ENDBRANCH  20  22
BRANCH  20  34
HETATM   34  O   UNK N   1      -2.144  -1.190  -0.218  0.00  0.00    -0.307 OA
HETATM   35  H   UNK N   1      -3.041  -1.107   0.141  0.00  0.00     0.222 HD
ENDBRANCH  20  34
ENDBRANCH  19  20
ENDBRANCH   1  19
TORSDOF 13
