REMARK  7 active torsions:
REMARK  status: ('A' for Active; 'I' for Inactive)
REMARK    1  A    between atoms: C_2  and  C_1 
REMARK    2  A    between atoms: O_10  and  C_1 
REMARK    3  A    between atoms: C_3  and  O_11 
REMARK    4  A    between atoms: C_4  and  O_12 
REMARK    5  A    between atoms: C_5  and  O_13 
REMARK    6  A    between atoms: C_7  and  C_6 
REMARK    7  A    between atoms: O_14  and  C_6 
ROOT
HETATM    1  C   UNK N   1       1.865   1.112  -0.111  0.00  0.00     0.180 C 
HETATM    2  C   UNK N   1       0.725   1.923   0.550  0.00  0.00     0.180 C 
HETATM    3  C   UNK N   1      -0.633   1.360   0.108  0.00  0.00     0.184 C 
HETATM    4  C   UNK N   1      -0.668  -0.150   0.387  0.00  0.00     0.220 C 
HETATM    5  C   UNK N   1       0.558  -0.848  -0.260  0.00  0.00     0.258 C 
HETATM    6  O   UNK N   1       0.517  -0.748  -1.658  0.00  0.00    -0.357 OA
HETATM    7  O   UNK N   1       1.759  -0.262   0.239  0.00  0.00    -0.336 OA
HETATM    8  H   UNK N   1       0.563  -0.689  -2.625  0.00  0.00     0.213 HD
ENDROOT
BRANCH   5   9
HETATM    9  C   UNK N   1       0.546  -2.323   0.079  0.00  0.00     0.176 C 
HETATM   10  N   UNK N   1       1.489  -2.846   0.770  0.00  0.00    -0.379 N 
HETATM   11  H   UNK N   1       1.504  -3.675   1.301  0.00  0.00     0.158 HD
ATOM     12  HN  UNK N   1       2.364  -2.321   0.770  1.00  0.00     0.158 HD
BRANCH   9  13
HETATM   13  O   UNK N   1      -0.457  -3.105  -0.371  0.00  0.00    -0.345 OA
HETATM   14  H   UNK N   1      -1.276  -2.773  -0.684  0.00  0.00     0.219 HD
ENDBRANCH   9  13
ENDBRANCH   5   9
BRANCH   4  15
HETATM   15  O   UNK N   1      -1.869  -0.691  -0.083  0.00  0.00    -0.387 OA
HETATM   16  H   UNK N   1      -2.610  -0.157  -0.409  0.00  0.00     0.210 HD
ENDBRANCH   4  15
BRANCH   3  17
HETATM   17  O   UNK N   1      -0.831   1.603  -1.256  0.00  0.00    -0.390 OA
HETATM   18  H   UNK N   1      -0.754   1.805  -2.202  0.00  0.00     0.210 HD
ENDBRANCH   3  17
BRANCH   1  19
HETATM   19  C   UNK N   1       3.234   1.598   0.360  0.00  0.00     0.198 C 
BRANCH  19  20
HETATM   20  O   UNK N   1       3.518   2.867  -0.148  0.00  0.00    -0.398 OA
HETATM   21  H   UNK N   1       4.380   3.138  -0.501  0.00  0.00     0.209 HD
ENDBRANCH  19  20
ENDBRANCH   1  19
BRANCH   2  22
HETATM   22  O   UNK N   1       0.806   3.276   0.206  0.00  0.00    -0.390 OA
HETATM   23  H   UNK N   1       1.646   3.696  -0.033  0.00  0.00     0.210 HD
ENDBRANCH   2  22
TORSDOF 7
