REMARK  13 active torsions:
REMARK  status: ('A' for Active; 'I' for Inactive)
REMARK    1  A    between atoms: C_1  and  C_3 
REMARK    2  A    between atoms: C_2  and  C_6 
REMARK    3  A    between atoms: C_6  and  C_41 
REMARK    4  A    between atoms: C_8  and  C_13 
REMARK    5  A    between atoms: C_10  and  C_15 
REMARK    6  A    between atoms: C_15  and  C_19 
REMARK    7  A    between atoms: C_16  and  C_20 
REMARK    8  A    between atoms: C_19  and  C_23 
REMARK    9  A    between atoms: C_21  and  C_26 
REMARK   10  A    between atoms: C_23  and  O_28 
REMARK   11  A    between atoms: C_35  and  C_38 
REMARK   12  A    between atoms: C_41  and  C_42 
REMARK   13  A    between atoms: C_42  and  O_44 
ROOT
HETATM    1  C   UNK N   1      15.127 -12.071   0.126  0.00  0.00     0.060 C 
HETATM    2  C   UNK N   1      13.916 -11.507   0.023  0.00  0.00     0.041 A 
HETATM    3  C   UNK N   1      12.673 -12.208   0.309  0.00  0.00    -0.023 A 
HETATM    4  N   UNK N   1      13.612 -10.153  -0.258  0.00  0.00    -0.355 N 
ATOM      5  HN  UNK N   1      14.279  -9.413  -0.476  1.00  0.00     0.166 HD
HETATM    6  C   UNK N   1      11.700 -11.317   0.168  0.00  0.00    -0.027 A 
HETATM    7  C   UNK N   1      12.328 -10.033  -0.187  0.00  0.00     0.041 A 
HETATM    8  C   UNK N   1      10.248 -11.552   0.434  0.00  0.00     0.051 C 
ENDROOT
BRANCH   1   9
HETATM    9  C   UNK N   1      16.442 -11.432  -0.035  0.00  0.00     0.041 A 
HETATM   10  C   UNK N   1      17.640 -12.103   0.110  0.00  0.00    -0.023 A 
HETATM   11  C   UNK N   1      18.636 -11.173  -0.057  0.00  0.00    -0.027 A 
HETATM   12  C   UNK N   1      20.104 -11.407   0.071  0.00  0.00     0.051 C 
HETATM   13  C   UNK N   1      18.007  -9.963  -0.261  0.00  0.00     0.041 A 
HETATM   14  N   UNK N   1      16.661 -10.119  -0.253  0.00  0.00    -0.355 N 
HETATM   15  H   UNK N   1      15.982  -9.418  -0.381  0.00  0.00     0.166 HD
BRANCH  10  16
HETATM   16  C   UNK N   1      17.796 -13.542   0.476  0.00  0.00     0.052 C 
BRANCH  16  17
HETATM   17  C   UNK N   1      18.395 -14.341  -0.657  0.00  0.00     0.115 C 
BRANCH  17  18
HETATM   18  C   UNK N   1      17.858 -15.728  -0.586  0.00  0.00     0.139 C 
HETATM   19  O   UNK N   1      18.240 -16.497   0.282  0.00  0.00    -0.650 OA
BRANCH  18  20
HETATM   20  O   UNK N   1      16.921 -16.121  -1.467  0.00  0.00    -0.776 OA
HETATM   21  H   UNK N   1      16.357 -15.692  -2.080  0.00  0.00     0.167 HD
ENDBRANCH  18  20
ENDBRANCH  17  18
ENDBRANCH  16  17
ENDBRANCH  10  16
BRANCH  13  22
HETATM   22  C   UNK N   1      18.706  -8.668  -0.307  0.00  0.00     0.060 C 
HETATM   23  C   UNK N   1      18.109  -7.528   0.057  0.00  0.00     0.048 A 
HETATM   24  C   UNK N   1      18.743  -6.201   0.184  0.00  0.00     0.001 A 
HETATM   25  N   UNK N   1      16.785  -7.446   0.544  0.00  0.00    -0.322 N 
HETATM   26  C   UNK N   1      17.823  -5.387   0.719  0.00  0.00     0.018 A 
HETATM   27  C   UNK N   1      18.012  -3.950   1.074  0.00  0.00     0.055 C 
HETATM   28  C   UNK N   1      16.613  -6.180   0.943  0.00  0.00     0.252 A 
HETATM   29  O   UNK N   1      15.581  -5.776   1.462  0.00  0.00    -0.268 OA
HETATM   30  H   UNK N   1      16.123  -8.174   0.582  0.00  0.00     0.169 HD
BRANCH  24  31
HETATM   31  C   UNK N   1      20.133  -5.805  -0.131  0.00  0.00     0.004 C 
HETATM   32  C   UNK N   1      21.041  -6.681  -0.557  0.00  0.00     0.012 C 
ENDBRANCH  24  31
ENDBRANCH  13  22
ENDBRANCH   1   9
BRANCH   3  33
HETATM   33  C   UNK N   1      12.539 -13.603   0.830  0.00  0.00     0.052 C 
BRANCH  33  34
HETATM   34  C   UNK N   1      12.238 -14.614  -0.251  0.00  0.00     0.115 C 
BRANCH  34  35
HETATM   35  C   UNK N   1      13.033 -15.842   0.039  0.00  0.00     0.139 C 
HETATM   36  O   UNK N   1      14.249 -15.821  -0.066  0.00  0.00    -0.650 OA
BRANCH  35  37
HETATM   37  O   UNK N   1      12.415 -16.967   0.443  0.00  0.00    -0.776 OA
HETATM   38  H   UNK N   1      11.522 -16.986   0.724  0.00  0.00     0.167 HD
ENDBRANCH  35  37
ENDBRANCH  34  35
ENDBRANCH  33  34
ENDBRANCH   3  33
BRANCH   7  39
HETATM   39  C   UNK N   1      11.584  -8.757  -0.183  0.00  0.00     0.060 C 
HETATM   40  C   UNK N   1      12.088  -7.540  -0.406  0.00  0.00     0.044 A 
HETATM   41  C   UNK N   1      11.362  -6.286  -0.176  0.00  0.00    -0.019 A 
HETATM   42  N   UNK N   1      13.416  -7.244  -0.772  0.00  0.00    -0.322 N 
HETATM   43  C   UNK N   1      12.227  -5.287  -0.367  0.00  0.00     0.039 A 
HETATM   44  C   UNK N   1       9.944  -6.148   0.281  0.00  0.00     0.052 C 
HETATM   45  C   UNK N   1      13.506  -5.900  -0.773  0.00  0.00     0.256 A 
HETATM   46  O   UNK N   1      14.520  -5.295  -1.081  0.00  0.00    -0.267 OA
HETATM   47  H   UNK N   1      14.131  -7.886  -0.983  0.00  0.00     0.169 HD
BRANCH  43  48
HETATM   48  C   UNK N   1      11.931  -3.856  -0.154  0.00  0.00     0.007 C 
HETATM   49  C   UNK N   1      12.882  -2.927  -0.225  0.00  0.00     0.012 C 
ENDBRANCH  43  48
ENDBRANCH   7  39
TORSDOF 13
