REMARK  11 active torsions:
REMARK  status: ('A' for Active; 'I' for Inactive)
REMARK    1  A    between atoms: C_6  and  C_7 
REMARK    2  A    between atoms: C_7  and  O_8 
REMARK    3  A    between atoms: O_8  and  P_9 
REMARK    4  A    between atoms: P_9  and  O_10 
REMARK    5  A    between atoms: P_9  and  O_11 
REMARK    6  A    between atoms: C_13  and  C_14 
REMARK    7  A    between atoms: C_14  and  N_15 
REMARK    8  A    between atoms: N_15  and  C_16 
REMARK    9  A    between atoms: C_16  and  C_19 
REMARK   10  A    between atoms: C_19  and  O_20 
REMARK   11  A    between atoms: C_22  and  O_23 
ROOT
HETATM    1  C   UNK N   1      -3.172   2.818   0.133  0.00  0.00     0.071 C 
HETATM    2  C   UNK N   1      -1.819   3.429   0.006  0.00  0.00     0.039 A 
HETATM    3  N   UNK N   1      -1.708   4.731  -0.371  0.00  0.00    -0.367 N 
ATOM      4  HN  UNK N   1      -2.555   5.266  -0.565  1.00  0.00     0.165 HD
HETATM    5  C   UNK N   1      -0.499   5.337  -0.496  0.00  0.00     0.098 A 
HETATM    6  C   UNK N   1       0.679   4.633  -0.233  0.00  0.00    -0.008 A 
HETATM    7  C   UNK N   1       0.595   3.281   0.159  0.00  0.00     0.004 A 
HETATM    8  C   UNK N   1      -0.667   2.679   0.277  0.00  0.00     0.096 A 
ENDROOT
BRANCH   7   9
HETATM    9  C   UNK N   1       1.822   2.491   0.492  0.00  0.00     0.157 C 
BRANCH   9  10
HETATM   10  N   UNK N   1       2.524   2.059  -0.713  0.00  0.00    -0.400 N 
HETATM   11  H   UNK N   1       2.136   2.057  -1.656  0.00  0.00     0.154 HD
BRANCH  10  12
HETATM   12  C   UNK N   1       3.878   1.632  -0.350  0.00  0.00     0.112 A 
HETATM   13  C   UNK N   1       3.888   0.471   0.636  0.00  0.00     0.045 A 
HETATM   14  C   UNK N   1       4.297   0.249  -0.808  0.00  0.00     0.045 A 
BRANCH  12  15
HETATM   15  C   UNK N   1       4.913   2.672  -0.024  0.00  0.00     0.169 C 
HETATM   16  O   UNK N   1       4.582   3.834   0.143  0.00  0.00    -0.648 OA
BRANCH  15  17
HETATM   17  O   UNK N   1       6.213   2.332   0.080  0.00  0.00    -0.775 OA
HETATM   18  H   UNK N   1       6.460   1.431   0.151  0.00  0.00     0.167 HD
ENDBRANCH  15  17
ENDBRANCH  12  15
ENDBRANCH  10  12
ENDBRANCH   9  10
ENDBRANCH   7   9
BRANCH   6  19
HETATM   19  C   UNK N   1       1.993   5.338  -0.355  0.00  0.00     0.221 C 
BRANCH  19  20
HETATM   20  O   UNK N   1       2.040   6.404   0.548  0.00  0.00    -0.292 OA
BRANCH  20  21
HETATM   21  P   UNK N   1       3.582   7.185   0.324  0.00  0.00     0.391 P 
HETATM   22  O   UNK N   1       4.444   6.867   1.575  0.00  0.00    -0.632 OA
BRANCH  21  23
HETATM   23  O   UNK N   1       4.465   6.616  -1.061  0.00  0.00    -0.307 OA
HETATM   24  H   UNK N   1       4.437   6.030  -1.834  0.00  0.00     0.222 HD
ENDBRANCH  21  23
BRANCH  21  25
HETATM   25  O   UNK N   1       3.404   8.911   0.269  0.00  0.00    -0.307 OA
HETATM   26  H   UNK N   1       4.190   9.479   0.239  0.00  0.00     0.222 HD
ENDBRANCH  21  25
ENDBRANCH  20  21
ENDBRANCH  19  20
ENDBRANCH   6  19
BRANCH   8  27
HETATM   27  O   UNK N   1      -0.772   1.388   0.652  0.00  0.00    -0.358 OA
HETATM   28  H   UNK N   1      -1.585   1.002   0.912  0.00  0.00     0.217 HD
ENDBRANCH   8  27
TORSDOF 11
