REMARK  11 active torsions:
REMARK  status: ('A' for Active; 'I' for Inactive)
REMARK    1  A    between atoms: C_6  and  C_2 
REMARK    2  A    between atoms: O_15  and  C_2 
REMARK    3  A    between atoms: C_5  and  C_3 
REMARK    4  A    between atoms: O_21  and  C_3 
REMARK    5  A    between atoms: O_16  and  C_4 
REMARK    6  A    between atoms: C_10  and  C_5 
REMARK    7  A    between atoms: C_5  and  N_12 
REMARK    8  A    between atoms: C_7  and  N_13 
REMARK    9  A    between atoms: C_9  and  O_18 
REMARK   10  A    between atoms: O_20  and  C_10 
REMARK   11  A    between atoms: C_11  and  O_21 
ROOT
HETATM    1  C   UNK N   1       6.004   3.073  -0.013  0.00  0.00     0.179 C 
HETATM    2  C   UNK N   1       3.663   4.736   0.368  0.00  0.00     0.169 C 
HETATM    3  C   UNK N   1       6.207   4.543   0.393  0.00  0.00     0.180 C 
HETATM    4  C   UNK N   1       5.006   5.354  -0.116  0.00  0.00     0.177 C 
HETATM    5  C   UNK N   1       3.673   3.208  -0.008  0.00  0.00     0.285 C 
HETATM    6  O   UNK N   1       6.302   4.648   1.785  0.00  0.00    -0.390 OA
HETATM    7  O   UNK N   1       4.812   2.591   0.571  0.00  0.00    -0.349 OA
HETATM    8  H   UNK N   1       6.397   4.627   2.750  0.00  0.00     0.210 HD
ENDROOT
BRANCH   1   9
HETATM    9  C   UNK N   1       7.151   2.189   0.467  0.00  0.00     0.198 C 
BRANCH   9  10
HETATM   10  O   UNK N   1       8.317   2.463  -0.249  0.00  0.00    -0.398 OA
HETATM   11  H   UNK N   1       8.887   1.856  -0.746  0.00  0.00     0.209 HD
ENDBRANCH   9  10
ENDBRANCH   1   9
BRANCH   4  12
HETATM   12  O   UNK N   1       5.138   6.684   0.289  0.00  0.00    -0.391 OA
HETATM   13  H   UNK N   1       5.984   7.067   0.570  0.00  0.00     0.210 HD
ENDBRANCH   4  12
BRANCH   2  14
HETATM   14  N   UNK N   1       2.548   5.397  -0.298  0.00  0.00    -0.363 N 
HETATM   15  C   UNK N   1       2.117   6.580  -0.015  0.00  0.00     0.107 C 
HETATM   16  C   UNK N   1       0.986   7.151  -0.796  0.00  0.00     0.097 C 
ATOM     17  HN  UNK N   1       2.074   4.887  -1.043  1.00  0.00     0.162 HD
BRANCH  15  18
HETATM   18  O   UNK N   1       2.655   7.300   0.990  0.00  0.00    -0.350 OA
HETATM   19  H   UNK N   1       3.276   7.226   1.688  0.00  0.00     0.219 HD
ENDBRANCH  15  18
ENDBRANCH   2  14
BRANCH   5  20
HETATM   20  O   UNK N   1       2.564   2.403   0.381  0.00  0.00    -0.356 OA
BRANCH  20  21
HETATM   21  C   UNK N   1       1.457   3.118   0.859  0.00  0.00     0.206 C 
BRANCH  21  22
HETATM   22  C   UNK N   1       0.274   2.943  -0.083  0.00  0.00     0.197 C 
BRANCH  22  23
HETATM   23  C   UNK N   1      -0.911   3.687   0.465  0.00  0.00     0.165 C 
HETATM   24  O   UNK N   1      -1.949   3.099   0.733  0.00  0.00    -0.648 OA
BRANCH  23  25
HETATM   25  O   UNK N   1      -0.833   5.016   0.665  0.00  0.00    -0.775 OA
HETATM   26  H   UNK N   1      -0.004   5.431   0.804  0.00  0.00     0.167 HD
ENDBRANCH  23  25
ENDBRANCH  22  23
BRANCH  22  27
HETATM   27  N   UNK N   1      -0.031   1.526  -0.229  0.00  0.00    -0.416 N 
HETATM   28  H   UNK N   1      -0.997   1.214  -0.330  0.00  0.00     0.150 HD
HETATM   29  H   UNK N   1       0.726   0.841  -0.229  0.00  0.00     0.150 HD
ENDBRANCH  22  27
ENDBRANCH  21  22
ENDBRANCH  20  21
ENDBRANCH   5  20
TORSDOF 11
