REMARK  0 active torsions:
REMARK  status: ('A' for Active; 'I' for Inactive)
ROOT
HETATM    1  C   UNK N   1       1.961   1.650   0.000  0.00  0.00     0.116 C 
HETATM    2  P   UNK N   1       1.100   0.004   0.000  0.00  0.00     0.093 P 
HETATM    3  O   UNK N   1       1.835  -1.567   0.000  0.00  0.00    -0.669 OA
HETATM    4  O   UNK N   1      -0.449  -0.087   0.000  0.00  0.00    -0.669 OA
HETATM    5  H   UNK N   1       2.480  -0.026   0.000  0.00  0.00     0.130 HD
ENDROOT
TORSDOF 0
