REMARK  6 active torsions:
REMARK  status: ('A' for Active; 'I' for Inactive)
REMARK       I    between atoms: C_2  and  N_4 
REMARK    1  A    between atoms: N_4  and  C_5 
REMARK    2  A    between atoms: C_8  and  C_16 
REMARK    3  A    between atoms: C_10  and  N_11 
REMARK       I    between atoms: N_11  and  C_12 
REMARK    4  A    between atoms: C_12  and  C_14 
REMARK    5  A    between atoms: C_14  and  N_15 
REMARK    6  A    between atoms: C_16  and  O_17 
ROOT
HETATM    1  C   UNK N   1       1.963   0.705  -0.008  0.00  0.00     0.061 A 
HETATM    2  C   UNK N   1       2.014  -0.699  -0.031  0.00  0.00     0.033 A 
HETATM    3  C   UNK N   1       0.840  -1.452   0.027  0.00  0.00     0.021 A 
HETATM    4  C   UNK N   1      -0.404  -0.816   0.110  0.00  0.00     0.040 A 
HETATM    5  C   UNK N   1      -0.459   0.585   0.131  0.00  0.00     0.050 A 
HETATM    6  C   UNK N   1       0.718   1.349   0.069  0.00  0.00     0.062 A 
ENDROOT
BRANCH   6   7
HETATM    7  N   UNK N   1       0.698   2.776   0.079  0.00  0.00    -0.324 N 
HETATM    8  C   UNK N   1      -0.390   3.578  -0.043  0.00  0.00     0.247 C 
HETATM    9  O   UNK N   1      -1.507   3.111  -0.209  0.00  0.00    -0.271 OA
HETATM   10  H   UNK N   1       1.566   3.227   0.186  0.00  0.00     0.169 HD
BRANCH   8  11
HETATM   11  C   UNK N   1      -0.181   5.064  -0.016  0.00  0.00     0.332 C 
BRANCH  11  12
HETATM   12  N   UNK N   1      -1.408   5.784  -0.318  0.00  0.00    -0.071 N 
HETATM   13  H   UNK N   1      -1.401   6.781  -0.530  0.00  0.00     0.274 HD
HETATM   14  H   UNK N   1      -2.295   5.280  -0.318  0.00  0.00     0.274 HD
HETATM   15  H   UNK N   1      -2.278   6.272  -0.527  0.00  0.00     0.274 HD
ENDBRANCH  11  12
ENDBRANCH   8  11
ENDBRANCH   6   7
BRANCH   1  16
HETATM   16  N   UNK N   1       3.141   1.505  -0.094  0.00  0.00    -0.326 N 
HETATM   17  C   UNK N   1       4.426   1.068  -0.087  0.00  0.00     0.218 C 
HETATM   18  C   UNK N   1       5.529   2.056  -0.237  0.00  0.00     0.117 C 
HETATM   19  O   UNK N   1       4.694  -0.116   0.047  0.00  0.00    -0.274 OA
HETATM   20  H   UNK N   1       3.007   2.478  -0.165  0.00  0.00     0.169 HD
ENDBRANCH   1  16
BRANCH   4  21
HETATM   21  C   UNK N   1      -1.648  -1.611   0.171  0.00  0.00     0.176 C 
HETATM   22  O   UNK N   1      -1.603  -2.831   0.126  0.00  0.00    -0.646 OA
BRANCH  21  23
HETATM   23  O   UNK N   1      -2.842  -0.995   0.275  0.00  0.00    -0.773 OA
HETATM   24  H   UNK N   1      -2.886  -0.062   0.348  0.00  0.00     0.167 HD
ENDBRANCH  21  23
ENDBRANCH   4  21
TORSDOF 6
