REMARK  10 active torsions:
REMARK  status: ('A' for Active; 'I' for Inactive)
REMARK    1  A    between atoms: C_3  and  C_2 
REMARK    2  A    between atoms: O_21  and  C_2 
REMARK    3  A    between atoms: O_13  and  C_4 
REMARK    4  A    between atoms: O_14  and  C_5 
REMARK    5  A    between atoms: C_6  and  O_15 
REMARK    6  A    between atoms: C_7  and  O_16 
REMARK    7  A    between atoms: C_8  and  N_12 
REMARK    8  A    between atoms: P_23  and  O_18 
REMARK    9  A    between atoms: P_23  and  O_19 
REMARK   10  A    between atoms: P_23  and  O_21 
ROOT
HETATM    1  C   UNK N   1       1.859   3.461  -0.695  0.00  0.00     0.180 C 
HETATM    2  C   UNK N   1       1.019   4.448   0.154  0.00  0.00     0.182 C 
HETATM    3  C   UNK N   1      -0.345   3.775   0.160  0.00  0.00     0.198 C 
HETATM    4  C   UNK N   1       0.157   2.343   0.198  0.00  0.00     0.266 C 
HETATM    5  O   UNK N   1       1.064   2.314  -0.877  0.00  0.00    -0.353 OA
ENDROOT
BRANCH   4   6
HETATM    6  N   UNK N   1      -0.744   1.172   0.111  0.00  0.00    -0.249 N 
HETATM    7  C   UNK N   1      -2.111   1.240  -0.003  0.00  0.00     0.152 A 
HETATM    8  C   UNK N   1      -2.869   0.067  -0.047  0.00  0.00     0.112 A 
HETATM    9  C   UNK N   1      -2.227  -1.164   0.026  0.00  0.00     0.147 A 
HETATM   10  N   UNK N   1      -0.883  -1.218   0.133  0.00  0.00    -0.289 N 
HETATM   11  C   UNK N   1      -0.133  -0.077   0.177  0.00  0.00     0.332 A 
ATOM     12  HN  UNK N   1      -0.420  -2.125   0.182  1.00  0.00     0.172 HD
HETATM   13  O   UNK N   1       1.078  -0.174   0.283  0.00  0.00    -0.246 OA
BRANCH   7  14
HETATM   14  O   UNK N   1      -2.754   2.417  -0.072  0.00  0.00    -0.346 OA
HETATM   15  H   UNK N   1      -2.267   3.216  -0.119  0.00  0.00     0.219 HD
ENDBRANCH   7  14
BRANCH   9  16
HETATM   16  O   UNK N   1      -2.939  -2.301  -0.006  0.00  0.00    -0.346 OA
HETATM   17  H   UNK N   1      -3.875  -2.267  -0.029  0.00  0.00     0.219 HD
ENDBRANCH   9  16
ENDBRANCH   4   6
BRANCH   3  18
HETATM   18  O   UNK N   1      -1.099   4.141   1.279  0.00  0.00    -0.388 OA
HETATM   19  H   UNK N   1      -1.141   4.721   2.055  0.00  0.00     0.210 HD
ENDBRANCH   3  18
BRANCH   2  20
HETATM   20  O   UNK N   1       0.975   5.738  -0.383  0.00  0.00    -0.390 OA
HETATM   21  H   UNK N   1       1.735   6.212  -0.756  0.00  0.00     0.210 HD
ENDBRANCH   2  20
BRANCH   1  22
HETATM   22  C   UNK N   1       3.104   2.929   0.017  0.00  0.00     0.215 C 
BRANCH  22  23
HETATM   23  O   UNK N   1       3.974   3.916   0.475  0.00  0.00    -0.294 OA
BRANCH  23  24
HETATM   24  P   UNK N   1       5.389   3.766  -0.526  0.00  0.00     0.390 P 
HETATM   25  O   UNK N   1       5.424   5.241  -0.049  0.00  0.00    -0.632 OA
BRANCH  24  26
HETATM   26  O   UNK N   1       6.978   3.955   0.141  0.00  0.00    -0.307 OA
HETATM   27  H   UNK N   1       7.514   3.238   0.514  0.00  0.00     0.222 HD
ENDBRANCH  24  26
BRANCH  24  28
HETATM   28  O   UNK N   1       5.647   2.700   0.829  0.00  0.00    -0.307 OA
HETATM   29  H   UNK N   1       5.206   2.279   1.583  0.00  0.00     0.222 HD
ENDBRANCH  24  28
ENDBRANCH  23  24
ENDBRANCH  22  23
ENDBRANCH   1  22
TORSDOF 10
