REMARK  18 active torsions:
REMARK  status: ('A' for Active; 'I' for Inactive)
REMARK    1  A    between atoms: C_2  and  C_1 
REMARK    2  A    between atoms: C_3  and  C_1 
REMARK    3  A    between atoms: C_6  and  C_2 
REMARK    4  A    between atoms: N_16  and  C_3 
REMARK    5  A    between atoms: C_7  and  C_4 
REMARK    6  A    between atoms: O_29  and  C_4 
REMARK    7  A    between atoms: N_17  and  C_5 
REMARK    8  A    between atoms: O_18  and  C_5 
REMARK    9  A    between atoms: C_10  and  C_6 
REMARK   10  A    between atoms: C_6  and  N_17 
REMARK   11  A    between atoms: C_8  and  O_19 
REMARK   12  A    between atoms: C_9  and  O_20 
REMARK   13  A    between atoms: O_22  and  C_10 
REMARK   14  A    between atoms: O_24  and  C_12 
REMARK   15  A    between atoms: O_25  and  N_17 
REMARK   16  A    between atoms: P_31  and  O_26 
REMARK   17  A    between atoms: P_31  and  O_27 
REMARK   18  A    between atoms: P_31  and  O_29 
ROOT
HETATM    1  C   UNK N   1       8.818   6.844  -1.054  0.00  0.00     0.181 C 
HETATM    2  C   UNK N   1       8.780   7.209   0.434  0.00  0.00     0.183 C 
HETATM    3  C   UNK N   1       7.671   8.218   0.426  0.00  0.00     0.215 C 
HETATM    4  C   UNK N   1       5.855   6.347  -0.003  0.00  0.00     0.286 A 
HETATM    5  C   UNK N   1       4.520   7.809  -0.943  0.00  0.00     0.224 A 
HETATM    6  C   UNK N   1       6.713   7.497  -0.519  0.00  0.00     0.250 A 
HETATM    7  N   UNK N   1       5.670   8.370  -1.044  0.00  0.00    -0.314 N 
ATOM      8  HN  UNK N   1       5.832   9.298  -1.437  1.00  0.00     0.166 HD
HETATM    9  N   UNK N   1       4.580   6.547  -0.342  0.00  0.00    -0.280 N 
HETATM   10  O   UNK N   1       6.261   5.314   0.503  0.00  0.00    -0.267 OA
HETATM   11  O   UNK N   1       7.509   7.001  -1.575  0.00  0.00    -0.340 OA
ENDROOT
BRANCH   3  12
HETATM   12  O   UNK N   1       7.144   8.481   1.692  0.00  0.00    -0.387 OA
HETATM   13  H   UNK N   1       7.119   8.889   2.572  0.00  0.00     0.210 HD
ENDBRANCH   3  12
BRANCH   2  14
HETATM   14  O   UNK N   1       9.995   7.727   0.889  0.00  0.00    -0.390 OA
HETATM   15  H   UNK N   1      10.728   7.176   1.205  0.00  0.00     0.210 HD
ENDBRANCH   2  14
BRANCH   9  16
HETATM   16  C   UNK N   1       3.555   5.520  -0.400  0.00  0.00     0.136 C 
BRANCH  16  17
HETATM   17  C   UNK N   1       2.971   5.086   0.939  0.00  0.00     0.022 C 
BRANCH  17  18
HETATM   18  C   UNK N   1       1.886   6.028   1.469  0.00  0.00     0.035 C 
BRANCH  18  19
HETATM   19  C   UNK N   1       1.021   6.764   0.418  0.00  0.00     0.186 C 
BRANCH  19  20
HETATM   20  C   UNK N   1       0.580   8.062   1.037  0.00  0.00     0.160 C 
HETATM   21  O   UNK N   1      -0.598   8.372   1.089  0.00  0.00    -0.649 OA
BRANCH  20  22
HETATM   22  O   UNK N   1       1.511   8.905   1.528  0.00  0.00    -0.775 OA
HETATM   23  H   UNK N   1       2.342   8.638   1.869  0.00  0.00     0.167 HD
ENDBRANCH  20  22
ENDBRANCH  19  20
BRANCH  19  24
HETATM   24  N   UNK N   1      -0.098   5.968  -0.130  0.00  0.00    -0.162 NA
BRANCH  24  25
HETATM   25  C   UNK N   1      -1.025   5.502   0.893  0.00  0.00     0.285 C 
BRANCH  25  26
HETATM   26  O   UNK N   1      -2.287   6.045   0.647  0.00  0.00    -0.385 OA
HETATM   27  H   UNK N   1      -2.400   6.993   0.476  0.00  0.00     0.211 HD
ENDBRANCH  25  26
ENDBRANCH  24  25
BRANCH  24  28
HETATM   28  O   UNK N   1       0.395   4.879  -0.770  0.00  0.00    -0.310 OA
HETATM   29  H   UNK N   1      -0.104   4.184  -1.228  0.00  0.00     0.237 HD
ENDBRANCH  24  28
ENDBRANCH  19  24
ENDBRANCH  18  19
ENDBRANCH  17  18
ENDBRANCH  16  17
ENDBRANCH   9  16
BRANCH   5  30
HETATM   30  O   UNK N   1       3.394   8.376  -1.411  0.00  0.00    -0.332 OA
HETATM   31  H   UNK N   1       3.344   9.253  -1.737  0.00  0.00     0.220 HD
ENDBRANCH   5  30
BRANCH   1  32
HETATM   32  C   UNK N   1       9.324   5.416  -1.294  0.00  0.00     0.215 C 
BRANCH  32  33
HETATM   33  O   UNK N   1       8.304   4.489  -1.035  0.00  0.00    -0.294 OA
BRANCH  33  34
HETATM   34  P   UNK N   1       8.899   3.349   0.144  0.00  0.00     0.390 P 
HETATM   35  O   UNK N   1       9.658   4.114   1.262  0.00  0.00    -0.632 OA
BRANCH  34  36
HETATM   36  O   UNK N   1       9.995   2.206  -0.562  0.00  0.00    -0.307 OA
HETATM   37  H   UNK N   1       9.748   1.356  -0.957  0.00  0.00     0.222 HD
ENDBRANCH  34  36
BRANCH  34  38
HETATM   38  O   UNK N   1       7.578   2.528   0.917  0.00  0.00    -0.307 OA
HETATM   39  H   UNK N   1       6.812   2.938   1.349  0.00  0.00     0.222 HD
ENDBRANCH  34  38
ENDBRANCH  33  34
ENDBRANCH  32  33
ENDBRANCH   1  32
TORSDOF 18
