REMARK  9 active torsions:
REMARK  status: ('A' for Active; 'I' for Inactive)
REMARK    1  A    between atoms: C_4  and  C_2 
REMARK    2  A    between atoms: O_25  and  C_2 
REMARK    3  A    between atoms: C_3  and  O_19 
REMARK    4  A    between atoms: C_5  and  N_18 
REMARK    5  A    between atoms: O_20  and  C_8 
REMARK    6  A    between atoms: O_21  and  C_10 
REMARK    7  A    between atoms: P_27  and  O_22 
REMARK    8  A    between atoms: P_27  and  O_23 
REMARK    9  A    between atoms: P_27  and  O_25 
ROOT
HETATM    1  C   UNK N   1       1.494   0.657   0.109  0.00  0.00     0.132 A 
HETATM    2  C   UNK N   1       1.209  -0.652  -0.095  0.00  0.00     0.160 A 
HETATM    3  C   UNK N   1       2.802   1.069   0.280  0.00  0.00     0.186 A 
HETATM    4  C   UNK N   1       3.477  -1.206   0.032  0.00  0.00     0.679 A 
HETATM    5  C   UNK N   1      -0.606   0.462  -0.124  0.00  0.00     0.228 A 
HETATM    6  N   UNK N   1       4.415  -2.074  -0.003  0.00  0.00    -0.234 N 
ATOM      7  HN  UNK N   1       5.389  -1.771  -0.003  1.00  0.00     0.174 HD
HETATM    8  N   UNK N   1       0.363   1.385   0.099  0.00  0.00    -0.315 N 
ATOM      9  HN  UNK N   1       0.258   2.392   0.228  1.00  0.00     0.170 HD
HETATM   10  N   UNK N   1       2.175  -1.603  -0.140  0.00  0.00    -0.174 N 
HETATM   11  N   UNK N   1       3.782   0.119   0.238  0.00  0.00    -0.168 N 
ATOM     12  HN  UNK N   1       4.756   0.396   0.362  1.00  0.00     0.186 HD
HETATM   13  N   UNK N   1      -0.118  -0.800  -0.248  0.00  0.00    -0.269 N 
HETATM   14  H   UNK N   1       4.198  -3.034  -0.031  0.00  0.00     0.174 HD
HETATM   15  H   UNK N   1       1.948  -2.549  -0.291  0.00  0.00     0.186 HD
ENDROOT
BRANCH  13  16
HETATM   16  C   UNK N   1      -0.924  -1.994  -0.522  0.00  0.00     0.236 C 
HETATM   17  C   UNK N   1      -1.945  -2.223   0.582  0.00  0.00     0.088 C 
HETATM   18  C   UNK N   1      -2.308  -3.636   0.289  0.00  0.00     0.153 C 
HETATM   19  C   UNK N   1      -0.921  -4.192  -0.008  0.00  0.00     0.177 C 
HETATM   20  O   UNK N   1      -0.158  -3.178  -0.641  0.00  0.00    -0.356 OA
BRANCH  18  21
HETATM   21  O   UNK N   1      -3.130  -3.665  -0.846  0.00  0.00    -0.393 OA
HETATM   22  H   UNK N   1      -3.432  -3.182  -1.631  0.00  0.00     0.210 HD
ENDBRANCH  18  21
BRANCH  19  23
HETATM   23  C   UNK N   1      -1.024  -5.449  -0.870  0.00  0.00     0.215 C 
BRANCH  23  24
HETATM   24  O   UNK N   1       0.164  -6.178  -0.848  0.00  0.00    -0.294 OA
BRANCH  24  25
HETATM   25  P   UNK N   1      -0.115  -7.446   0.317  0.00  0.00     0.390 P 
HETATM   26  O   UNK N   1       0.654  -7.056   1.607  0.00  0.00    -0.632 OA
BRANCH  25  27
HETATM   27  O   UNK N   1       0.529  -8.964  -0.223  0.00  0.00    -0.307 OA
HETATM   28  H   UNK N   1      -0.026  -9.700  -0.525  0.00  0.00     0.222 HD
ENDBRANCH  25  27
BRANCH  25  29
HETATM   29  O   UNK N   1      -1.790  -7.608   0.756  0.00  0.00    -0.307 OA
HETATM   30  H   UNK N   1      -2.336  -6.845   1.001  0.00  0.00     0.222 HD
ENDBRANCH  25  29
ENDBRANCH  24  25
ENDBRANCH  23  24
ENDBRANCH  19  23
ENDBRANCH  13  16
BRANCH   5  31
HETATM   31  O   UNK N   1      -1.911   0.772  -0.223  0.00  0.00    -0.332 OA
HETATM   32  H   UNK N   1      -2.178   1.667  -0.292  0.00  0.00     0.221 HD
ENDBRANCH   5  31
BRANCH   3  33
HETATM   33  O   UNK N   1       3.107   2.363   0.474  0.00  0.00    -0.344 OA
HETATM   34  H   UNK N   1       3.995   2.630   0.610  0.00  0.00     0.219 HD
ENDBRANCH   3  33
TORSDOF 9
