REMARK  4 active torsions:
REMARK  status: ('A' for Active; 'I' for Inactive)
REMARK    1  A    between atoms: C_8  and  C_9 
REMARK    2  A    between atoms: O_20  and  C_9 
REMARK    3  A    between atoms: O_21  and  C_10 
REMARK    4  A    between atoms: O_22  and  C_11 
ROOT
HETATM    1  C   UNK N   1       3.782   1.731   0.686  0.00  0.00     0.045 A 
HETATM    2  C   UNK N   1       3.349   0.446   0.345  0.00  0.00     0.040 A 
HETATM    3  C   UNK N   1       1.511   2.551   0.509  0.00  0.00     0.055 A 
HETATM    4  C   UNK N   1      -0.597  -0.351  -0.861  0.00  0.00     0.086 C 
HETATM    5  C   UNK N   1       2.863   2.780   0.776  0.00  0.00     0.117 A 
HETATM    6  C   UNK N   1       1.068   1.269   0.148  0.00  0.00     0.015 A 
HETATM    7  C   UNK N   1       1.996   0.207   0.086  0.00  0.00     0.079 A 
HETATM    8  C   UNK N   1       0.245  -1.413  -0.155  0.00  0.00     0.206 C 
HETATM    9  C   UNK N   1      -1.298   1.202   1.009  0.00  0.00     0.152 A 
HETATM   10  C   UNK N   1      -1.869   2.678  -0.432  0.00  0.00     0.220 A 
HETATM   11  C   UNK N   1      -0.392   1.020  -0.191  0.00  0.00     0.131 A 
HETATM   12  F   UNK N   1       3.286   4.023   1.107  0.00  0.00    -0.206 F 
HETATM   13  N   UNK N   1      -2.125   2.157   0.837  0.00  0.00    -0.304 N 
ATOM     14  HN  UNK N   1      -2.835   2.476   1.497  1.00  0.00     0.171 HD
HETATM   15  N   UNK N   1      -0.920   2.074  -1.042  0.00  0.00    -0.335 N 
ATOM     16  HN  UNK N   1      -0.586   2.297  -1.980  1.00  0.00     0.164 HD
HETATM   17  O   UNK N   1       1.582  -1.049  -0.219  0.00  0.00    -0.337 OA
ENDROOT
BRANCH   9  18
HETATM   18  O   UNK N   1      -1.265   0.461   2.133  0.00  0.00    -0.347 OA
HETATM   19  H   UNK N   1      -1.700   0.183   2.915  0.00  0.00     0.219 HD
ENDBRANCH   9  18
BRANCH   8  20
HETATM   20  C   UNK N   1       0.019  -2.770  -0.760  0.00  0.00     0.139 C 
HETATM   21  N   UNK N   1       1.000  -3.451  -1.228  0.00  0.00    -0.382 N 
HETATM   22  H   UNK N   1       0.924  -4.365  -1.587  0.00  0.00     0.158 HD
ATOM     23  HN  UNK N   1       1.923  -3.017  -1.228  1.00  0.00     0.158 HD
BRANCH  20  24
HETATM   24  O   UNK N   1      -1.224  -3.289  -0.791  0.00  0.00    -0.348 OA
HETATM   25  H   UNK N   1      -1.968  -2.720  -0.812  0.00  0.00     0.219 HD
ENDBRANCH  20  24
ENDBRANCH   8  20
BRANCH  10  26
HETATM   26  O   UNK N   1      -2.545   3.714  -0.962  0.00  0.00    -0.332 OA
HETATM   27  H   UNK N   1      -2.155   4.482  -1.331  0.00  0.00     0.220 HD
ENDBRANCH  10  26
TORSDOF 4
