REMARK  5 active torsions:
REMARK  status: ('A' for Active; 'I' for Inactive)
REMARK    1  A    between atoms: S_2  and  C_3 
REMARK    2  A    between atoms: C_3  and  C_4 
REMARK    3  A    between atoms: C_4  and  N_5 
REMARK    4  A    between atoms: C_4  and  C_6 
REMARK    5  A    between atoms: C_6  and  O_7 
ROOT
HETATM    1  C   UNK N   1       2.250   1.409   0.000  0.00  0.00     0.182 C 
ENDROOT
BRANCH   1   2
HETATM    2  C   UNK N   1       0.716   1.331  -0.000  0.00  0.00     0.108 C 
BRANCH   2   3
HETATM    3  S   UNK N   1       0.038  -0.362   0.000  0.00  0.00    -0.171 SA
HETATM    4  C   UNK N   1      -1.681   0.211  -0.000  0.00  0.00     0.089 C 
ENDBRANCH   2   3
ENDBRANCH   1   2
BRANCH   1   5
HETATM    5  N   UNK N   1       2.815   2.747  -0.000  0.00  0.00    -0.417 N 
HETATM    6  H   UNK N   1       3.827   2.874  -0.000  0.00  0.00     0.150 HD
HETATM    7  H   UNK N   1       2.199   3.560  -0.000  0.00  0.00     0.150 HD
ENDBRANCH   1   5
BRANCH   1   8
HETATM    8  C   UNK N   1       3.234   0.264  -0.000  0.00  0.00     0.163 C 
HETATM    9  O   UNK N   1       2.856  -0.891  -0.000  0.00  0.00    -0.648 OA
BRANCH   8  10
HETATM   10  O   UNK N   1       4.558   0.525  -0.000  0.00  0.00    -0.775 OA
HETATM   11  H   UNK N   1       5.175  -0.180  -0.000  0.00  0.00     0.167 HD
ENDBRANCH   8  10
ENDBRANCH   1   8
TORSDOF 5
