REMARK  12 active torsions:
REMARK  status: ('A' for Active; 'I' for Inactive)
REMARK    1  A    between atoms: C_7  and  C_6 
REMARK    2  A    between atoms: C_13  and  C_6 
REMARK    3  A    between atoms: C_14  and  C_7 
REMARK    4  A    between atoms: C_11  and  C_8 
REMARK    5  A    between atoms: N_28  and  C_8 
REMARK    6  A    between atoms: C_17  and  C_10 
REMARK    7  A    between atoms: N_28  and  C_12 
REMARK    8  A    between atoms: C_19  and  C_13 
REMARK    9  A    between atoms: C_13  and  N_23 
REMARK   10  A    between atoms: O_29  and  C_14 
REMARK   11  A    between atoms: N_21  and  C_16 
REMARK       I    between atoms: N_23  and  C_17 
REMARK   12  A    between atoms: O_32  and  C_19 
REMARK       I    between atoms: N_22  and  C_20 
ROOT
HETATM    1  C   UNK N   1       0.834  -6.933  -0.509  0.00  0.00     0.019 A 
HETATM    2  C   UNK N   1      -0.675  -6.043   1.162  0.00  0.00     0.019 A 
HETATM    3  C   UNK N   1       1.686  -5.851  -0.311  0.00  0.00     0.030 A 
HETATM    4  C   UNK N   1       0.207  -4.987   1.399  0.00  0.00     0.030 A 
HETATM    5  C   UNK N   1      -0.372  -7.012   0.194  0.00  0.00     0.032 A 
HETATM    6  C   UNK N   1       1.373  -4.857   0.627  0.00  0.00     0.030 A 
ENDROOT
BRANCH   6   7
HETATM    7  N   UNK N   1       2.144  -3.662   0.687  0.00  0.00    -0.381 N 
HETATM    8  C   UNK N   1       1.973  -2.751   1.795  0.00  0.00     0.150 C 
BRANCH   7   9
HETATM    9  C   UNK N   1       2.710  -3.153  -0.547  0.00  0.00     0.164 C 
BRANCH   9  10
HETATM   10  C   UNK N   1       4.071  -2.595  -0.354  0.00  0.00     0.000 A 
HETATM   11  C   UNK N   1       4.385  -1.247  -0.206  0.00  0.00     0.154 A 
HETATM   12  O   UNK N   1       5.694  -1.143  -0.037  0.00  0.00    -0.304 OA
HETATM   13  C   UNK N   1       6.214  -2.345  -0.077  0.00  0.00     0.176 A 
HETATM   14  C   UNK N   1       5.254  -3.280  -0.280  0.00  0.00     0.070 A 
HETATM   15  N   UNK N   1       7.519  -2.669   0.064  0.00  0.00    -0.169 N 
HETATM   16  C   UNK N   1       5.605  -4.621  -0.371  0.00  0.00     0.130 A 
HETATM   17  N   UNK N   1       6.920  -4.951  -0.230  0.00  0.00    -0.176 N 
HETATM   18  C   UNK N   1       7.872  -3.989  -0.007  0.00  0.00     0.679 A 
ATOM     19  HN  UNK N   1       7.200  -5.930  -0.291  1.00  0.00     0.186 HD
HETATM   20  N   UNK N   1       9.219  -4.363   0.153  0.00  0.00    -0.234 N 
HETATM   21  H   UNK N   1       9.464  -5.310   0.265  0.00  0.00     0.174 HD
HETATM   22  H   UNK N   1       9.922  -3.673   0.153  0.00  0.00     0.174 HD
ATOM     23  HN  UNK N   1       8.223  -1.947   0.220  1.00  0.00     0.186 HD
BRANCH  16  24
HETATM   24  N   UNK N   1       4.643  -5.620  -0.614  0.00  0.00    -0.384 N 
HETATM   25  H   UNK N   1       3.702  -5.387  -0.783  0.00  0.00     0.157 HD
HETATM   26  H   UNK N   1       4.916  -6.566  -0.614  0.00  0.00     0.157 HD
ENDBRANCH  16  24
ENDBRANCH   9  10
ENDBRANCH   7   9
ENDBRANCH   6   7
BRANCH   5  27
HETATM   27  C   UNK N   1      -1.398  -7.960  -0.263  0.00  0.00     0.252 C 
HETATM   28  N   UNK N   1      -2.691  -7.751   0.091  0.00  0.00    -0.343 N 
HETATM   29  H   UNK N   1      -2.876  -7.193   0.880  0.00  0.00     0.163 HD
HETATM   30  O   UNK N   1      -1.111  -8.822  -1.083  0.00  0.00    -0.268 OA
BRANCH  28  31
HETATM   31  C   UNK N   1      -3.813  -8.311  -0.637  0.00  0.00     0.183 C 
BRANCH  31  32
HETATM   32  C   UNK N   1      -4.851  -7.206  -0.877  0.00  0.00     0.046 C 
BRANCH  32  33
HETATM   33  C   UNK N   1      -5.259  -6.505   0.416  0.00  0.00     0.112 C 
BRANCH  33  34
HETATM   34  C   UNK N   1      -6.561  -5.800   0.240  0.00  0.00     0.139 C 
HETATM   35  O   UNK N   1      -6.620  -4.588   0.360  0.00  0.00    -0.650 OA
BRANCH  34  36
HETATM   36  O   UNK N   1      -7.677  -6.505  -0.024  0.00  0.00    -0.776 OA
HETATM   37  H   UNK N   1      -8.490  -6.077  -0.207  0.00  0.00     0.167 HD
ENDBRANCH  34  36
ENDBRANCH  33  34
ENDBRANCH  32  33
ENDBRANCH  31  32
BRANCH  31  38
HETATM   38  C   UNK N   1      -4.370  -9.505   0.086  0.00  0.00     0.163 C 
HETATM   39  O   UNK N   1      -5.538  -9.537   0.440  0.00  0.00    -0.648 OA
BRANCH  38  40
HETATM   40  O   UNK N   1      -3.578 -10.570   0.309  0.00  0.00    -0.775 OA
HETATM   41  H   UNK N   1      -3.945 -11.418   0.465  0.00  0.00     0.167 HD
ENDBRANCH  38  40
ENDBRANCH  31  38
ENDBRANCH  28  31
ENDBRANCH   5  27
TORSDOF 12
