REMARK  0 active torsions:
REMARK  status: ('A' for Active; 'I' for Inactive)
ROOT
HETATM    1  C   UNK N   1       2.146   1.172   0.000  0.00  0.00     0.004 A 
HETATM    2  C   UNK N   1       2.100  -0.334   0.000  0.00  0.00     0.026 A 
HETATM    3  C   UNK N   1       0.749  -1.034   0.000  0.00  0.00     0.167 A 
HETATM    4  O   UNK N   1      -0.472  -0.319   0.000  0.00  0.00    -0.391 OA
HETATM    5  C   UNK N   1      -0.464   1.092   0.000  0.00  0.00     0.167 A 
HETATM    6  C   UNK N   1       0.827   1.899   0.000  0.00  0.00     0.026 A 
ENDROOT
TORSDOF 0
