REMARK  11 active torsions:
REMARK  status: ('A' for Active; 'I' for Inactive)
REMARK    1  A    between atoms: C_21  and  C_7 
REMARK    2  A    between atoms: C_22  and  C_8 
REMARK    3  A    between atoms: C_24  and  C_10 
REMARK    4  A    between atoms: C_13  and  C_11 
REMARK    5  A    between atoms: C_25  and  C_11 
REMARK    6  A    between atoms: C_14  and  C_12 
REMARK    7  A    between atoms: C_26  and  C_12 
REMARK    8  A    between atoms: C_35  and  C_13 
REMARK    9  A    between atoms: C_36  and  C_14 
REMARK   10  A    between atoms: O_42  and  C_35 
REMARK   11  A    between atoms: O_44  and  C_36 
ROOT
HETATM    1  C   UNK N   1       4.543   0.822  -2.268  0.00  0.00     0.007 C 
HETATM    2  C   UNK N   1      -0.733   2.058   0.591  0.00  0.00     0.051 C 
HETATM    3  C   UNK N   1       6.107  -4.960   0.036  0.00  0.00     0.051 C 
HETATM    4  C   UNK N   1       5.370   1.506  -1.454  0.00  0.00    -0.026 A 
HETATM    5  C   UNK N   1       2.218   2.870  -0.032  0.00  0.00     0.031 C 
HETATM    6  C   UNK N   1       6.944  -2.133  -0.069  0.00  0.00     0.064 A 
HETATM    7  C   UNK N   1       7.025   2.912  -0.209  0.00  0.00     0.027 C 
HETATM    8  C   UNK N   1       2.172  -2.041   0.086  0.00  0.00     0.064 C 
HETATM    9  C   UNK N   1       0.381   1.140   0.214  0.00  0.00    -0.025 A 
HETATM   10  C   UNK N   1       5.229  -3.748   0.001  0.00  0.00    -0.025 A 
HETATM   11  C   UNK N   1       4.037   2.068   1.200  0.00  0.00    -0.048 C 
HETATM   12  C   UNK N   1       8.891  -0.471  -0.181  0.00  0.00     0.004 A 
HETATM   13  C   UNK N   1       5.333   1.965   0.481  0.00  0.00     0.061 A 
HETATM   14  C   UNK N   1       8.956   0.929  -0.293  0.00  0.00     0.004 A 
HETATM   15  C   UNK N   1       0.397  -0.241   0.314  0.00  0.00    -0.021 A 
HETATM   16  C   UNK N   1       3.868  -3.724   0.091  0.00  0.00    -0.021 A 
HETATM   17  C   UNK N   1       1.660   1.507  -0.082  0.00  0.00     0.062 A 
HETATM   18  C   UNK N   1       5.629  -2.438  -0.054  0.00  0.00     0.066 A 
HETATM   19  C   UNK N   1       3.447   2.992   0.484  0.00  0.00     0.130 C 
HETATM   20  C   UNK N   1       7.543  -0.810  -0.085  0.00  0.00     0.070 A 
HETATM   21  C   UNK N   1       5.684   3.027   0.261  0.00  0.00     0.112 C 
HETATM   22  C   UNK N   1       7.663   1.398  -0.182  0.00  0.00     0.066 A 
HETATM   23  C   UNK N   1       1.677  -0.662   0.012  0.00  0.00     0.066 A 
HETATM   24  C   UNK N   1       3.455  -2.417   0.026  0.00  0.00     0.066 A 
HETATM   25 Fe   UNK N   1       4.484   0.410  -0.136  0.00  0.00     0.000 Fe
HETATM   26  N   UNK N   1       2.453   0.402  -0.160  0.00  0.00    -0.248 N 
HETATM   27  N   UNK N   1       4.534  -1.606  -0.053  0.00  0.00    -0.248 N 
HETATM   28  N   UNK N   1       4.462   3.148  -0.253  0.00  0.00    -0.227 NA
HETATM   29  N   UNK N   1       6.817   0.274  -0.100  0.00  0.00    -0.248 N 
ENDROOT
BRANCH  15  30
HETATM   30  C   UNK N   1      -0.680  -1.077   0.865  0.00  0.00     0.052 C 
BRANCH  30  31
HETATM   31  C   UNK N   1      -1.895  -0.970   0.007  0.00  0.00     0.115 C 
BRANCH  31  32
HETATM   32  C   UNK N   1      -2.307  -2.356  -0.270  0.00  0.00     0.139 C 
HETATM   33  O   UNK N   1      -3.388  -2.753   0.121  0.00  0.00    -0.650 OA
BRANCH  32  34
HETATM   34  O   UNK N   1      -1.463  -3.192  -0.906  0.00  0.00    -0.776 OA
HETATM   35  H   UNK N   1      -1.674  -3.991  -1.348  0.00  0.00     0.167 HD
ENDBRANCH  32  34
ENDBRANCH  31  32
ENDBRANCH  30  31
ENDBRANCH  15  30
BRANCH  16  36
HETATM   36  C   UNK N   1       2.995  -4.864   0.352  0.00  0.00     0.052 C 
BRANCH  36  37
HETATM   37  C   UNK N   1       2.884  -5.850  -0.759  0.00  0.00     0.115 C 
BRANCH  37  38
HETATM   38  C   UNK N   1       1.815  -6.716  -0.228  0.00  0.00     0.139 C 
HETATM   39  O   UNK N   1       0.654  -6.350  -0.311  0.00  0.00    -0.650 OA
BRANCH  38  40
HETATM   40  O   UNK N   1       2.143  -7.720   0.605  0.00  0.00    -0.776 OA
HETATM   41  H   UNK N   1       1.651  -8.267   1.185  0.00  0.00     0.167 HD
ENDBRANCH  38  40
ENDBRANCH  37  38
ENDBRANCH  36  37
ENDBRANCH  16  36
BRANCH  11  42
HETATM   42  C   UNK N   1       3.389   1.168   2.200  0.00  0.00    -0.005 C 
HETATM   43  C   UNK N   1       3.946   0.043   2.631  0.00  0.00     0.011 C 
ENDBRANCH  11  42
BRANCH  12  44
HETATM   44  C   UNK N   1      10.036  -1.403  -0.236  0.00  0.00     0.004 C 
HETATM   45  C   UNK N   1       9.884  -2.714  -0.039  0.00  0.00     0.012 C 
ENDBRANCH  12  44
BRANCH  14  46
HETATM   46  C   UNK N   1      10.160   1.713  -0.570  0.00  0.00     0.004 C 
HETATM   47  C   UNK N   1      10.062   2.943  -1.068  0.00  0.00     0.012 C 
ENDBRANCH  14  46
TORSDOF 11
