REMARK  2 active torsions:
REMARK  status: ('A' for Active; 'I' for Inactive)
REMARK    1  A    between atoms: C_2  and  C_4 
REMARK    2  A    between atoms: C_4  and  O_5 
ROOT
HETATM    1  C   UNK N   1       0.927  -0.174  -0.000  0.00  0.00     0.143 C 
HETATM    2  O   UNK N   1      -0.279  -0.355   0.000  0.00  0.00    -0.650 OA
ENDROOT
BRANCH   1   3
HETATM    3  C   UNK N   1       1.477   1.222  -0.000  0.00  0.00     0.075 C 
HETATM    4  C   UNK N   1       0.531   2.407   0.000  0.00  0.00     0.020 C 
HETATM    5  C   UNK N   1       2.973   1.477   0.000  0.00  0.00     0.020 C 
ENDBRANCH   1   3
BRANCH   1   6
HETATM    6  O   UNK N   1       1.759  -1.233  -0.000  0.00  0.00    -0.776 OA
HETATM    7  H   UNK N   1       1.411  -2.103  -0.000  0.00  0.00     0.167 HD
ENDBRANCH   1   6
TORSDOF 2
