REMARK  10 active torsions:
REMARK  status: ('A' for Active; 'I' for Inactive)
REMARK    1  A    between atoms: C_3  and  C_2 
REMARK    2  A    between atoms: C_4  and  C_3 
REMARK    3  A    between atoms: C_5  and  C_4 
REMARK    4  A    between atoms: O_16  and  C_5 
REMARK    5  A    between atoms: C_7  and  C_6 
REMARK    6  A    between atoms: O_12  and  C_6 
REMARK    7  A    between atoms: C_8  and  O_13 
REMARK    8  A    between atoms: C_9  and  O_14 
REMARK    9  A    between atoms: C_10  and  O_15 
REMARK   10  A    between atoms: C_11  and  O_16 
ROOT
HETATM    1  C   UNK N   1       7.684   4.426  -0.427  0.00  0.00     0.179 C 
HETATM    2  C   UNK N   1       7.670   5.961  -0.655  0.00  0.00     0.180 C 
HETATM    3  C   UNK N   1       6.719   6.640   0.340  0.00  0.00     0.183 C 
HETATM    4  C   UNK N   1       5.332   5.996   0.229  0.00  0.00     0.204 C 
HETATM    5  C   UNK N   1       5.489   4.473   0.456  0.00  0.00     0.291 C 
HETATM    6  O   UNK N   1       6.372   3.884  -0.503  0.00  0.00    -0.348 OA
ENDROOT
BRANCH   5   7
HETATM    7  O   UNK N   1       4.248   3.798   0.495  0.00  0.00    -0.359 OA
BRANCH   7   8
HETATM    8  C   UNK N   1       3.723   3.662  -0.802  0.00  0.00     0.171 C 
BRANCH   8   9
HETATM    9  C   UNK N   1       2.206   3.624  -0.748  0.00  0.00     0.026 C 
BRANCH   9  10
HETATM   10  C   UNK N   1       1.653   4.929  -0.208  0.00  0.00     0.002 C 
BRANCH  10  11
HETATM   11  C   UNK N   1       0.140   4.892  -0.258  0.00  0.00    -0.004 C 
HETATM   12  C   UNK N   1      -0.419   6.144   0.385  0.00  0.00     0.005 C 
ENDBRANCH  10  11
ENDBRANCH   9  10
ENDBRANCH   8   9
ENDBRANCH   7   8
ENDBRANCH   5   7
BRANCH   4  13
HETATM   13  O   UNK N   1       4.786   6.254  -1.034  0.00  0.00    -0.388 OA
HETATM   14  H   UNK N   1       4.751   6.670  -1.909  0.00  0.00     0.210 HD
ENDBRANCH   4  13
BRANCH   3  15
HETATM   15  O   UNK N   1       6.638   8.011   0.078  0.00  0.00    -0.390 OA
HETATM   16  H   UNK N   1       7.434   8.535  -0.103  0.00  0.00     0.210 HD
ENDBRANCH   3  15
BRANCH   1  17
HETATM   17  C   UNK N   1       8.382   3.978   0.868  0.00  0.00     0.198 C 
BRANCH  17  18
HETATM   18  O   UNK N   1       9.750   4.249   0.824  0.00  0.00    -0.398 OA
HETATM   19  H   UNK N   1      10.388   3.520   0.793  0.00  0.00     0.209 HD
ENDBRANCH  17  18
ENDBRANCH   1  17
BRANCH   2  20
HETATM   20  O   UNK N   1       8.955   6.499  -0.548  0.00  0.00    -0.390 OA
HETATM   21  H   UNK N   1       9.724   5.913  -0.474  0.00  0.00     0.210 HD
ENDBRANCH   2  20
TORSDOF 10
