REMARK  2 active torsions:
REMARK  status: ('A' for Active; 'I' for Inactive)
REMARK    1  A    between atoms: O_10  and  C_3 
REMARK    2  A    between atoms: O_11  and  C_4 
ROOT
HETATM    1  C   UNK N   1       2.102   0.905  -0.614  0.00  0.00     0.146 C 
HETATM    2  C   UNK N   1       1.056   1.725   0.139  0.00  0.00     0.145 C 
HETATM    3  C   UNK N   1      -0.288   1.049  -0.005  0.00  0.00     0.134 C 
HETATM    4  C   UNK N   1       0.823  -1.042  -0.052  0.00  0.00     0.218 C 
HETATM    5  I   UNK N   1       1.080   3.773  -0.484  0.00  0.00    -0.074 I 
HETATM    6  N   UNK N   1       1.975  -0.507  -0.297  0.00  0.00    -0.355 N 
ATOM      7  HN  UNK N   1       2.813  -1.089  -0.265  1.00  0.00     0.163 HD
HETATM    8  N   UNK N   1      -0.357  -0.238  -0.037  0.00  0.00    -0.306 N 
ATOM      9  HN  UNK N   1      -1.271  -0.690  -0.053  1.00  0.00     0.171 HD
ENDROOT
BRANCH   3  10
HETATM   10  O   UNK N   1      -1.419   1.779  -0.037  0.00  0.00    -0.348 OA
HETATM   11  H   UNK N   1      -1.373   2.715  -0.060  0.00  0.00     0.219 HD
ENDBRANCH   3  10
BRANCH   4  12
HETATM   12  O   UNK N   1       0.734  -2.364   0.175  0.00  0.00    -0.332 OA
HETATM   13  H   UNK N   1      -0.095  -2.771   0.333  0.00  0.00     0.220 HD
ENDBRANCH   4  12
TORSDOF 2
