REMARK  1 active torsions:
REMARK  status: ('A' for Active; 'I' for Inactive)
REMARK    1  A    between atoms: C_7  and  N_8 
ROOT
HETATM    1  C   UNK N   1       3.314  -1.048  -0.000  0.00  0.00     0.048 C 
HETATM    2  C   UNK N   1       1.997  -0.362   0.000  0.00  0.00    -0.060 A 
HETATM    3  C   UNK N   1       0.820  -1.115   0.000  0.00  0.00     0.007 A 
HETATM    4  C   UNK N   1      -0.420  -0.472   0.000  0.00  0.00     0.009 A 
HETATM    5  C   UNK N   1      -0.489   0.924   0.000  0.00  0.00    -0.036 A 
HETATM    6  C   UNK N   1      -1.827   1.579  -0.000  0.00  0.00     0.050 C 
HETATM    7  C   UNK N   1       0.697   1.683  -0.000  0.00  0.00     0.032 A 
HETATM    8  C   UNK N   1       1.936   1.034  -0.000  0.00  0.00     0.036 A 
ENDROOT
BRANCH   7   9
HETATM    9  N   UNK N   1       0.654   3.093  -0.000  0.00  0.00    -0.399 N 
HETATM   10  H   UNK N   1       1.491   3.611  -0.000  0.00  0.00     0.156 HD
HETATM   11  H   UNK N   1      -0.213   3.559  -0.000  0.00  0.00     0.156 HD
ENDBRANCH   7   9
TORSDOF 1
