REMARK  19 active torsions:
REMARK  status: ('A' for Active; 'I' for Inactive)
REMARK    1  A    between atoms: C_17  and  C_16 
REMARK    2  A    between atoms: C_26  and  C_16 
REMARK    3  A    between atoms: C_29  and  C_17 
REMARK    4  A    between atoms: C_23  and  C_22 
REMARK    5  A    between atoms: C_29  and  C_22 
REMARK    6  A    between atoms: S_48  and  C_23 
REMARK    7  A    between atoms: C_27  and  C_24 
REMARK    8  A    between atoms: C_32  and  C_24 
REMARK    9  A    between atoms: C_28  and  C_25 
REMARK   10  A    between atoms: O_46  and  C_25 
REMARK   11  A    between atoms: C_29  and  N_35 
REMARK   12  A    between atoms: N_39  and  C_30 
REMARK   13  A    between atoms: O_47  and  C_31 
REMARK   14  A    between atoms: C_33  and  C_32 
REMARK   15  A    between atoms: C_32  and  N_37 
REMARK   16  A    between atoms: C_33  and  O_40 
REMARK   17  A    between atoms: C_34  and  O_41 
REMARK   18  A    between atoms: O_46  and  C_34 
REMARK   19  A    between atoms: S_48  and  O_47 
ROOT
HETATM    1  C   UNK N   1       8.750   1.518   0.621  0.00  0.00     0.135 C 
HETATM    2  N   UNK N   1       8.752   1.847  -0.632  0.00  0.00    -0.368 N 
ATOM      3  HN  UNK N   1       8.287   1.216  -1.284  1.00  0.00     0.161 HD
ENDROOT
BRANCH   2   4
HETATM    4  C   UNK N   1       9.360   3.031  -1.176  0.00  0.00     0.084 C 
BRANCH   4   5
HETATM    5  C   UNK N   1      10.689   2.549  -1.737  0.00  0.00     0.029 C 
BRANCH   5   6
HETATM    6  C   UNK N   1      11.543   1.909  -0.641  0.00  0.00     0.040 C 
BRANCH   6   7
HETATM    7  C   UNK N   1      12.512   2.919  -0.175  0.00  0.00    -0.058 A 
HETATM    8  C   UNK N   1      12.071   4.112   0.413  0.00  0.00     0.007 A 
HETATM    9  C   UNK N   1      12.989   5.116   0.716  0.00  0.00     0.001 A 
HETATM   10  C   UNK N   1      14.344   4.927   0.431  0.00  0.00     0.000 A 
HETATM   11  C   UNK N   1      14.783   3.726  -0.134  0.00  0.00     0.001 A 
HETATM   12  C   UNK N   1      13.865   2.723  -0.440  0.00  0.00     0.007 A 
ENDBRANCH   6   7
ENDBRANCH   5   6
ENDBRANCH   4   5
BRANCH   4  13
HETATM   13  C   UNK N   1       8.542   3.570  -2.353  0.00  0.00     0.042 C 
BRANCH  13  14
HETATM   14  C   UNK N   1       7.443   4.566  -1.980  0.00  0.00     0.173 C 
BRANCH  14  15
HETATM   15  S   UNK N   1       6.117   3.825  -0.964  0.00  0.00     0.270 S 
HETATM   16  O   UNK N   1       6.694   3.204   0.297  0.00  0.00    -0.198 OA
HETATM   17  O   UNK N   1       5.372   2.655  -1.617  0.00  0.00    -0.198 OA
BRANCH  15  18
HETATM   18  O   UNK N   1       4.927   4.813  -0.278  0.00  0.00    -0.233 OA
BRANCH  18  19
HETATM   19  C   UNK N   1       5.233   6.073   0.066  0.00  0.00     0.089 A 
HETATM   20  C   UNK N   1       4.243   7.042  -0.022  0.00  0.00     0.040 A 
HETATM   21  C   UNK N   1       4.593   8.387   0.025  0.00  0.00     0.039 A 
HETATM   22  C   UNK N   1       5.938   8.765   0.183  0.00  0.00     0.103 A 
HETATM   23  C   UNK N   1       6.910   7.784   0.407  0.00  0.00     0.039 A 
HETATM   24  C   UNK N   1       6.560   6.442   0.346  0.00  0.00     0.040 A 
BRANCH  22  25
HETATM   25  N   UNK N   1       6.314  10.122   0.009  0.00  0.00    -0.116 N 
HETATM   26  O   UNK N   1       5.509  10.925  -0.341  0.00  0.00    -0.532 OA
HETATM   27  O   UNK N   1       7.474  10.425   0.037  0.00  0.00    -0.532 OA
ENDBRANCH  22  25
ENDBRANCH  18  19
ENDBRANCH  15  18
ENDBRANCH  14  15
ENDBRANCH  13  14
ENDBRANCH   4  13
ENDBRANCH   2   4
BRANCH   1  28
HETATM   28  C   UNK N   1       8.329   0.126   0.988  0.00  0.00     0.164 C 
BRANCH  28  29
HETATM   29  C   UNK N   1       8.973  -0.761  -0.092  0.00  0.00     0.072 C 
BRANCH  29  30
HETATM   30  C   UNK N   1       9.081  -2.215   0.093  0.00  0.00    -0.056 A 
HETATM   31  C   UNK N   1      10.359  -2.778   0.091  0.00  0.00     0.007 A 
HETATM   32  C   UNK N   1      10.513  -4.161   0.146  0.00  0.00     0.001 A 
HETATM   33  C   UNK N   1       9.384  -4.983   0.187  0.00  0.00     0.000 A 
HETATM   34  C   UNK N   1       8.103  -4.418   0.176  0.00  0.00     0.001 A 
HETATM   35  C   UNK N   1       7.949  -3.030   0.121  0.00  0.00     0.007 A 
ENDBRANCH  29  30
ENDBRANCH  28  29
BRANCH  28  36
HETATM   36  N   UNK N   1       6.880   0.072   1.042  0.00  0.00    -0.338 N 
HETATM   37  C   UNK N   1       6.115   0.212   0.012  0.00  0.00     0.259 C 
ATOM     38  HN  UNK N   1       6.440  -0.087   1.949  1.00  0.00     0.164 HD
BRANCH  37  39
HETATM   39  O   UNK N   1       6.628   0.264  -1.232  0.00  0.00    -0.327 OA
HETATM   40  H   UNK N   1       6.838  -0.028  -2.097  0.00  0.00     0.221 HD
ENDBRANCH  37  39
BRANCH  37  41
HETATM   41  O   UNK N   1       4.790   0.377   0.161  0.00  0.00    -0.312 OA
BRANCH  41  42
HETATM   42  C   UNK N   1       4.104   0.277   1.344  0.00  0.00     0.218 C 
BRANCH  42  43
HETATM   43  C   UNK N   1       2.839  -0.378   0.972  0.00  0.00    -0.034 A 
HETATM   44  C   UNK N   1       2.873  -1.692   0.494  0.00  0.00     0.009 A 
HETATM   45  C   UNK N   1       1.723  -2.266  -0.043  0.00  0.00     0.001 A 
HETATM   46  C   UNK N   1       0.543  -1.520  -0.119  0.00  0.00     0.000 A 
HETATM   47  C   UNK N   1       0.510  -0.206   0.358  0.00  0.00     0.001 A 
HETATM   48  C   UNK N   1       1.663   0.370   0.898  0.00  0.00     0.009 A 
ENDBRANCH  42  43
ENDBRANCH  41  42
ENDBRANCH  37  41
ENDBRANCH  28  36
ENDBRANCH   1  28
BRANCH   1  49
HETATM   49  O   UNK N   1       9.228   2.355   1.567  0.00  0.00    -0.348 OA
HETATM   50  H   UNK N   1       9.897   2.358   2.223  0.00  0.00     0.219 HD
ENDBRANCH   1  49
TORSDOF 19
