REMARK  26 active torsions:
REMARK  status: ('A' for Active; 'I' for Inactive)
REMARK    1  A    between atoms: C_2  and  C_3 
REMARK    2  A    between atoms: C_3  and  C_4 
REMARK    3  A    between atoms: C_4  and  C_5 
REMARK    4  A    between atoms: C_5  and  C_6 
REMARK    5  A    between atoms: C_6  and  C_7 
REMARK    6  A    between atoms: C_7  and  C_8 
REMARK    7  A    between atoms: C_8  and  C_9 
REMARK    8  A    between atoms: C_9  and  C_10 
REMARK    9  A    between atoms: C_10  and  C_11 
REMARK   10  A    between atoms: C_11  and  C_12 
REMARK   11  A    between atoms: C_12  and  C_13 
REMARK   12  A    between atoms: C_13  and  C_14 
REMARK   13  A    between atoms: C_14  and  C_15 
REMARK   14  A    between atoms: C_15  and  C_16 
REMARK   15  A    between atoms: C_16  and  O_17 
REMARK   16  A    between atoms: O_17  and  C_18 
REMARK   17  A    between atoms: C_18  and  C_19 
REMARK   18  A    between atoms: C_19  and  C_20 
REMARK   19  A    between atoms: C_19  and  O_32 
REMARK   20  A    between atoms: C_20  and  O_21 
REMARK   21  A    between atoms: P_22  and  O_21 
REMARK   22  A    between atoms: P_22  and  O_25 
REMARK   23  A    between atoms: O_25  and  C_26 
REMARK   24  A    between atoms: C_26  and  C_27 
REMARK   25  A    between atoms: C_27  and  N_28 
REMARK   26  A    between atoms: O_32  and  C_33 
ROOT
HETATM    1  C   UNK N   1      26.498  -9.046   0.996  0.00  0.00     0.202 C 
ENDROOT
BRANCH   1   2
HETATM    2  O   UNK N   1      25.193  -9.512   1.157  0.00  0.00    -0.389 OA
BRANCH   2   3
HETATM    3  C   UNK N   1      25.105 -10.669   0.373  0.00  0.00     0.167 C 
BRANCH   3   4
HETATM    4  C   UNK N   1      24.183 -10.445  -0.820  0.00  0.00     0.026 C 
BRANCH   4   5
HETATM    5  C   UNK N   1      22.848  -9.879  -0.369  0.00  0.00     0.002 C 
BRANCH   5   6
HETATM    6  C   UNK N   1      22.905  -8.365  -0.429  0.00  0.00     0.000 C 
BRANCH   6   7
HETATM    7  C   UNK N   1      22.009  -7.775   0.641  0.00  0.00     0.000 C 
BRANCH   7   8
HETATM    8  C   UNK N   1      21.485  -6.419   0.195  0.00  0.00     0.000 C 
BRANCH   8   9
HETATM    9  C   UNK N   1      20.439  -6.569  -0.906  0.00  0.00     0.000 C 
BRANCH   9  10
HETATM   10  C   UNK N   1      19.076  -6.944  -0.340  0.00  0.00     0.000 C 
BRANCH  10  11
HETATM   11  C   UNK N   1      19.065  -8.389   0.126  0.00  0.00     0.000 C 
BRANCH  11  12
HETATM   12  C   UNK N   1      17.774  -8.704   0.853  0.00  0.00     0.000 C 
BRANCH  12  13
HETATM   13  C   UNK N   1      16.851  -9.481  -0.063  0.00  0.00     0.000 C 
BRANCH  13  14
HETATM   14  C   UNK N   1      15.729  -8.587  -0.544  0.00  0.00     0.000 C 
BRANCH  14  15
HETATM   15  C   UNK N   1      14.422  -9.069   0.050  0.00  0.00     0.000 C 
BRANCH  15  16
HETATM   16  C   UNK N   1      13.319  -8.094  -0.301  0.00  0.00    -0.000 C 
BRANCH  16  17
HETATM   17  C   UNK N   1      12.007  -8.599   0.261  0.00  0.00    -0.005 C 
HETATM   18  C   UNK N   1      10.922  -7.577  -0.001  0.00  0.00     0.005 C 
ENDBRANCH  16  17
ENDBRANCH  15  16
ENDBRANCH  14  15
ENDBRANCH  13  14
ENDBRANCH  12  13
ENDBRANCH  11  12
ENDBRANCH  10  11
ENDBRANCH   9  10
ENDBRANCH   8   9
ENDBRANCH   7   8
ENDBRANCH   6   7
ENDBRANCH   5   6
ENDBRANCH   4   5
ENDBRANCH   3   4
ENDBRANCH   2   3
ENDBRANCH   1   2
BRANCH   1  19
HETATM   19  C   UNK N   1      26.523  -7.796   0.126  0.00  0.00     0.180 C 
BRANCH  19  20
HETATM   20  C   UNK N   1      27.965  -7.327  -0.014  0.00  0.00     0.216 C 
BRANCH  20  21
HETATM   21  O   UNK N   1      28.664  -8.205  -0.847  0.00  0.00    -0.287 OA
BRANCH  21  22
HETATM   22  P   UNK N   1      29.962  -8.829   0.124  0.00  0.00     0.408 P 
HETATM   23  O   UNK N   1      29.013 -10.128  -0.532  0.00  0.00    -0.624 OA
HETATM   24  O   UNK N   1      30.696  -8.084  -1.027  0.00  0.00    -0.624 OA
BRANCH  22  25
HETATM   25  O   UNK N   1      30.993 -10.097  -0.485  0.00  0.00    -0.288 OA
BRANCH  25  26
HETATM   26  C   UNK N   1      32.155 -10.053   0.293  0.00  0.00     0.209 C 
BRANCH  26  27
HETATM   27  C   UNK N   1      33.294  -9.502  -0.565  0.00  0.00     0.262 C 
BRANCH  27  28
HETATM   28  N   UNK N   1      34.160  -8.562   0.147  0.00  0.00    -0.077 N 
HETATM   29  C   UNK N   1      35.103  -8.011  -0.807  0.00  0.00     0.271 C 
HETATM   30  C   UNK N   1      34.908  -9.239   1.194  0.00  0.00     0.271 C 
HETATM   31  C   UNK N   1      33.402  -7.459   0.721  0.00  0.00     0.271 C 
ENDBRANCH  27  28
ENDBRANCH  26  27
ENDBRANCH  25  26
ENDBRANCH  22  25
ENDBRANCH  21  22
ENDBRANCH  20  21
ENDBRANCH  19  20
BRANCH  19  32
HETATM   32  O   UNK N   1      25.730  -6.815   0.691  0.00  0.00    -0.312 OA
BRANCH  32  33
HETATM   33  C   UNK N   1      25.504  -5.603   0.119  0.00  0.00     0.255 C 
HETATM   34  C   UNK N   1      24.520  -4.673   0.738  0.00  0.00     0.126 C 
HETATM   35  O   UNK N   1      26.092  -5.265  -0.898  0.00  0.00    -0.266 OA
ENDBRANCH  32  33
ENDBRANCH  19  32
ENDBRANCH   1  19
TORSDOF 26
