REMARK WARNING: 32 MAX_TORS EXCEEDED!!!
REMARK  36 active torsions:
REMARK  status: ('A' for Active; 'I' for Inactive)
REMARK    1  A    between atoms: C_9  and  C_7 
REMARK    2  A    between atoms: C_19  and  C_7 
REMARK    3  A    between atoms: C_10  and  C_8 
REMARK    4  A    between atoms: C_23  and  C_8 
REMARK    5  A    between atoms: N_35  and  C_9 
REMARK    6  A    between atoms: N_39  and  C_10 
REMARK    7  A    between atoms: C_12  and  C_11 
REMARK    8  A    between atoms: N_37  and  C_11 
REMARK    9  A    between atoms: S_69  and  C_12 
REMARK   10  A    between atoms: C_22  and  C_14 
REMARK   11  A    between atoms: O_61  and  C_14 
REMARK   12  A    between atoms: C_24  and  C_15 
REMARK   13  A    between atoms: S_69  and  C_15 
REMARK   14  A    between atoms: C_33  and  C_16 
REMARK   15  A    between atoms: O_62  and  C_16 
REMARK   16  A    between atoms: N_37  and  C_23 
REMARK   17  A    between atoms: O_49  and  C_23 
REMARK   18  A    between atoms: N_35  and  C_24 
REMARK   19  A    between atoms: O_50  and  C_24 
REMARK   20  A    between atoms: C_26  and  O_51 
REMARK   21  A    between atoms: C_27  and  O_64 
REMARK   22  A    between atoms: C_31  and  C_28 
REMARK   23  A    between atoms: C_33  and  C_28 
REMARK   24  A    between atoms: C_28  and  O_52 
REMARK   25  A    between atoms: N_34  and  C_29 
REMARK   26  A    between atoms: N_39  and  C_31 
REMARK   27  A    between atoms: O_53  and  C_31 
REMARK   28  A    between atoms: C_32  and  N_48 
REMARK   29  A    between atoms: P_66  and  O_54 
REMARK   30  A    between atoms: P_66  and  O_55 
REMARK   31  A    between atoms: P_67  and  O_57 
REMARK   32  A    between atoms: P_67  and  O_61 
REMARK   33  A    between atoms: P_68  and  O_62 
REMARK   34  A    between atoms: P_66  and  O_64 
REMARK   35  A    between atoms: P_67  and  O_65 
REMARK   36  A    between atoms: P_68  and  O_65 
ROOT
HETATM    1  O   UNK N   1      -3.583  -4.729   1.549  0.00  0.00    -0.307 OA
HETATM    2  O   UNK N   1      -4.433  -5.512  -0.811  0.00  0.00    -0.631 OA
HETATM    3  P   UNK N   1      -3.390  -4.560  -0.158  0.00  0.00     0.401 P 
HETATM    4  H   UNK N   1      -3.719  -4.683   2.508  0.00  0.00     0.222 HD
ENDROOT
BRANCH   3   5
HETATM    5  O   UNK N   1      -1.792  -5.098  -0.630  0.00  0.00    -0.296 OA
BRANCH   5   6
HETATM    6  C   UNK N   1      -1.801  -6.513  -0.706  0.00  0.00     0.192 C 
BRANCH   6   7
HETATM    7  C   UNK N   1      -1.405  -7.240   0.611  0.00  0.00     0.008 C 
HETATM    8  C   UNK N   1      -0.262  -6.508   1.289  0.00  0.00     0.020 C 
HETATM    9  C   UNK N   1      -2.562  -7.267   1.596  0.00  0.00     0.020 C 
BRANCH   7  10
HETATM   10  C   UNK N   1      -0.933  -8.698   0.362  0.00  0.00     0.202 C 
BRANCH  10  11
HETATM   11  C   UNK N   1      -1.959  -9.698  -0.123  0.00  0.00     0.141 C 
BRANCH  11  12
HETATM   12  N   UNK N   1      -3.175  -9.356  -0.385  0.00  0.00    -0.372 N 
ATOM     13  HN  UNK N   1      -3.455  -8.379  -0.304  1.00  0.00     0.161 HD
BRANCH  12  14
HETATM   14  C   UNK N   1      -4.141 -10.348  -0.792  0.00  0.00     0.129 C 
BRANCH  14  15
HETATM   15  C   UNK N   1      -5.413  -9.714  -1.317  0.00  0.00     0.103 C 
BRANCH  15  16
HETATM   16  C   UNK N   1      -6.286  -9.173  -0.234  0.00  0.00     0.112 C 
BRANCH  16  17
HETATM   17  N   UNK N   1      -5.992  -8.055   0.332  0.00  0.00    -0.374 N 
ATOM     18  HN  UNK N   1      -5.109  -7.597   0.106  1.00  0.00     0.161 HD
BRANCH  17  19
HETATM   19  C   UNK N   1      -6.887  -7.439   1.281  0.00  0.00     0.131 C 
BRANCH  19  20
HETATM   20  C   UNK N   1      -7.308  -6.052   0.794  0.00  0.00     0.094 C 
BRANCH  20  21
HETATM   21  S   UNK N   1      -7.607  -5.989  -1.012  0.00  0.00    -0.159 SA
BRANCH  21  22
HETATM   22  C   UNK N   1      -9.394  -6.267  -0.859  0.00  0.00     0.157 C 
BRANCH  22  23
HETATM   23  C   UNK N   1      -9.786  -7.695  -1.147  0.00  0.00     0.120 C 
BRANCH  23  24
HETATM   24  N   UNK N   1     -10.863  -8.195  -0.647  0.00  0.00    -0.374 N 
ATOM     25  HN  UNK N   1     -11.113  -9.157  -0.875  1.00  0.00     0.161 HD
BRANCH  24  26
HETATM   26  C   UNK N   1     -11.727  -7.435   0.226  0.00  0.00     0.126 C 
BRANCH  26  27
HETATM   27  C   UNK N   1     -12.234  -8.313   1.354  0.00  0.00     0.060 C 
BRANCH  27  28
HETATM   28  C   UNK N   1     -13.399  -9.120   0.887  0.00  0.00    -0.029 A 
HETATM   29  C   UNK N   1     -13.457 -10.506   0.812  0.00  0.00     0.096 A 
HETATM   30  N   UNK N   1     -14.673 -10.884   0.340  0.00  0.00    -0.365 N 
HETATM   31  C   UNK N   1     -15.362  -9.747   0.127  0.00  0.00     0.042 A 
HETATM   32  H   UNK N   1     -14.988 -11.804   0.185  0.00  0.00     0.165 HD
HETATM   33  C   UNK N   1     -16.662  -9.632  -0.357  0.00  0.00     0.030 A 
HETATM   34  C   UNK N   1     -14.614  -8.652   0.452  0.00  0.00    -0.002 A 
HETATM   35  C   UNK N   1     -17.193  -8.337  -0.504  0.00  0.00     0.002 A 
HETATM   36  C   UNK N   1     -16.419  -7.203  -0.168  0.00  0.00     0.001 A 
HETATM   37  C   UNK N   1     -15.108  -7.356   0.319  0.00  0.00     0.014 A 
ENDBRANCH  27  28
ENDBRANCH  26  27
ENDBRANCH  24  26
ENDBRANCH  23  24
BRANCH  23  38
HETATM   38  O   UNK N   1      -9.026  -8.453  -1.962  0.00  0.00    -0.349 OA
HETATM   39  H   UNK N   1      -9.218  -9.174  -2.528  0.00  0.00     0.219 HD
ENDBRANCH  23  38
ENDBRANCH  22  23
ENDBRANCH  21  22
ENDBRANCH  20  21
ENDBRANCH  19  20
ENDBRANCH  17  19
ENDBRANCH  16  17
BRANCH  16  40
HETATM   40  O   UNK N   1      -7.425  -9.826   0.082  0.00  0.00    -0.350 OA
HETATM   41  H   UNK N   1      -8.213  -9.368   0.301  0.00  0.00     0.219 HD
ENDBRANCH  16  40
ENDBRANCH  15  16
ENDBRANCH  14  15
ENDBRANCH  12  14
ENDBRANCH  11  12
BRANCH  11  42
HETATM   42  O   UNK N   1      -1.578 -10.988  -0.252  0.00  0.00    -0.348 OA
HETATM   43  H   UNK N   1      -2.220 -11.665  -0.342  0.00  0.00     0.219 HD
ENDBRANCH  11  42
ENDBRANCH  10  11
BRANCH  10  44
HETATM   44  O   UNK N   1       0.148  -8.701  -0.525  0.00  0.00    -0.387 OA
HETATM   45  H   UNK N   1       0.521  -9.351  -1.140  0.00  0.00     0.210 HD
ENDBRANCH  10  44
ENDBRANCH   7  10
ENDBRANCH   6   7
ENDBRANCH   5   6
ENDBRANCH   3   5
BRANCH   3  46
HETATM   46  O   UNK N   1      -3.821  -2.924  -0.611  0.00  0.00    -0.195 OA
BRANCH  46  47
HETATM   47  P   UNK N   1      -2.867  -1.830   0.376  0.00  0.00     0.401 P 
HETATM   48  O   UNK N   1      -3.163  -0.392  -0.133  0.00  0.00    -0.631 OA
BRANCH  47  49
HETATM   49  O   UNK N   1      -3.334  -1.803   2.052  0.00  0.00    -0.307 OA
HETATM   50  H   UNK N   1      -3.451  -1.570   2.986  0.00  0.00     0.222 HD
ENDBRANCH  47  49
BRANCH  47  51
HETATM   51  O   UNK N   1      -1.147  -2.081   0.241  0.00  0.00    -0.294 OA
BRANCH  51  52
HETATM   52  C   UNK N   1      -0.756  -1.644  -1.030  0.00  0.00     0.215 C 
BRANCH  52  53
HETATM   53  C   UNK N   1       0.517  -0.782  -0.972  0.00  0.00     0.180 C 
HETATM   54  C   UNK N   1       1.684  -1.417  -0.204  0.00  0.00     0.197 C 
HETATM   55  C   UNK N   1       2.518  -0.186  -0.030  0.00  0.00     0.199 C 
HETATM   56  C   UNK N   1       1.415   0.763   0.434  0.00  0.00     0.262 C 
HETATM   57  O   UNK N   1       0.279   0.485  -0.376  0.00  0.00    -0.353 OA
BRANCH  54  58
HETATM   58  O   UNK N   1       2.381  -2.412  -0.923  0.00  0.00    -0.286 OA
BRANCH  58  59
HETATM   59  P   UNK N   1       1.742  -3.989  -0.510  0.00  0.00     0.391 P 
HETATM   60  O   UNK N   1       0.729  -4.381  -1.618  0.00  0.00    -0.632 OA
BRANCH  59  61
HETATM   61  O   UNK N   1       0.899  -4.009   1.009  0.00  0.00    -0.307 OA
HETATM   62  H   UNK N   1       0.654  -3.607   1.857  0.00  0.00     0.222 HD
ENDBRANCH  59  61
BRANCH  59  63
HETATM   63  O   UNK N   1       2.987  -5.196  -0.522  0.00  0.00    -0.307 OA
HETATM   64  H   UNK N   1       2.750  -6.137  -0.529  0.00  0.00     0.222 HD
ENDBRANCH  59  63
ENDBRANCH  58  59
ENDBRANCH  54  58
BRANCH  55  65
HETATM   65  O   UNK N   1       3.536  -0.349   0.912  0.00  0.00    -0.388 OA
HETATM   66  H   UNK N   1       3.791  -1.019   1.567  0.00  0.00     0.210 HD
ENDBRANCH  55  65
BRANCH  56  67
HETATM   67  N   UNK N   1       1.765   2.192   0.387  0.00  0.00    -0.297 N 
HETATM   68  C   UNK N   1       0.892   3.192   0.680  0.00  0.00     0.188 A 
HETATM   69  N   UNK N   1       1.478   4.417   0.578  0.00  0.00    -0.346 N 
HETATM   70  C   UNK N   1       2.745   4.153   0.222  0.00  0.00     0.122 A 
ATOM     71  HN  UNK N   1       1.050   5.330   0.736  1.00  0.00     0.167 HD
HETATM   72  C   UNK N   1       3.799   5.023  -0.006  0.00  0.00     0.131 A 
HETATM   73  C   UNK N   1       2.924   2.821   0.104  0.00  0.00     0.142 A 
HETATM   74  N   UNK N   1       5.009   4.489  -0.343  0.00  0.00    -0.337 N 
HETATM   75  C   UNK N   1       5.174   3.129  -0.454  0.00  0.00     0.183 A 
ATOM     76  HN  UNK N   1       5.802   5.107  -0.515  1.00  0.00     0.168 HD
HETATM   77  N   UNK N   1       4.121   2.281  -0.228  0.00  0.00    -0.336 N 
ATOM     78  HN  UNK N   1       4.236   1.271  -0.308  1.00  0.00     0.168 HD
BRANCH  72  79
HETATM   79  N   UNK N   1       3.636   6.419   0.113  0.00  0.00    -0.383 N 
HETATM   80  H   UNK N   1       4.422   7.005   0.197  0.00  0.00     0.157 HD
HETATM   81  H   UNK N   1       2.732   6.808   0.113  0.00  0.00     0.157 HD
ENDBRANCH  72  79
ENDBRANCH  56  67
ENDBRANCH  52  53
ENDBRANCH  51  52
ENDBRANCH  47  51
ENDBRANCH  46  47
ENDBRANCH   3  46
TORSDOF 36
