REMARK  9 active torsions:
REMARK  status: ('A' for Active; 'I' for Inactive)
REMARK    1  A    between atoms: C_2  and  N_1 
REMARK    2  A    between atoms: C_2  and  C_3 
REMARK    3  A    between atoms: C_2  and  C_14 
REMARK    4  A    between atoms: C_3  and  C_4 
REMARK    5  A    between atoms: C_4  and  C_5 
REMARK    6  A    between atoms: C_5  and  N_6 
REMARK       I    between atoms: N_6  and  C_7 
REMARK       I    between atoms: C_7  and  N_10 
REMARK    7  A    between atoms: N_10  and  N_11 
REMARK       I    between atoms: C_14  and  N_16 
REMARK    8  A    between atoms: C_17  and  N_16 
REMARK    9  A    between atoms: C_20  and  C_22 
REMARK       I    between atoms: C_22  and  N_23 
ROOT
HETATM    1  C   UNK N   1      -2.306  -2.166  -0.458  0.00  0.00     0.167 C 
ENDROOT
BRANCH   1   2
HETATM    2  N   UNK N   1      -1.638  -3.408  -0.806  0.00  0.00    -0.418 N 
HETATM    3  H   UNK N   1      -2.158  -4.250  -1.050  0.00  0.00     0.150 HD
HETATM    4  H   UNK N   1      -0.618  -3.439  -0.806  0.00  0.00     0.150 HD
ENDBRANCH   1   2
BRANCH   1   5
HETATM    5  C   UNK N   1      -2.796  -2.249   0.974  0.00  0.00     0.036 C 
BRANCH   5   6
HETATM    6  C   UNK N   1      -3.726  -1.093   1.270  0.00  0.00     0.023 C 
BRANCH   6   7
HETATM    7  C   UNK N   1      -5.140  -1.596   1.456  0.00  0.00     0.138 C 
BRANCH   7   8
HETATM    8  N   UNK N   1      -5.795  -1.827   0.193  0.00  0.00    -0.225 N 
HETATM    9  C   UNK N   1      -6.814  -0.942  -0.226  0.00  0.00     0.691 C 
HETATM   10  N   UNK N   1      -6.571   0.318  -0.273  0.00  0.00    -0.233 N 
HETATM   11  N   UNK N   1      -8.156  -1.424  -0.243  0.00  0.00    -0.072 N 
HETATM   12  H   UNK N   1      -5.641   0.640  -0.308  0.00  0.00     0.174 HD
ATOM     13  HN  UNK N   1      -7.342   0.986  -0.273  1.00  0.00     0.174 HD
HETATM   14  H   UNK N   1      -8.297  -2.396  -0.298  0.00  0.00     0.212 HD
HETATM   15  H   UNK N   1      -5.535  -2.591  -0.370  0.00  0.00     0.177 HD
BRANCH  11  16
HETATM   16  N   UNK N   1      -9.270  -0.609  -0.187  0.00  0.00    -0.024 N 
HETATM   17  O   UNK N   1     -10.460  -1.159  -0.088  0.00  0.00    -0.516 OA
HETATM   18  O   UNK N   1      -9.162   0.574  -0.084  0.00  0.00    -0.516 OA
ENDBRANCH  11  16
ENDBRANCH   7   8
ENDBRANCH   6   7
ENDBRANCH   5   6
ENDBRANCH   1   5
BRANCH   1  19
HETATM   19  C   UNK N   1      -1.356  -1.026  -0.662  0.00  0.00     0.240 C 
HETATM   20  O   UNK N   1      -1.610  -0.177  -1.504  0.00  0.00    -0.271 OA
HETATM   21  N   UNK N   1      -0.191  -0.987   0.029  0.00  0.00    -0.353 N 
HETATM   22  H   UNK N   1      -0.061  -1.602   0.786  0.00  0.00     0.163 HD
BRANCH  21  23
HETATM   23  C   UNK N   1       0.860  -0.067  -0.318  0.00  0.00     0.104 C 
HETATM   24  C   UNK N   1       1.253   0.840   0.821  0.00  0.00     0.139 C 
HETATM   25  N   UNK N   1       2.671   1.155   0.633  0.00  0.00    -0.407 N 
HETATM   26  C   UNK N   1       3.168   0.213  -0.372  0.00  0.00     0.171 C 
HETATM   27  H   UNK N   1       3.204   1.884   1.107  0.00  0.00     0.154 HD
HETATM   28  C   UNK N   1       2.110  -0.843  -0.564  0.00  0.00     0.061 C 
BRANCH  26  29
HETATM   29  C   UNK N   1       4.502  -0.355   0.030  0.00  0.00     0.237 C 
HETATM   30  N   UNK N   1       5.570   0.460   0.119  0.00  0.00    -0.368 N 
HETATM   31  H   UNK N   1       6.476   0.081   0.184  0.00  0.00     0.159 HD
HETATM   32  H   UNK N   1       5.445   1.437   0.119  0.00  0.00     0.159 HD
HETATM   33  O   UNK N   1       4.633  -1.548   0.259  0.00  0.00    -0.271 OA
ENDBRANCH  26  29
ENDBRANCH  21  23
ENDBRANCH   1  19
TORSDOF 9
