REMARK  0 active torsions:
REMARK  status: ('A' for Active; 'I' for Inactive)
ROOT
HETATM    1  N   UNK N   1       1.570   0.892   0.000  0.00  0.00    -0.312 N 
HETATM    2  C   UNK N   1       1.240  -0.412   0.000  0.00  0.00     0.108 A 
HETATM    3  C   UNK N   1      -0.137  -0.517   0.000  0.00  0.00     0.037 A 
HETATM    4  C   UNK N   1      -0.597   0.786   0.000  0.00  0.00     0.108 A 
HETATM    5  N   UNK N   1       0.463   1.613   0.000  0.00  0.00    -0.312 N 
ATOM      6  HN  UNK N   1       0.420   2.632   0.000  1.00  0.00     0.186 HD
HETATM    7  H   UNK N   1       2.487   1.250   0.000  0.00  0.00     0.186 HD
ENDROOT
TORSDOF 0
