REMARK  10 active torsions:
REMARK  status: ('A' for Active; 'I' for Inactive)
REMARK    1  A    between atoms: C_2  and  C_3 
REMARK    2  A    between atoms: C_3  and  C_4 
REMARK    3  A    between atoms: C_4  and  C_5 
REMARK    4  A    between atoms: C_5  and  O_6 
REMARK    5  A    between atoms: P_7  and  O_6 
REMARK    6  A    between atoms: P_7  and  O_8 
REMARK    7  A    between atoms: P_7  and  O_10 
REMARK    8  A    between atoms: O_10  and  P_11 
REMARK    9  A    between atoms: P_11  and  O_12 
REMARK   10  A    between atoms: P_11  and  O_13 
ROOT
HETATM    1  P   UNK N   1       6.249  -2.499  -0.101  0.00  0.00     0.401 P 
HETATM    2  O   UNK N   1       6.321  -1.034   0.409  0.00  0.00    -0.631 OA
ENDROOT
BRANCH   1   3
HETATM    3  O   UNK N   1       4.909  -2.385   1.005  0.00  0.00    -0.297 OA
BRANCH   3   4
HETATM    4  C   UNK N   1       3.769  -2.601   0.227  0.00  0.00     0.180 C 
BRANCH   4   5
HETATM    5  C   UNK N   1       3.087  -1.277  -0.063  0.00  0.00     0.027 C 
BRANCH   5   6
HETATM    6  C   UNK N   1       2.045  -1.468  -1.151  0.00  0.00     0.002 C 
BRANCH   6   7
HETATM    7  C   UNK N   1       0.640  -1.419  -0.576  0.00  0.00    -0.004 C 
HETATM    8  C   UNK N   1       0.317  -2.702   0.167  0.00  0.00     0.005 C 
ENDBRANCH   6   7
ENDBRANCH   5   6
ENDBRANCH   4   5
ENDBRANCH   3   4
ENDBRANCH   1   3
BRANCH   1   9
HETATM    9  O   UNK N   1       6.457  -3.632   1.198  0.00  0.00    -0.307 OA
HETATM   10  H   UNK N   1       5.967  -4.049   1.924  0.00  0.00     0.222 HD
ENDBRANCH   1   9
BRANCH   1  11
HETATM   11  O   UNK N   1       7.871  -2.391   0.523  0.00  0.00    -0.195 OA
BRANCH  11  12
HETATM   12  P   UNK N   1       8.904  -2.247  -0.872  0.00  0.00     0.399 P 
HETATM   13  O   UNK N   1       9.113  -0.888  -0.152  0.00  0.00    -0.631 OA
BRANCH  12  14
HETATM   14  O   UNK N   1      10.624  -2.162  -0.661  0.00  0.00    -0.307 OA
HETATM   15  H   UNK N   1      11.146  -2.971  -0.543  0.00  0.00     0.222 HD
ENDBRANCH  12  14
BRANCH  12  16
HETATM   16  O   UNK N   1       9.457  -3.554   0.128  0.00  0.00    -0.307 OA
HETATM   17  H   UNK N   1       8.979  -4.187   0.686  0.00  0.00     0.222 HD
ENDBRANCH  12  16
ENDBRANCH  11  12
ENDBRANCH   1  11
TORSDOF 10
