REMARK  9 active torsions:
REMARK  status: ('A' for Active; 'I' for Inactive)
REMARK    1  A    between atoms: C_2  and  N_3 
REMARK    2  A    between atoms: N_3  and  C_5 
REMARK    3  A    between atoms: N_3  and  C_7 
REMARK    4  A    between atoms: C_7  and  C_8 
REMARK    5  A    between atoms: C_8  and  C_9 
REMARK    6  A    between atoms: C_9  and  N_10 
REMARK    7  A    between atoms: C_11  and  C_12 
REMARK    8  A    between atoms: C_22  and  N_23 
REMARK    9  A    between atoms: C_28  and  N_29 
ROOT
HETATM    1  N   UNK N   1       1.243   2.974   0.579  0.00  0.00    -0.345 N 
HETATM    2  C   UNK N   1       2.615   2.960   0.322  0.00  0.00     0.056 A 
HETATM    3  C   UNK N   1       3.256   4.210   0.015  0.00  0.00     0.005 A 
HETATM    4  C   UNK N   1       2.493   5.399  -0.065  0.00  0.00    -0.011 A 
HETATM    5  C   UNK N   1       3.126   6.623  -0.358  0.00  0.00     0.015 A 
HETATM    6  C   UNK N   1       4.503   6.686  -0.551  0.00  0.00     0.030 A 
HETATM    7  C   UNK N   1       5.264   5.527  -0.463  0.00  0.00     0.026 A 
HETATM    8  C   UNK N   1       4.646   4.309  -0.190  0.00  0.00     0.043 A 
HETATM    9  C   UNK N   1       1.116   5.359   0.154  0.00  0.00     0.002 A 
HETATM   10  C   UNK N   1       0.505   4.135   0.490  0.00  0.00     0.048 A 
HETATM   11  C   UNK N   1      -0.889   4.124   0.730  0.00  0.00     0.059 A 
HETATM   12  C   UNK N   1      -1.650   5.289   0.626  0.00  0.00     0.027 A 
HETATM   13  C   UNK N   1      -1.037   6.491   0.289  0.00  0.00     0.030 A 
HETATM   14  C   UNK N   1       0.338   6.529   0.060  0.00  0.00     0.017 A 
ENDROOT
BRANCH   1  15
HETATM   15  C   UNK N   1       0.526   1.759   0.979  0.00  0.00     0.131 C 
BRANCH  15  16
HETATM   16  C   UNK N   1      -0.051   1.034  -0.217  0.00  0.00     0.048 C 
BRANCH  16  17
HETATM   17  C   UNK N   1      -1.298   0.306   0.261  0.00  0.00     0.238 C 
BRANCH  17  18
HETATM   18  N   UNK N   1      -2.456   0.443  -0.629  0.00  0.00    -0.071 N 
HETATM   19  C   UNK N   1      -2.250  -0.370  -1.828  0.00  0.00     0.272 C 
BRANCH  18  20
HETATM   20  C   UNK N   1      -3.580  -0.113   0.131  0.00  0.00     0.232 C 
HETATM   21  C   UNK N   1      -4.918  -0.032  -0.605  0.00  0.00     0.035 C 
ENDBRANCH  18  20
BRANCH  18  22
HETATM   22  C   UNK N   1      -2.757   1.856  -0.942  0.00  0.00     0.232 C 
HETATM   23  C   UNK N   1      -1.866   2.468  -2.025  0.00  0.00     0.035 C 
ENDBRANCH  18  22
ENDBRANCH  17  18
ENDBRANCH  16  17
ENDBRANCH  15  16
ENDBRANCH   1  15
BRANCH   2  24
HETATM   24  C   UNK N   1       3.423   1.648   0.350  0.00  0.00    -0.008 A 
HETATM   25  C   UNK N   1       4.749   1.594  -0.126  0.00  0.00     0.014 A 
HETATM   26  C   UNK N   1       5.475   0.401  -0.158  0.00  0.00     0.001 A 
HETATM   27  C   UNK N   1       4.889  -0.782   0.285  0.00  0.00     0.000 A 
HETATM   28  C   UNK N   1       3.582  -0.766   0.763  0.00  0.00     0.001 A 
HETATM   29  C   UNK N   1       2.864   0.432   0.790  0.00  0.00     0.014 A 
ENDBRANCH   2  24
BRANCH  12  30
HETATM   30  N   UNK N   1      -3.038   5.246   0.856  0.00  0.00    -0.399 N 
HETATM   31  H   UNK N   1      -3.549   6.072   1.017  0.00  0.00     0.156 HD
HETATM   32  H   UNK N   1      -3.505   4.379   0.856  0.00  0.00     0.156 HD
ENDBRANCH  12  30
BRANCH   7  33
HETATM   33  N   UNK N   1       6.660   5.585  -0.637  0.00  0.00    -0.399 N 
HETATM   34  H   UNK N   1       7.183   4.760  -0.760  0.00  0.00     0.156 HD
HETATM   35  H   UNK N   1       7.116   6.457  -0.637  0.00  0.00     0.156 HD
ENDBRANCH   7  33
TORSDOF 9
