REMARK  18 active torsions:
REMARK  status: ('A' for Active; 'I' for Inactive)
REMARK    1  A    between atoms: C_4  and  C_3 
REMARK    2  A    between atoms: C_5  and  C_3 
REMARK    3  A    between atoms: C_6  and  C_4 
REMARK    4  A    between atoms: C_10  and  C_5 
REMARK    5  A    between atoms: C_11  and  C_6 
REMARK    6  A    between atoms: C_12  and  C_7 
REMARK    7  A    between atoms: N_16  and  C_7 
REMARK    8  A    between atoms: C_13  and  C_8 
REMARK    9  A    between atoms: N_17  and  C_8 
REMARK   10  A    between atoms: C_14  and  C_9 
REMARK   11  A    between atoms: N_19  and  C_9 
REMARK   12  A    between atoms: C_15  and  C_10 
REMARK   13  A    between atoms: C_10  and  N_21 
REMARK   14  A    between atoms: C_11  and  O_23 
REMARK   15  A    between atoms: C_12  and  O_24 
REMARK   16  A    between atoms: C_13  and  O_25 
REMARK   17  A    between atoms: O_27  and  C_14 
REMARK   18  A    between atoms: O_29  and  C_15 
ROOT
HETATM    1  C   UNK N   1       1.520  -0.186   1.057  0.00  0.00     0.083 C 
ENDROOT
BRANCH   1   2
HETATM    2  C   UNK N   1       2.248  -0.115  -0.286  0.00  0.00     0.008 C 
BRANCH   2   3
HETATM    3  C   UNK N   1       2.102  -1.408  -1.090  0.00  0.00     0.003 C 
BRANCH   3   4
HETATM    4  C   UNK N   1       2.697  -2.575  -0.315  0.00  0.00     0.036 C 
BRANCH   4   5
HETATM    5  C   UNK N   1       4.069  -3.029  -0.827  0.00  0.00     0.181 C 
BRANCH   5   6
HETATM    6  C   UNK N   1       5.072  -1.898  -0.789  0.00  0.00     0.163 C 
HETATM    7  O   UNK N   1       4.913  -0.912  -1.492  0.00  0.00    -0.648 OA
BRANCH   6   8
HETATM    8  O   UNK N   1       6.159  -1.973   0.004  0.00  0.00    -0.775 OA
HETATM    9  H   UNK N   1       6.491  -2.654   0.555  0.00  0.00     0.167 HD
ENDBRANCH   6   8
ENDBRANCH   5   6
BRANCH   5  10
HETATM   10  N   UNK N   1       4.552  -4.120   0.000  0.00  0.00    -0.359 N 
HETATM   11  C   UNK N   1       3.942  -5.250   0.131  0.00  0.00     0.129 C 
ATOM     12  HN  UNK N   1       5.426  -3.985   0.509  1.00  0.00     0.162 HD
BRANCH  11  13
HETATM   13  C   UNK N   1       4.535  -6.302   1.006  0.00  0.00     0.195 C 
BRANCH  13  14
HETATM   14  N   UNK N   1       4.837  -7.483   0.216  0.00  0.00    -0.423 N 
HETATM   15  H   UNK N   1       4.225  -8.081  -0.338  0.00  0.00     0.150 HD
HETATM   16  H   UNK N   1       5.819  -7.758   0.216  0.00  0.00     0.150 HD
ENDBRANCH  13  14
ENDBRANCH  11  13
BRANCH  11  17
HETATM   17  O   UNK N   1       2.778  -5.492  -0.508  0.00  0.00    -0.348 OA
HETATM   18  H   UNK N   1       2.229  -4.876  -0.951  0.00  0.00     0.219 HD
ENDBRANCH  11  17
ENDBRANCH   5  10
ENDBRANCH   4   5
ENDBRANCH   3   4
ENDBRANCH   2   3
ENDBRANCH   1   2
BRANCH   1  19
HETATM   19  C   UNK N   1       0.077  -0.498   0.847  0.00  0.00     0.111 C 
HETATM   20  N   UNK N   1      -0.653   0.333   0.173  0.00  0.00    -0.363 N 
ATOM     21  HN  UNK N   1      -0.186   1.190  -0.123  1.00  0.00     0.162 HD
BRANCH  20  22
HETATM   22  C   UNK N   1      -2.052   0.211  -0.219  0.00  0.00     0.153 C 
HETATM   23  C   UNK N   1      -2.793   1.469   0.193  0.00  0.00     0.041 C 
BRANCH  22  24
HETATM   24  C   UNK N   1      -2.781  -0.991   0.324  0.00  0.00     0.135 C 
HETATM   25  N   UNK N   1      -3.154  -1.925  -0.487  0.00  0.00    -0.359 N 
ATOM     26  HN  UNK N   1      -2.934  -1.818  -1.478  1.00  0.00     0.162 HD
BRANCH  25  27
HETATM   27  C   UNK N   1      -3.867  -3.115  -0.072  0.00  0.00     0.177 C 
HETATM   28  C   UNK N   1      -3.699  -4.168  -1.158  0.00  0.00     0.043 C 
BRANCH  27  29
HETATM   29  C   UNK N   1      -5.326  -2.799   0.167  0.00  0.00     0.163 C 
HETATM   30  O   UNK N   1      -6.200  -3.349  -0.485  0.00  0.00    -0.648 OA
BRANCH  29  31
HETATM   31  O   UNK N   1      -5.673  -1.904   1.111  0.00  0.00    -0.775 OA
HETATM   32  H   UNK N   1      -5.254  -1.383   1.768  0.00  0.00     0.167 HD
ENDBRANCH  29  31
ENDBRANCH  27  29
ENDBRANCH  25  27
BRANCH  24  33
HETATM   33  O   UNK N   1      -3.018  -1.091   1.651  0.00  0.00    -0.348 OA
HETATM   34  H   UNK N   1      -3.160  -0.984   2.571  0.00  0.00     0.219 HD
ENDBRANCH  24  33
ENDBRANCH  22  24
ENDBRANCH  20  22
BRANCH  19  35
HETATM   35  O   UNK N   1      -0.402  -1.671   1.306  0.00  0.00    -0.350 OA
HETATM   36  H   UNK N   1      -1.275  -1.790   1.626  0.00  0.00     0.219 HD
ENDBRANCH  19  35
ENDBRANCH   1  19
TORSDOF 18
