REMARK  4 active torsions:
REMARK  status: ('A' for Active; 'I' for Inactive)
REMARK    1  A    between atoms: N_1  and  O_2 
REMARK    2  A    between atoms: O_2  and  C_3 
REMARK    3  A    between atoms: C_3  and  C_4 
REMARK    4  A    between atoms: C_4  and  O_5 
ROOT
HETATM    1  C   UNK N   1       1.645   0.749  -0.000  0.00  0.00     0.310 C 
ENDROOT
BRANCH   1   2
HETATM    2  O   UNK N   1       0.905   1.932   0.000  0.00  0.00    -0.277 OA
BRANCH   2   3
HETATM    3  N   UNK N   1       1.831   2.917  -0.000  0.00  0.00    -0.311 N 
HETATM    4  H   UNK N   1       2.824   2.684  -0.000  0.00  0.00     0.184 HD
HETATM    5  H   UNK N   1       1.536   3.894  -0.000  0.00  0.00     0.184 HD
ENDBRANCH   2   3
ENDBRANCH   1   2
BRANCH   1   6
HETATM    6  C   UNK N   1       0.738  -0.440  -0.000  0.00  0.00     0.166 C 
HETATM    7  O   UNK N   1      -0.479  -0.291  -0.000  0.00  0.00    -0.648 OA
BRANCH   6   8
HETATM    8  O   UNK N   1       1.256  -1.678  -0.000  0.00  0.00    -0.775 OA
HETATM    9  H   UNK N   1       0.688  -2.424   0.000  0.00  0.00     0.167 HD
ENDBRANCH   6   8
ENDBRANCH   1   6
TORSDOF 4
