REMARK  16 active torsions:
REMARK  status: ('A' for Active; 'I' for Inactive)
REMARK    1  A    between atoms: C_4  and  C_3 
REMARK    2  A    between atoms: C_5  and  C_4 
REMARK    3  A    between atoms: C_6  and  C_5 
REMARK    4  A    between atoms: C_7  and  C_6 
REMARK    5  A    between atoms: C_9  and  C_8 
REMARK    6  A    between atoms: C_10  and  C_9 
REMARK    7  A    between atoms: C_12  and  C_11 
REMARK    8  A    between atoms: C_13  and  C_12 
REMARK    9  A    between atoms: C_15  and  C_14 
REMARK   10  A    between atoms: C_16  and  C_15 
REMARK   11  A    between atoms: C_18  and  C_17 
REMARK   12  A    between atoms: C_19  and  C_18 
REMARK   13  A    between atoms: C_20  and  C_19 
REMARK   14  A    between atoms: C_21  and  C_20 
REMARK   15  A    between atoms: P_25  and  C_21 
REMARK   16  A    between atoms: P_25  and  O_24 
ROOT
HETATM    1  C   UNK N   1       5.424   3.889   0.424  0.00  0.00    -0.027 C 
HETATM    2  C   UNK N   1       4.203   4.253   0.004  0.00  0.00    -0.027 C 
ENDROOT
BRANCH   2   3
HETATM    3  C   UNK N   1       2.985   3.407   0.219  0.00  0.00     0.053 C 
BRANCH   3   4
HETATM    4  C   UNK N   1       2.956   2.214  -0.697  0.00  0.00    -0.027 C 
HETATM    5  C   UNK N   1       1.948   1.332  -0.672  0.00  0.00    -0.030 C 
BRANCH   5   6
HETATM    6  C   UNK N   1       0.789   1.454   0.275  0.00  0.00     0.027 C 
BRANCH   6   7
HETATM    7  C   UNK N   1      -0.051   2.693  -0.013  0.00  0.00     0.004 C 
BRANCH   7   8
HETATM    8  C   UNK N   1      -1.360   2.336  -0.700  0.00  0.00     0.012 C 
BRANCH   8   9
HETATM    9  C   UNK N   1      -2.197   1.454   0.211  0.00  0.00     0.137 C 
BRANCH   9  10
HETATM   10  P   UNK N   1      -4.010   1.678  -0.127  0.00  0.00     0.365 P 
HETATM   11  F   UNK N   1      -3.503   2.270   1.405  0.00  0.00    -0.156 F 
HETATM   12  O   UNK N   1      -4.878   0.757   0.771  0.00  0.00    -0.254 OA
BRANCH  10  13
HETATM   13  O   UNK N   1      -4.744   3.247  -0.014  0.00  0.00    -0.316 OA
HETATM   14  C   UNK N   1      -5.510   3.362  -1.173  0.00  0.00     0.213 C 
ENDBRANCH  10  13
ENDBRANCH   9  10
ENDBRANCH   8   9
ENDBRANCH   7   8
ENDBRANCH   6   7
ENDBRANCH   5   6
ENDBRANCH   3   4
ENDBRANCH   2   3
BRANCH   1  15
HETATM   15  C   UNK N   1       5.668   2.605   1.160  0.00  0.00     0.053 C 
BRANCH  15  16
HETATM   16  C   UNK N   1       6.671   1.760   0.435  0.00  0.00    -0.027 C 
HETATM   17  C   UNK N   1       6.416   0.492   0.084  0.00  0.00    -0.027 C 
BRANCH  17  18
HETATM   18  C   UNK N   1       5.096  -0.163   0.387  0.00  0.00     0.053 C 
BRANCH  18  19
HETATM   19  C   UNK N   1       5.085  -1.622   0.019  0.00  0.00    -0.027 C 
HETATM   20  C   UNK N   1       3.967  -2.357   0.088  0.00  0.00    -0.030 C 
BRANCH  20  21
HETATM   21  C   UNK N   1       2.659  -1.764   0.521  0.00  0.00     0.027 C 
BRANCH  21  22
HETATM   22  C   UNK N   1       1.539  -2.778   0.393  0.00  0.00     0.004 C 
BRANCH  22  23
HETATM   23  C   UNK N   1       0.206  -2.064   0.463  0.00  0.00    -0.000 C 
BRANCH  23  24
HETATM   24  C   UNK N   1      -0.905  -3.036   0.129  0.00  0.00    -0.005 C 
HETATM   25  C   UNK N   1      -2.225  -2.296   0.077  0.00  0.00     0.005 C 
ENDBRANCH  23  24
ENDBRANCH  22  23
ENDBRANCH  21  22
ENDBRANCH  20  21
ENDBRANCH  18  19
ENDBRANCH  17  18
ENDBRANCH  15  16
ENDBRANCH   1  15
TORSDOF 16
