REMARK  8 active torsions:
REMARK  status: ('A' for Active; 'I' for Inactive)
REMARK    1  A    between atoms: C_6  and  C_7 
REMARK    2  A    between atoms: C_7  and  O_8 
REMARK    3  A    between atoms: O_8  and  P_9 
REMARK    4  A    between atoms: P_9  and  O_10 
REMARK    5  A    between atoms: P_9  and  O_11 
REMARK    6  A    between atoms: C_13  and  C_14 
REMARK    7  A    between atoms: C_14  and  O_15 
REMARK    8  A    between atoms: C_16  and  O_17 
ROOT
HETATM    1  C   UNK N   1       3.955   1.829  -0.350  0.00  0.00     0.071 C 
HETATM    2  C   UNK N   1       2.652   1.135  -0.140  0.00  0.00     0.039 A 
HETATM    3  N   UNK N   1       2.633  -0.217  -0.034  0.00  0.00    -0.367 N 
ATOM      4  HN  UNK N   1       3.508  -0.735  -0.120  1.00  0.00     0.165 HD
HETATM    5  C   UNK N   1       1.479  -0.898   0.184  0.00  0.00     0.098 A 
HETATM    6  C   UNK N   1       0.266  -0.220   0.301  0.00  0.00    -0.007 A 
HETATM    7  C   UNK N   1       0.238   1.186   0.179  0.00  0.00     0.010 A 
HETATM    8  C   UNK N   1       1.460   1.870  -0.043  0.00  0.00     0.096 A 
ENDROOT
BRANCH   6   9
HETATM    9  C   UNK N   1      -0.957  -1.026   0.613  0.00  0.00     0.221 C 
BRANCH   9  10
HETATM   10  O   UNK N   1      -1.967  -0.857  -0.339  0.00  0.00    -0.292 OA
BRANCH  10  11
HETATM   11  P   UNK N   1      -3.436  -1.052   0.576  0.00  0.00     0.391 P 
HETATM   12  O   UNK N   1      -3.350  -2.391  -0.205  0.00  0.00    -0.632 OA
BRANCH  11  13
HETATM   13  O   UNK N   1      -4.969  -1.156  -0.227  0.00  0.00    -0.307 OA
HETATM   14  H   UNK N   1      -5.449  -0.443  -0.676  0.00  0.00     0.222 HD
ENDBRANCH  11  13
BRANCH  11  15
HETATM   15  O   UNK N   1      -3.633   0.274  -0.526  0.00  0.00    -0.307 OA
HETATM   16  H   UNK N   1      -3.046   0.740  -1.143  0.00  0.00     0.222 HD
ENDBRANCH  11  15
ENDBRANCH  10  11
ENDBRANCH   9  10
ENDBRANCH   6   9
BRANCH   7  17
HETATM   17  C   UNK N   1      -1.090   1.902   0.306  0.00  0.00     0.206 C 
BRANCH  17  18
HETATM   18  O   UNK N   1      -1.030   3.269   0.033  0.00  0.00    -0.396 OA
HETATM   19  H   UNK N   1      -0.186   3.708  -0.157  0.00  0.00     0.209 HD
ENDBRANCH  17  18
ENDBRANCH   7  17
BRANCH   8  20
HETATM   20  O   UNK N   1       1.500   3.210  -0.147  0.00  0.00    -0.358 OA
HETATM   21  H   UNK N   1       2.323   3.653  -0.219  0.00  0.00     0.217 HD
ENDBRANCH   8  20
TORSDOF 8
