REMARK  15 active torsions:
REMARK  status: ('A' for Active; 'I' for Inactive)
REMARK    1  A    between atoms: C_4  and  C_2 
REMARK    2  A    between atoms: O_29  and  C_2 
REMARK    3  A    between atoms: C_6  and  O_19 
REMARK    4  A    between atoms: C_7  and  O_20 
REMARK    5  A    between atoms: O_21  and  C_9 
REMARK    6  A    between atoms: C_10  and  N_18 
REMARK       I    between atoms: N_12  and  C_11 
REMARK    7  A    between atoms: P_33  and  O_23 
REMARK    8  A    between atoms: P_33  and  O_24 
REMARK    9  A    between atoms: P_34  and  O_25 
REMARK   10  A    between atoms: P_35  and  O_28 
REMARK   11  A    between atoms: P_34  and  O_29 
REMARK   12  A    between atoms: P_33  and  O_31 
REMARK   13  A    between atoms: P_35  and  O_31 
REMARK   14  A    between atoms: P_34  and  O_32 
REMARK   15  A    between atoms: P_35  and  O_32 
ROOT
HETATM    1  C   UNK N   1      -0.817  -4.522   0.471  0.00  0.00     0.180 C 
HETATM    2  C   UNK N   1       0.612  -4.834  -0.025  0.00  0.00     0.182 C 
HETATM    3  C   UNK N   1       1.141  -3.463  -0.405  0.00  0.00     0.198 C 
HETATM    4  C   UNK N   1       0.233  -2.596   0.441  0.00  0.00     0.262 C 
HETATM    5  O   UNK N   1      -1.055  -3.142   0.244  0.00  0.00    -0.353 OA
ENDROOT
BRANCH   1   6
HETATM    6  C   UNK N   1      -1.855  -5.445  -0.141  0.00  0.00     0.215 C 
BRANCH   6   7
HETATM    7  O   UNK N   1      -3.127  -5.181   0.358  0.00  0.00    -0.294 OA
BRANCH   7   8
HETATM    8  P   UNK N   1      -4.161  -5.496  -1.001  0.00  0.00     0.401 P 
HETATM    9  O   UNK N   1      -4.245  -7.040  -1.147  0.00  0.00    -0.631 OA
BRANCH   8  10
HETATM   10  O   UNK N   1      -3.495  -4.880  -2.482  0.00  0.00    -0.307 OA
HETATM   11  H   UNK N   1      -3.011  -5.030  -3.309  0.00  0.00     0.222 HD
ENDBRANCH   8  10
BRANCH   8  12
HETATM   12  O   UNK N   1      -5.790  -4.939  -0.760  0.00  0.00    -0.195 OA
BRANCH  12  13
HETATM   13  P   UNK N   1      -5.700  -3.437   0.121  0.00  0.00     0.410 P 
HETATM   14  O   UNK N   1      -5.595  -3.768   1.635  0.00  0.00    -0.631 OA
BRANCH  13  15
HETATM   15  O   UNK N   1      -4.294  -2.503  -0.295  0.00  0.00    -0.307 OA
HETATM   16  H   UNK N   1      -3.450  -2.922  -0.527  0.00  0.00     0.222 HD
ENDBRANCH  13  15
BRANCH  13  17
HETATM   17  O   UNK N   1      -7.130  -2.467  -0.112  0.00  0.00    -0.195 OA
BRANCH  17  18
HETATM   18  P   UNK N   1      -8.510  -3.513   0.110  0.00  0.00     0.399 P 
HETATM   19  O   UNK N   1      -8.494  -4.053   1.565  0.00  0.00    -0.631 OA
BRANCH  18  20
HETATM   20  O   UNK N   1      -9.982  -2.609  -0.060  0.00  0.00    -0.307 OA
HETATM   21  H   UNK N   1      -9.956  -1.644  -0.156  0.00  0.00     0.222 HD
ENDBRANCH  18  20
BRANCH  18  22
HETATM   22  O   UNK N   1      -8.519  -4.872  -0.970  0.00  0.00    -0.307 OA
HETATM   23  H   UNK N   1      -9.180  -5.248  -1.574  0.00  0.00     0.222 HD
ENDBRANCH  18  22
ENDBRANCH  17  18
ENDBRANCH  13  17
ENDBRANCH  12  13
ENDBRANCH   8  12
ENDBRANCH   7   8
ENDBRANCH   6   7
ENDBRANCH   1   6
BRANCH   2  24
HETATM   24  O   UNK N   1       0.666  -5.712  -1.115  0.00  0.00    -0.390 OA
HETATM   25  H   UNK N   1       0.159  -6.048  -1.870  0.00  0.00     0.210 HD
ENDBRANCH   2  24
BRANCH   3  26
HETATM   26  O   UNK N   1       0.890  -3.197  -1.756  0.00  0.00    -0.388 OA
HETATM   27  H   UNK N   1       0.963  -2.954  -2.692  0.00  0.00     0.210 HD
ENDBRANCH   3  26
BRANCH   4  28
HETATM   28  N   UNK N   1       0.312  -1.161   0.158  0.00  0.00    -0.296 N 
HETATM   29  C   UNK N   1      -0.711  -0.265   0.067  0.00  0.00     0.190 A 
HETATM   30  N   UNK N   1      -0.225   1.004  -0.009  0.00  0.00    -0.341 N 
HETATM   31  C   UNK N   1      -1.010   2.225  -0.065  0.00  0.00     0.157 C 
HETATM   32  C   UNK N   1       1.116   0.887   0.035  0.00  0.00     0.132 A 
HETATM   33  C   UNK N   1       1.431  -0.420   0.125  0.00  0.00     0.158 A 
HETATM   34  C   UNK N   1       2.125   1.843   0.036  0.00  0.00     0.186 A 
HETATM   35  N   UNK N   1       2.711  -0.859   0.201  0.00  0.00    -0.174 N 
HETATM   36  C   UNK N   1       3.714   0.066   0.169  0.00  0.00     0.679 A 
HETATM   37  H   UNK N   1       2.912  -1.820   0.278  0.00  0.00     0.186 HD
HETATM   38  N   UNK N   1       4.933  -0.319   0.212  0.00  0.00    -0.234 N 
HETATM   39  N   UNK N   1       3.421   1.406   0.097  0.00  0.00    -0.168 N 
HETATM   40  H   UNK N   1       5.145  -1.279   0.245  0.00  0.00     0.174 HD
ATOM     41  HN  UNK N   1       5.685   0.370   0.212  1.00  0.00     0.174 HD
ATOM     42  HN  UNK N   1       4.181   2.087   0.089  1.00  0.00     0.186 HD
BRANCH  34  43
HETATM   43  O   UNK N   1       1.852   3.157  -0.007  0.00  0.00    -0.344 OA
HETATM   44  H   UNK N   1       2.551   3.781  -0.036  0.00  0.00     0.219 HD
ENDBRANCH  34  43
ENDBRANCH   4  28
TORSDOF 15
