REMARK  12 active torsions:
REMARK  status: ('A' for Active; 'I' for Inactive)
REMARK    1  A    between atoms: C_2  and  O_16 
REMARK    2  A    between atoms: C_3  and  O_19 
REMARK    3  A    between atoms: C_4  and  O_20 
REMARK    4  A    between atoms: C_5  and  C_22 
REMARK    5  A    between atoms: C_6  and  O_21 
REMARK    6  A    between atoms: C_7  and  O_13 
REMARK    7  A    between atoms: C_8  and  O_14 
REMARK    8  A    between atoms: C_10  and  O_15 
REMARK    9  A    between atoms: C_11  and  C_17 
REMARK   10  A    between atoms: C_12  and  O_16 
REMARK   11  A    between atoms: O_18  and  C_17 
REMARK   12  A    between atoms: C_22  and  O_23 
ROOT
HETATM    1  O   UNK N   1       1.096  -0.397  -0.822  0.00  0.00    -0.348 OA
ENDROOT
BRANCH   1   2
HETATM    2  C   UNK N   1       0.321  -1.319  -0.110  0.00  0.00     0.292 C 
HETATM    3  O   UNK N   1      -0.968  -1.349  -0.681  0.00  0.00    -0.348 OA
HETATM    4  C   UNK N   1      -1.790  -2.097   0.177  0.00  0.00     0.179 C 
HETATM    5  C   UNK N   1      -1.411  -3.576   0.046  0.00  0.00     0.180 C 
HETATM    6  C   UNK N   1       0.043  -3.725   0.500  0.00  0.00     0.183 C 
HETATM    7  C   UNK N   1       0.942  -2.719  -0.222  0.00  0.00     0.204 C 
BRANCH   4   8
HETATM    8  C   UNK N   1      -3.245  -1.871  -0.201  0.00  0.00     0.198 C 
BRANCH   8   9
HETATM    9  O   UNK N   1      -3.594  -0.540   0.033  0.00  0.00    -0.398 OA
HETATM   10  H   UNK N   1      -2.914   0.132   0.195  0.00  0.00     0.209 HD
ENDBRANCH   8   9
ENDBRANCH   4   8
BRANCH   5  11
HETATM   11  O   UNK N   1      -2.236  -4.366   0.849  0.00  0.00    -0.390 OA
HETATM   12  H   UNK N   1      -2.998  -4.144   1.406  0.00  0.00     0.210 HD
ENDBRANCH   5  11
BRANCH   6  13
HETATM   13  O   UNK N   1       0.488  -5.026   0.261  0.00  0.00    -0.390 OA
HETATM   14  H   UNK N   1      -0.140  -5.746   0.095  0.00  0.00     0.210 HD
ENDBRANCH   6  13
BRANCH   7  15
HETATM   15  O   UNK N   1       2.216  -2.729   0.353  0.00  0.00    -0.388 OA
HETATM   16  H   UNK N   1       2.652  -3.498   0.751  0.00  0.00     0.210 HD
ENDBRANCH   7  15
ENDBRANCH   1   2
BRANCH   1  17
HETATM   17  C   UNK N   1       1.341   0.698   0.023  0.00  0.00     0.187 C 
HETATM   18  C   UNK N   1       2.771   1.186  -0.250  0.00  0.00     0.183 C 
HETATM   19  C   UNK N   1       3.038   2.570   0.344  0.00  0.00     0.204 C 
HETATM   20  C   UNK N   1       1.895   3.488  -0.081  0.00  0.00     0.288 C 
HETATM   21  O   UNK N   1       0.702   2.990   0.461  0.00  0.00    -0.349 OA
HETATM   22  C   UNK N   1       0.363   1.853  -0.295  0.00  0.00     0.180 C 
BRANCH  18  23
HETATM   23  O   UNK N   1       3.703   0.265   0.229  0.00  0.00    -0.390 OA
HETATM   24  H   UNK N   1       3.473  -0.616   0.562  0.00  0.00     0.210 HD
ENDBRANCH  18  23
BRANCH  19  25
HETATM   25  O   UNK N   1       4.251   3.059  -0.143  0.00  0.00    -0.388 OA
HETATM   26  H   UNK N   1       4.967   2.499  -0.481  0.00  0.00     0.210 HD
ENDBRANCH  19  25
BRANCH  20  27
HETATM   27  O   UNK N   1       2.112   4.782   0.395  0.00  0.00    -0.369 OA
HETATM   28  H   UNK N   1       2.966   5.102   0.725  0.00  0.00     0.212 HD
ENDBRANCH  20  27
BRANCH  22  29
HETATM   29  C   UNK N   1      -1.069   1.470   0.035  0.00  0.00     0.198 C 
BRANCH  29  30
HETATM   30  O   UNK N   1      -1.939   2.489  -0.353  0.00  0.00    -0.398 OA
HETATM   31  H   UNK N   1      -1.627   3.367  -0.623  0.00  0.00     0.209 HD
ENDBRANCH  29  30
ENDBRANCH  22  29
ENDBRANCH   1  17
TORSDOF 12
