REMARK  9 active torsions:
REMARK  status: ('A' for Active; 'I' for Inactive)
REMARK    1  A    between atoms: C_2  and  N_1 
REMARK    2  A    between atoms: C_2  and  C_3 
REMARK    3  A    between atoms: C_2  and  C_11 
REMARK    4  A    between atoms: C_3  and  C_4 
REMARK    5  A    between atoms: C_4  and  C_5 
REMARK    6  A    between atoms: C_5  and  C_6 
REMARK    7  A    between atoms: C_6  and  C_8 
REMARK    8  A    between atoms: C_8  and  O_9 
REMARK    9  A    between atoms: C_11  and  O_12 
ROOT
HETATM    1  C   UNK N   1       7.130   2.889  -0.544  0.00  0.00     0.036 C 
ENDROOT
BRANCH   1   2
HETATM    2  C   UNK N   1       8.316   2.615   0.370  0.00  0.00     0.173 C 
BRANCH   2   3
HETATM    3  N   UNK N   1       9.278   3.695   0.222  0.00  0.00    -0.418 N 
HETATM    4  H   UNK N   1      10.272   3.490   0.119  0.00  0.00     0.150 HD
HETATM    5  H   UNK N   1       8.958   4.663   0.222  0.00  0.00     0.150 HD
ENDBRANCH   2   3
BRANCH   2   6
HETATM    6  C   UNK N   1       8.967   1.294   0.055  0.00  0.00     0.163 C 
HETATM    7  O   UNK N   1       8.321   0.261   0.133  0.00  0.00    -0.648 OA
BRANCH   6   8
HETATM    8  O   UNK N   1      10.269   1.237  -0.293  0.00  0.00    -0.775 OA
HETATM    9  H   UNK N   1      10.687   0.434  -0.535  0.00  0.00     0.167 HD
ENDBRANCH   6   8
ENDBRANCH   2   6
ENDBRANCH   1   2
BRANCH   1  10
HETATM   10  C   UNK N   1       5.844   2.255  -0.032  0.00  0.00     0.007 C 
BRANCH  10  11
HETATM   11  C   UNK N   1       4.775   3.340  -0.014  0.00  0.00     0.044 C 
BRANCH  11  12
HETATM   12  C   UNK N   1       3.323   2.917   0.021  0.00  0.00     0.006 C 
HETATM   13  C   UNK N   1       2.416   3.893   0.028  0.00  0.00     0.026 C 
BRANCH  12  14
HETATM   14  C   UNK N   1       2.847   1.506   0.019  0.00  0.00     0.171 C 
HETATM   15  O   UNK N   1       3.638   0.576   0.011  0.00  0.00    -0.646 OA
BRANCH  14  16
HETATM   16  O   UNK N   1       1.524   1.243   0.023  0.00  0.00    -0.773 OA
HETATM   17  H   UNK N   1       0.907   1.948   0.025  0.00  0.00     0.167 HD
ENDBRANCH  14  16
ENDBRANCH  12  14
ENDBRANCH  11  12
ENDBRANCH  10  11
ENDBRANCH   1  10
TORSDOF 9
