REMARK  8 active torsions:
REMARK  status: ('A' for Active; 'I' for Inactive)
REMARK       I    between atoms: N_1  and  C_2 
REMARK    1  A    between atoms: N_7  and  C_8 
REMARK    2  A    between atoms: C_8  and  C_9 
REMARK    3  A    between atoms: C_9  and  N_10 
REMARK    4  A    between atoms: N_10  and  C_11 
REMARK    5  A    between atoms: C_11  and  C_12 
REMARK    6  A    between atoms: C_11  and  C_14 
REMARK    7  A    between atoms: C_12  and  O_13 
REMARK    8  A    between atoms: C_14  and  O_15 
ROOT
HETATM    1  N   UNK N   1      -4.291   5.175  -0.294  0.00  0.00    -0.234 N 
HETATM    2  C   UNK N   1      -3.010   4.615  -0.128  0.00  0.00     0.680 A 
HETATM    3  N   UNK N   1      -1.923   5.435   0.024  0.00  0.00    -0.174 N 
ATOM      4  HN  UNK N   1      -2.028   6.449   0.019  1.00  0.00     0.186 HD
HETATM    5  C   UNK N   1      -0.706   4.863   0.182  0.00  0.00     0.154 A 
HETATM    6  C   UNK N   1      -0.530   3.527   0.195  0.00  0.00     0.149 A 
HETATM    7  N   UNK N   1       0.771   3.268   0.370  0.00  0.00    -0.334 N 
HETATM    8  C   UNK N   1       1.375   4.481   0.466  0.00  0.00     0.185 A 
HETATM    9  N   UNK N   1       0.471   5.493   0.348  0.00  0.00    -0.336 N 
ATOM     10  HN  UNK N   1       0.645   6.497   0.380  1.00  0.00     0.168 HD
HETATM   11  C   UNK N   1      -1.616   2.677   0.043  0.00  0.00     0.290 A 
HETATM   12  O   UNK N   1      -1.487   1.467   0.050  0.00  0.00    -0.265 OA
HETATM   13  N   UNK N   1      -2.859   3.249  -0.119  0.00  0.00    -0.154 N 
HETATM   14  H   UNK N   1      -4.399   6.147  -0.410  0.00  0.00     0.174 HD
HETATM   15  H   UNK N   1      -5.083   4.591  -0.294  0.00  0.00     0.174 HD
HETATM   16  H   UNK N   1      -3.648   2.672  -0.230  0.00  0.00     0.187 HD
ENDROOT
BRANCH   7  17
HETATM   17  C   UNK N   1       1.403   1.965   0.476  0.00  0.00     0.149 C 
BRANCH  17  18
HETATM   18  C   UNK N   1       2.385   1.739  -0.656  0.00  0.00     0.134 C 
BRANCH  18  19
HETATM   19  N   UNK N   1       3.322   0.712  -0.226  0.00  0.00    -0.411 N 
HETATM   20  H   UNK N   1       3.069  -0.270  -0.109  0.00  0.00     0.153 HD
BRANCH  19  21
HETATM   21  C   UNK N   1       4.671   1.241   0.021  0.00  0.00     0.123 C 
BRANCH  21  22
HETATM   22  C   UNK N   1       5.416   0.258   0.905  0.00  0.00     0.191 C 
BRANCH  22  23
HETATM   23  O   UNK N   1       5.522  -0.980   0.272  0.00  0.00    -0.399 OA
HETATM   24  H   UNK N   1       4.813  -1.475  -0.168  0.00  0.00     0.209 HD
ENDBRANCH  22  23
ENDBRANCH  21  22
BRANCH  21  25
HETATM   25  C   UNK N   1       4.685   2.593   0.737  0.00  0.00     0.191 C 
BRANCH  25  26
HETATM   26  O   UNK N   1       4.563   3.627  -0.193  0.00  0.00    -0.399 OA
HETATM   27  H   UNK N   1       5.143   4.060  -0.838  0.00  0.00     0.209 HD
ENDBRANCH  25  26
ENDBRANCH  21  25
ENDBRANCH  19  21
ENDBRANCH  18  19
ENDBRANCH  17  18
ENDBRANCH   7  17
TORSDOF 8
