REMARK  1 active torsions:
REMARK  status: ('A' for Active; 'I' for Inactive)
REMARK    1  A    between atoms: C_2  and  N_3 
ROOT
HETATM    1  N   UNK N   1       0.896   0.378  -0.000  0.00  0.00    -0.426 N 
HETATM    2  C   UNK N   1      -0.546   0.537   0.000  0.00  0.00     0.139 C 
HETATM    3  H   UNK N   1       1.592   1.124  -0.000  0.00  0.00     0.152 HD
ENDROOT
BRANCH   1   4
HETATM    4  C   UNK N   1       1.152  -1.050  -0.000  0.00  0.00     0.108 C 
HETATM    5  C   UNK N   1       2.645  -1.294   0.000  0.00  0.00     0.026 C 
ENDBRANCH   1   4
TORSDOF 1
