REMARK  13 active torsions:
REMARK  status: ('A' for Active; 'I' for Inactive)
REMARK    1  A    between atoms: C_8  and  C_4 
REMARK    2  A    between atoms: C_11  and  C_6 
REMARK    3  A    between atoms: N_17  and  C_6 
REMARK    4  A    between atoms: C_10  and  C_7 
REMARK    5  A    between atoms: O_24  and  C_7 
REMARK    6  A    between atoms: C_12  and  C_8 
REMARK    7  A    between atoms: C_14  and  C_12 
REMARK    8  A    between atoms: C_12  and  N_17 
REMARK    9  A    between atoms: O_18  and  C_13 
REMARK   10  A    between atoms: O_20  and  C_14 
REMARK   11  A    between atoms: P_25  and  O_21 
REMARK   12  A    between atoms: P_25  and  O_22 
REMARK   13  A    between atoms: P_25  and  O_24 
ROOT
HETATM    1  C   UNK N   1      10.308  -4.941   0.255  0.00  0.00     0.071 C 
HETATM    2  C   UNK N   1      11.384  -1.378   0.000  0.00  0.00     0.098 A 
HETATM    3  C   UNK N   1      10.247  -3.462   0.073  0.00  0.00     0.039 A 
HETATM    4  C   UNK N   1      10.195  -0.710  -0.300  0.00  0.00    -0.008 A 
HETATM    5  C   UNK N   1       9.003  -1.443  -0.404  0.00  0.00     0.004 A 
HETATM    6  C   UNK N   1       9.028  -2.833  -0.218  0.00  0.00     0.096 A 
HETATM    7  N   UNK N   1      11.385  -2.728   0.180  0.00  0.00    -0.367 N 
ATOM      8  HN  UNK N   1      12.262  -3.200   0.401  1.00  0.00     0.165 HD
ENDROOT
BRANCH   5   9
HETATM    9  C   UNK N   1       7.716  -0.765  -0.753  0.00  0.00     0.157 C 
BRANCH   9  10
HETATM   10  N   UNK N   1       7.011  -0.326   0.453  0.00  0.00    -0.404 N 
HETATM   11  H   UNK N   1       7.434  -0.270   1.380  0.00  0.00     0.154 HD
BRANCH  10  12
HETATM   12  C   UNK N   1       5.609   0.023   0.152  0.00  0.00     0.179 C 
BRANCH  12  13
HETATM   13  C   UNK N   1       4.831  -1.221  -0.371  0.00  0.00     0.014 C 
HETATM   14  C   UNK N   1       4.893  -2.355   0.646  0.00  0.00     0.012 C 
BRANCH  13  15
HETATM   15  C   UNK N   1       3.364  -0.939  -0.722  0.00  0.00     0.002 C 
HETATM   16  C   UNK N   1       2.541  -0.448   0.459  0.00  0.00     0.005 C 
ENDBRANCH  13  15
ENDBRANCH  12  13
BRANCH  12  17
HETATM   17  C   UNK N   1       5.522   1.222  -0.783  0.00  0.00     0.163 C 
HETATM   18  O   UNK N   1       6.533   1.751  -1.220  0.00  0.00    -0.648 OA
BRANCH  17  19
HETATM   19  O   UNK N   1       4.321   1.742  -1.104  0.00  0.00    -0.775 OA
HETATM   20  H   UNK N   1       4.217   2.646  -1.326  0.00  0.00     0.167 HD
ENDBRANCH  17  19
ENDBRANCH  12  17
ENDBRANCH  10  12
ENDBRANCH   9  10
ENDBRANCH   5   9
BRANCH   4  21
HETATM   21  C   UNK N   1      10.211   0.759  -0.568  0.00  0.00     0.221 C 
BRANCH  21  22
HETATM   22  O   UNK N   1      10.545   1.495   0.569  0.00  0.00    -0.292 OA
BRANCH  22  23
HETATM   23  P   UNK N   1      10.564   3.141   0.003  0.00  0.00     0.391 P 
HETATM   24  O   UNK N   1       9.145   3.480  -0.531  0.00  0.00    -0.632 OA
BRANCH  23  25
HETATM   25  O   UNK N   1      10.898   4.261   1.285  0.00  0.00    -0.307 OA
HETATM   26  H   UNK N   1      11.534   4.412   2.002  0.00  0.00     0.222 HD
ENDBRANCH  23  25
BRANCH  23  27
HETATM   27  O   UNK N   1      11.679   3.349  -1.312  0.00  0.00    -0.307 OA
HETATM   28  H   UNK N   1      12.091   2.868  -2.046  0.00  0.00     0.222 HD
ENDBRANCH  23  27
ENDBRANCH  22  23
ENDBRANCH  21  22
ENDBRANCH   4  21
BRANCH   6  29
HETATM   29  O   UNK N   1       7.898  -3.554  -0.332  0.00  0.00    -0.358 OA
HETATM   30  H   UNK N   1       7.069  -3.124  -0.410  0.00  0.00     0.217 HD
ENDBRANCH   6  29
TORSDOF 13
