REMARK  18 active torsions:
REMARK  status: ('A' for Active; 'I' for Inactive)
REMARK    1  A    between atoms: C_22  and  C_21 
REMARK    2  A    between atoms: C_28  and  C_21 
REMARK    3  A    between atoms: C_32  and  C_22 
REMARK    4  A    between atoms: C_24  and  C_23 
REMARK    5  A    between atoms: C_32  and  C_23 
REMARK    6  A    between atoms: S_45  and  C_24 
REMARK    7  A    between atoms: C_29  and  C_25 
REMARK    8  A    between atoms: C_33  and  C_25 
REMARK    9  A    between atoms: C_30  and  C_26 
REMARK   10  A    between atoms: O_44  and  C_26 
REMARK   11  A    between atoms: C_31  and  C_27 
REMARK   12  A    between atoms: S_45  and  C_27 
REMARK   13  A    between atoms: C_32  and  N_36 
REMARK   14  A    between atoms: C_34  and  C_33 
REMARK   15  A    between atoms: C_33  and  N_38 
REMARK   16  A    between atoms: C_34  and  O_40 
REMARK   17  A    between atoms: C_35  and  O_41 
REMARK   18  A    between atoms: O_44  and  C_35 
ROOT
HETATM    1  C   UNK N   1       6.430   9.683   1.000  0.00  0.00     0.135 C 
HETATM    2  N   UNK N   1       6.859  10.673   0.283  0.00  0.00    -0.368 N 
ATOM      3  HN  UNK N   1       6.822  11.565   0.778  1.00  0.00     0.161 HD
ENDROOT
BRANCH   1   4
HETATM    4  C   UNK N   1       6.309   8.201   0.630  0.00  0.00     0.164 C 
BRANCH   4   5
HETATM    5  C   UNK N   1       6.845   7.571  -0.672  0.00  0.00     0.072 C 
BRANCH   5   6
HETATM    6  C   UNK N   1       6.970   6.090  -0.484  0.00  0.00    -0.056 A 
HETATM    7  C   UNK N   1       8.195   5.566  -0.062  0.00  0.00     0.007 A 
HETATM    8  C   UNK N   1       8.306   4.212   0.263  0.00  0.00     0.001 A 
HETATM    9  C   UNK N   1       7.187   3.379   0.176  0.00  0.00     0.000 A 
HETATM   10  C   UNK N   1       5.960   3.898  -0.250  0.00  0.00     0.001 A 
HETATM   11  C   UNK N   1       5.847   5.255  -0.572  0.00  0.00     0.007 A 
ENDBRANCH   5   6
ENDBRANCH   4   5
BRANCH   4  12
HETATM   12  N   UNK N   1       4.908   7.911   0.806  0.00  0.00    -0.338 N 
HETATM   13  C   UNK N   1       4.027   8.166  -0.092  0.00  0.00     0.259 C 
ATOM     14  HN  UNK N   1       4.604   7.485   1.681  1.00  0.00     0.164 HD
BRANCH  13  15
HETATM   15  O   UNK N   1       4.389   8.514  -1.343  0.00  0.00    -0.327 OA
HETATM   16  H   UNK N   1       4.724   8.417  -2.213  0.00  0.00     0.221 HD
ENDBRANCH  13  15
BRANCH  13  17
HETATM   17  O   UNK N   1       2.728   8.147   0.194  0.00  0.00    -0.312 OA
BRANCH  17  18
HETATM   18  C   UNK N   1       2.203   7.812   1.413  0.00  0.00     0.218 C 
BRANCH  18  19
HETATM   19  C   UNK N   1       0.894   7.283   1.045  0.00  0.00    -0.034 A 
HETATM   20  C   UNK N   1       0.831   6.017   0.459  0.00  0.00     0.009 A 
HETATM   21  C   UNK N   1      -0.344   5.596  -0.156  0.00  0.00     0.001 A 
HETATM   22  C   UNK N   1      -1.444   6.457  -0.214  0.00  0.00     0.000 A 
HETATM   23  C   UNK N   1      -1.372   7.732   0.358  0.00  0.00     0.001 A 
HETATM   24  C   UNK N   1      -0.194   8.152   0.974  0.00  0.00     0.009 A 
ENDBRANCH  18  19
ENDBRANCH  17  18
ENDBRANCH  13  17
ENDBRANCH   4  12
ENDBRANCH   1   4
BRANCH   1  25
HETATM   25  O   UNK N   1       6.003   9.985   2.243  0.00  0.00    -0.348 OA
HETATM   26  H   UNK N   1       6.037  10.348   3.106  0.00  0.00     0.219 HD
ENDBRANCH   1  25
BRANCH   2  27
HETATM   27  C   UNK N   1       7.378  10.800  -1.063  0.00  0.00     0.084 C 
BRANCH  27  28
HETATM   28  C   UNK N   1       8.401   9.737  -1.455  0.00  0.00     0.029 C 
BRANCH  28  29
HETATM   29  C   UNK N   1       9.329   9.368  -0.279  0.00  0.00     0.040 C 
BRANCH  29  30
HETATM   30  C   UNK N   1      10.238  10.485   0.119  0.00  0.00    -0.058 A 
HETATM   31  C   UNK N   1       9.737  11.680   0.657  0.00  0.00     0.007 A 
HETATM   32  C   UNK N   1      10.593  12.742   0.941  0.00  0.00     0.001 A 
HETATM   33  C   UNK N   1      11.963  12.604   0.713  0.00  0.00     0.000 A 
HETATM   34  C   UNK N   1      12.473  11.398   0.221  0.00  0.00     0.001 A 
HETATM   35  C   UNK N   1      11.610  10.342  -0.080  0.00  0.00     0.007 A 
ENDBRANCH  29  30
ENDBRANCH  28  29
ENDBRANCH  27  28
BRANCH  27  36
HETATM   36  C   UNK N   1       6.380  11.315  -2.109  0.00  0.00     0.040 C 
BRANCH  36  37
HETATM   37  C   UNK N   1       4.908  11.005  -1.888  0.00  0.00     0.142 C 
BRANCH  37  38
HETATM   38  S   UNK N   1       4.033  11.989  -0.612  0.00  0.00     0.148 S 
HETATM   39  O   UNK N   1       5.021  12.549   0.425  0.00  0.00    -0.228 OA
HETATM   40  O   UNK N   1       3.332  10.979   0.306  0.00  0.00    -0.228 OA
BRANCH  38  41
HETATM   41  C   UNK N   1       2.776  13.253  -0.966  0.00  0.00     0.178 C 
BRANCH  41  42
HETATM   42  C   UNK N   1       3.115  14.536  -0.300  0.00  0.00    -0.044 A 
HETATM   43  C   UNK N   1       2.249  15.064   0.662  0.00  0.00     0.008 A 
HETATM   44  C   UNK N   1       2.572  16.259   1.309  0.00  0.00     0.001 A 
HETATM   45  C   UNK N   1       3.764  16.923   0.998  0.00  0.00     0.000 A 
HETATM   46  C   UNK N   1       4.629  16.396   0.035  0.00  0.00     0.001 A 
HETATM   47  C   UNK N   1       4.303  15.206  -0.617  0.00  0.00     0.008 A 
ENDBRANCH  41  42
ENDBRANCH  38  41
ENDBRANCH  37  38
ENDBRANCH  36  37
ENDBRANCH  27  36
ENDBRANCH   2  27
TORSDOF 18
