REMARK  8 active torsions:
REMARK  status: ('A' for Active; 'I' for Inactive)
REMARK    1  A    between atoms: C_17  and  C_14 
REMARK    2  A    between atoms: C_22  and  C_14 
REMARK    3  A    between atoms: C_18  and  C_15 
REMARK    4  A    between atoms: C_26  and  C_15 
REMARK    5  A    between atoms: C_23  and  C_19 
REMARK    6  A    between atoms: O_32  and  C_20 
REMARK    7  A    between atoms: O_33  and  C_21 
REMARK    8  A    between atoms: C_26  and  O_35 
ROOT
HETATM    1  C   UNK N   1       1.491   0.216  -0.075  0.00  0.00     0.132 A 
HETATM    2  C   UNK N   1       1.742   2.958  -0.435  0.00  0.00     0.059 A 
HETATM    3  C   UNK N   1       2.747   0.789  -0.362  0.00  0.00     0.059 A 
HETATM    4  C   UNK N   1       0.519   2.369  -0.115  0.00  0.00     0.136 A 
HETATM    5  C   UNK N   1      -0.872   0.771   0.301  0.00  0.00     0.285 A 
HETATM    6  C   UNK N   1      -1.667   2.054   0.344  0.00  0.00     0.221 A 
HETATM    7  N   UNK N   1       2.833   2.144  -0.552  0.00  0.00    -0.354 N 
ATOM      8  HN  UNK N   1       3.736   2.555  -0.788  1.00  0.00     0.166 HD
HETATM    9  N   UNK N   1      -0.590   2.992   0.046  0.00  0.00    -0.335 N 
ATOM     10  HN  UNK N   1      -0.703   4.003  -0.025  1.00  0.00     0.164 HD
HETATM   11  N   UNK N   1       0.424   1.046   0.035  0.00  0.00    -0.271 N 
HETATM   12  O   UNK N   1      -1.304  -0.356   0.488  0.00  0.00    -0.267 OA
ENDROOT
BRANCH   6  13
HETATM   13  C   UNK N   1      -2.744   2.185  -0.736  0.00  0.00     0.110 C 
BRANCH  13  14
HETATM   14  C   UNK N   1      -4.057   1.524  -0.457  0.00  0.00    -0.053 A 
HETATM   15  C   UNK N   1      -5.211   2.314  -0.397  0.00  0.00     0.010 A 
HETATM   16  C   UNK N   1      -6.463   1.720  -0.214  0.00  0.00     0.037 A 
HETATM   17  C   UNK N   1      -6.565   0.331  -0.097  0.00  0.00     0.065 A 
HETATM   18  C   UNK N   1      -5.414  -0.461  -0.152  0.00  0.00     0.037 A 
HETATM   19  C   UNK N   1      -4.161   0.134  -0.337  0.00  0.00     0.010 A 
BRANCH  17  20
HETATM   20  O   UNK N   1      -7.769  -0.241   0.062  0.00  0.00    -0.361 OA
HETATM   21  H   UNK N   1      -8.535   0.286   0.173  0.00  0.00     0.217 HD
ENDBRANCH  17  20
ENDBRANCH  13  14
ENDBRANCH   6  13
BRANCH   6  22
HETATM   22  O   UNK N   1      -2.178   2.291   1.622  0.00  0.00    -0.363 OA
HETATM   23  H   UNK N   1      -2.213   2.681   2.509  0.00  0.00     0.213 HD
ENDBRANCH   6  22
BRANCH   2  24
HETATM   24  C   UNK N   1       1.839   4.432  -0.716  0.00  0.00     0.099 C 
BRANCH  24  25
HETATM   25  C   UNK N   1       3.097   5.097  -0.249  0.00  0.00    -0.052 A 
HETATM   26  C   UNK N   1       3.021   6.187   0.625  0.00  0.00     0.007 A 
HETATM   27  C   UNK N   1       4.185   6.864   1.006  0.00  0.00     0.001 A 
HETATM   28  C   UNK N   1       5.427   6.455   0.511  0.00  0.00     0.000 A 
HETATM   29  C   UNK N   1       5.506   5.370  -0.367  0.00  0.00     0.001 A 
HETATM   30  C   UNK N   1       4.343   4.699  -0.754  0.00  0.00     0.007 A 
ENDBRANCH  24  25
ENDBRANCH   2  24
BRANCH   3  31
HETATM   31  C   UNK N   1       3.974  -0.035  -0.379  0.00  0.00    -0.008 A 
HETATM   32  C   UNK N   1       3.915  -1.420  -0.156  0.00  0.00     0.016 A 
HETATM   33  C   UNK N   1       5.091  -2.175  -0.087  0.00  0.00     0.037 A 
HETATM   34  C   UNK N   1       6.333  -1.550  -0.230  0.00  0.00     0.065 A 
HETATM   35  C   UNK N   1       6.400  -0.174  -0.463  0.00  0.00     0.037 A 
HETATM   36  C   UNK N   1       5.226   0.580  -0.537  0.00  0.00     0.016 A 
BRANCH  34  37
HETATM   37  O   UNK N   1       7.461  -2.271  -0.137  0.00  0.00    -0.361 OA
HETATM   38  H   UNK N   1       7.420  -3.205  -0.073  0.00  0.00     0.217 HD
ENDBRANCH  34  37
ENDBRANCH   3  31
TORSDOF 8
