REMARK  11 active torsions:
REMARK  status: ('A' for Active; 'I' for Inactive)
REMARK    1  A    between atoms: C_4  and  C_3 
REMARK    2  A    between atoms: C_5  and  C_3 
REMARK    3  A    between atoms: C_6  and  C_4 
REMARK    4  A    between atoms: C_7  and  C_5 
REMARK    5  A    between atoms: C_12  and  C_6 
REMARK    6  A    between atoms: C_15  and  C_7 
REMARK    7  A    between atoms: N_17  and  C_12 
REMARK    8  A    between atoms: C_16  and  C_13 
REMARK    9  A    between atoms: N_20  and  C_14 
REMARK   10  A    between atoms: O_21  and  C_15 
REMARK       I    between atoms: N_17  and  C_16 
REMARK   11  A    between atoms: N_18  and  O_23 
ROOT
HETATM    1  C   UNK N   1      -0.052   2.632   0.628  0.00  0.00     0.123 C 
ENDROOT
BRANCH   1   2
HETATM    2  C   UNK N   1       0.773   2.075  -0.515  0.00  0.00     0.020 C 
BRANCH   2   3
HETATM    3  C   UNK N   1       2.248   2.196  -0.196  0.00  0.00     0.002 C 
BRANCH   3   4
HETATM    4  C   UNK N   1       2.827   0.822   0.086  0.00  0.00     0.000 C 
BRANCH   4   5
HETATM    5  C   UNK N   1       4.240   0.955   0.621  0.00  0.00     0.008 C 
BRANCH   5   6
HETATM    6  C   UNK N   1       5.234   1.119  -0.516  0.00  0.00     0.086 C 
BRANCH   6   7
HETATM    7  C   UNK N   1       6.188   2.224  -0.206  0.00  0.00     0.135 C 
HETATM    8  N   UNK N   1       7.439   1.969  -0.068  0.00  0.00    -0.251 N 
ATOM      9  HN  UNK N   1       7.772   1.010  -0.170  1.00  0.00     0.196 HD
BRANCH   8  10
HETATM   10  O   UNK N   1       8.298   2.930   0.202  0.00  0.00    -0.288 OA
HETATM   11  H   UNK N   1       9.195   2.743   0.394  0.00  0.00     0.244 HD
ENDBRANCH   8  10
BRANCH   7  12
HETATM   12  O   UNK N   1       5.730   3.487  -0.080  0.00  0.00    -0.348 OA
HETATM   13  H   UNK N   1       6.330   4.201   0.007  0.00  0.00     0.219 HD
ENDBRANCH   7  12
ENDBRANCH   6   7
ENDBRANCH   5   6
ENDBRANCH   4   5
ENDBRANCH   3   4
ENDBRANCH   2   3
ENDBRANCH   1   2
BRANCH   1  14
HETATM   14  N   UNK N   1      -0.705   3.850   0.213  0.00  0.00    -0.357 N 
HETATM   15  C   UNK N   1      -2.039   3.975  -0.042  0.00  0.00     0.251 C 
HETATM   16  O   UNK N   1      -2.470   5.082  -0.323  0.00  0.00    -0.268 OA
HETATM   17  H   UNK N   1      -0.144   4.652   0.105  0.00  0.00     0.162 HD
BRANCH  15  18
HETATM   18  C   UNK N   1      -2.998   2.824  -0.003  0.00  0.00     0.032 A 
HETATM   19  C   UNK N   1      -4.370   3.067  -0.183  0.00  0.00     0.019 A 
HETATM   20  C   UNK N   1      -5.289   2.013  -0.163  0.00  0.00     0.030 A 
HETATM   21  C   UNK N   1      -4.854   0.691   0.026  0.00  0.00     0.029 A 
HETATM   22  C   UNK N   1      -3.484   0.448   0.199  0.00  0.00     0.030 A 
HETATM   23  C   UNK N   1      -2.572   1.503   0.187  0.00  0.00     0.019 A 
BRANCH  21  24
HETATM   24  N   UNK N   1      -5.787  -0.390   0.041  0.00  0.00    -0.390 N 
HETATM   25  C   UNK N   1      -5.338  -1.751   0.193  0.00  0.00     0.149 C 
HETATM   26  C   UNK N   1      -7.201  -0.148  -0.098  0.00  0.00     0.149 C 
ENDBRANCH  21  24
ENDBRANCH  15  18
ENDBRANCH   1  14
TORSDOF 11
