REMARK  0 active torsions:
REMARK  status: ('A' for Active; 'I' for Inactive)
REMARK       I    between atoms: C_10  and  N_11 
ROOT
HETATM    1  C   UNK N   1      -2.965  -0.467   0.000  0.00  0.00     0.098 C 
HETATM    2  C   UNK N   1      -1.483  -0.575   0.000  0.00  0.00     0.122 A 
HETATM    3  N   UNK N   1      -0.802  -1.754   0.000  0.00  0.00    -0.332 N 
ATOM      4  HN  UNK N   1      -1.175  -2.703   0.000  1.00  0.00     0.168 HD
HETATM    5  C   UNK N   1       0.484  -1.358   0.000  0.00  0.00     0.155 A 
HETATM    6  C   UNK N   1       0.536  -0.010  -0.000  0.00  0.00     0.196 A 
HETATM    7  O   UNK N   1      -0.674   0.470   0.000  0.00  0.00    -0.278 OA
HETATM    8  N   UNK N   1       1.699   0.680  -0.000  0.00  0.00    -0.168 N 
ATOM      9  HN  UNK N   1       1.704   1.700  -0.000  1.00  0.00     0.186 HD
HETATM   10  C   UNK N   1       2.868  -0.029  -0.000  0.00  0.00     0.680 A 
HETATM   11  N   UNK N   1       4.097   0.658  -0.000  0.00  0.00    -0.234 N 
HETATM   12  N   UNK N   1       2.849  -1.405  -0.000  0.00  0.00    -0.154 N 
HETATM   13  C   UNK N   1       1.655  -2.097  -0.000  0.00  0.00     0.290 A 
HETATM   14  O   UNK N   1       1.641  -3.314   0.000  0.00  0.00    -0.265 OA
HETATM   15  H   UNK N   1       4.942   0.154  -0.000  0.00  0.00     0.174 HD
HETATM   16  H   UNK N   1       4.110   1.642  -0.000  0.00  0.00     0.174 HD
HETATM   17  H   UNK N   1       3.699  -1.902  -0.000  0.00  0.00     0.187 HD
ENDROOT
TORSDOF 0
