REMARK  7 active torsions:
REMARK  status: ('A' for Active; 'I' for Inactive)
REMARK    1  A    between atoms: O_34  and  C_3 
REMARK       I    between atoms: N_28  and  C_18 
REMARK    2  A    between atoms: C_20  and  C_19 
REMARK    3  A    between atoms: N_30  and  C_21 
REMARK    4  A    between atoms: O_34  and  C_22 
REMARK    5  A    between atoms: S_35  and  C_23 
REMARK    6  A    between atoms: S_35  and  C_24 
REMARK    7  A    between atoms: N_29  and  C_25 
ROOT
HETATM    1  C   UNK N   1      -0.409  -3.061   0.325  0.00  0.00     0.014 C 
HETATM    2  C   UNK N   1       0.712  -3.774   0.081  0.00  0.00     0.022 C 
HETATM    3  C   UNK N   1       0.860  -1.013   0.400  0.00  0.00     0.049 C 
HETATM    4  C   UNK N   1      -0.380  -1.670   0.387  0.00  0.00    -0.023 C 
HETATM    5  C   UNK N   1       2.052  -1.764   0.208  0.00  0.00     0.120 C 
HETATM    6  C   UNK N   1       1.934  -3.158  -0.066  0.00  0.00     0.038 C 
ENDROOT
BRANCH   4   7
HETATM    7  C   UNK N   1      -1.683  -1.006   0.203  0.00  0.00    -0.021 A 
HETATM    8  C   UNK N   1      -1.916   0.373   0.152  0.00  0.00     0.029 A 
HETATM    9  C   UNK N   1      -3.226   0.821  -0.132  0.00  0.00     0.090 A 
HETATM   10  N   UNK N   1      -4.237  -0.076  -0.372  0.00  0.00    -0.352 N 
HETATM   11  C   UNK N   1      -3.988  -1.416  -0.371  0.00  0.00     0.103 A 
ATOM     12  HN  UNK N   1      -5.182   0.263  -0.553  1.00  0.00     0.166 HD
HETATM   13  C   UNK N   1      -2.731  -1.858  -0.087  0.00  0.00     0.060 A 
BRANCH  11  14
HETATM   14  N   UNK N   1      -4.985  -2.392  -0.623  0.00  0.00    -0.364 N 
HETATM   15  C   UNK N   1      -4.586  -3.771  -0.875  0.00  0.00     0.144 C 
HETATM   16  C   UNK N   1      -5.074  -4.645   0.264  0.00  0.00     0.145 C 
HETATM   17  N   UNK N   1      -6.483  -4.383   0.424  0.00  0.00    -0.349 N 
HETATM   18  C   UNK N   1      -6.900  -3.019   0.700  0.00  0.00     0.145 C 
HETATM   19  C   UNK N   1      -7.400  -5.365   0.215  0.00  0.00     0.215 C 
HETATM   20  C   UNK N   1      -6.383  -2.102  -0.419  0.00  0.00     0.144 C 
HETATM   21  C   UNK N   1      -6.973  -6.754  -0.153  0.00  0.00     0.117 C 
HETATM   22  O   UNK N   1      -8.593  -5.119   0.300  0.00  0.00    -0.274 OA
ENDBRANCH  11  14
ENDBRANCH   4   7
BRANCH   5  23
HETATM   23  N   UNK N   1       3.314  -1.095   0.220  0.00  0.00    -0.114 N 
HETATM   24  O   UNK N   1       4.329  -1.728   0.255  0.00  0.00    -0.532 OA
HETATM   25  O   UNK N   1       3.363   0.084   0.382  0.00  0.00    -0.532 OA
ENDBRANCH   5  23
BRANCH   6  26
HETATM   26  S   UNK N   1       3.234  -4.122  -0.877  0.00  0.00    -0.085 SA
BRANCH  26  27
HETATM   27  C   UNK N   1       2.585  -5.798  -0.605  0.00  0.00     0.039 A 
HETATM   28  C   UNK N   1       1.333  -6.167  -1.137  0.00  0.00     0.021 A 
HETATM   29  C   UNK N   1       0.757  -7.398  -0.822  0.00  0.00     0.002 A 
HETATM   30  C   UNK N   1       1.429  -8.277   0.024  0.00  0.00     0.003 A 
HETATM   31  C   UNK N   1       2.695  -7.946   0.515  0.00  0.00     0.038 A 
HETATM   32  C   UNK N   1       3.294  -6.721   0.193  0.00  0.00     0.085 A 
BRANCH  32  33
HETATM   33  O   UNK N   1       4.546  -6.476   0.660  0.00  0.00    -0.350 OA
BRANCH  33  34
HETATM   34  C   UNK N   1       5.511  -5.804  -0.067  0.00  0.00     0.171 C 
HETATM   35  C   UNK N   1       5.956  -4.547   0.656  0.00  0.00     0.034 C 
ENDBRANCH  33  34
ENDBRANCH  32  33
ENDBRANCH  26  27
ENDBRANCH   6  26
TORSDOF 7
