REMARK  11 active torsions:
REMARK  status: ('A' for Active; 'I' for Inactive)
REMARK    1  A    between atoms: C_7  and  C_9 
REMARK       I    between atoms: C_9  and  N_11 
REMARK    2  A    between atoms: N_11  and  C_12 
REMARK    3  A    between atoms: C_12  and  C_13 
REMARK    4  A    between atoms: C_13  and  O_14 
REMARK    5  A    between atoms: O_14  and  C_15 
REMARK    6  A    between atoms: C_15  and  C_16 
REMARK    7  A    between atoms: C_16  and  O_17 
REMARK    8  A    between atoms: O_17  and  C_18 
REMARK    9  A    between atoms: C_18  and  C_19 
REMARK   10  A    between atoms: C_19  and  N_20 
REMARK       I    between atoms: N_20  and  C_21 
REMARK   11  A    between atoms: C_21  and  C_23 
ROOT
HETATM    1  C   UNK N   1      -4.008  -5.952   0.376  0.00  0.00     0.193 C 
ENDROOT
BRANCH   1   2
HETATM    2  O   UNK N   1      -5.220  -6.269  -0.236  0.00  0.00    -0.387 OA
BRANCH   2   3
HETATM    3  C   UNK N   1      -6.146  -5.423   0.374  0.00  0.00     0.187 C 
BRANCH   3   4
HETATM    4  C   UNK N   1      -6.599  -4.390  -0.637  0.00  0.00     0.149 C 
BRANCH   4   5
HETATM    5  N   UNK N   1      -7.310  -3.308   0.000  0.00  0.00    -0.354 N 
HETATM    6  C   UNK N   1      -8.633  -3.339   0.307  0.00  0.00     0.268 C 
HETATM    7  O   UNK N   1      -9.163  -2.313   0.708  0.00  0.00    -0.266 OA
HETATM    8  H   UNK N   1      -6.804  -2.495   0.228  0.00  0.00     0.162 HD
BRANCH   6   9
HETATM    9  C   UNK N   1      -9.468  -4.557   0.155  0.00  0.00     0.102 A 
HETATM   10  N   UNK N   1      -8.976  -5.813   0.006  0.00  0.00    -0.351 N 
HETATM   11  C   UNK N   1     -10.048  -6.612  -0.053  0.00  0.00     0.043 A 
HETATM   12  H   UNK N   1      -8.030  -6.079  -0.047  0.00  0.00     0.166 HD
HETATM   13  C   UNK N   1     -11.203  -5.889   0.037  0.00  0.00    -0.005 A 
HETATM   14  C   UNK N   1     -10.052  -7.998  -0.184  0.00  0.00     0.032 A 
HETATM   15  C   UNK N   1     -12.453  -6.493  -0.022  0.00  0.00     0.037 A 
HETATM   16  C   UNK N   1     -10.862  -4.565   0.187  0.00  0.00     0.049 A 
HETATM   17  C   UNK N   1     -12.498  -7.893  -0.169  0.00  0.00     0.035 A 
HETATM   18 Cl   UNK N   1     -14.043  -8.706  -0.272  0.00  0.00    -0.084 Cl
HETATM   19  C   UNK N   1     -11.301  -8.643  -0.240  0.00  0.00     0.026 A 
ENDBRANCH   6   9
ENDBRANCH   4   5
ENDBRANCH   3   4
ENDBRANCH   2   3
ENDBRANCH   1   2
BRANCH   1  20
HETATM   20  C   UNK N   1      -3.318  -4.824  -0.382  0.00  0.00     0.193 C 
BRANCH  20  21
HETATM   21  O   UNK N   1      -2.108  -4.504   0.233  0.00  0.00    -0.387 OA
BRANCH  21  22
HETATM   22  C   UNK N   1      -1.179  -5.349  -0.375  0.00  0.00     0.187 C 
BRANCH  22  23
HETATM   23  C   UNK N   1      -0.726  -6.380   0.638  0.00  0.00     0.149 C 
BRANCH  23  24
HETATM   24  N   UNK N   1      -0.015  -7.463   0.003  0.00  0.00    -0.354 N 
HETATM   25  C   UNK N   1       1.307  -7.433  -0.305  0.00  0.00     0.268 C 
HETATM   26  O   UNK N   1       1.837  -8.460  -0.705  0.00  0.00    -0.266 OA
HETATM   27  H   UNK N   1      -0.522  -8.277  -0.223  0.00  0.00     0.162 HD
BRANCH  25  28
HETATM   28  C   UNK N   1       2.143  -6.216  -0.154  0.00  0.00     0.102 A 
HETATM   29  C   UNK N   1       3.537  -6.207  -0.188  0.00  0.00     0.049 A 
HETATM   30  C   UNK N   1       3.878  -4.883  -0.038  0.00  0.00    -0.005 A 
HETATM   31  C   UNK N   1       2.724  -4.161   0.054  0.00  0.00     0.043 A 
HETATM   32  C   UNK N   1       5.129  -4.279   0.020  0.00  0.00     0.037 A 
HETATM   33  N   UNK N   1       1.652  -4.960  -0.004  0.00  0.00    -0.351 N 
HETATM   34  C   UNK N   1       2.728  -2.775   0.186  0.00  0.00     0.032 A 
HETATM   35  H   UNK N   1       0.706  -4.692   0.050  0.00  0.00     0.166 HD
HETATM   36  C   UNK N   1       3.977  -2.130   0.241  0.00  0.00     0.026 A 
HETATM   37  C   UNK N   1       5.174  -2.880   0.168  0.00  0.00     0.035 A 
HETATM   38 Cl   UNK N   1       6.719  -2.067   0.270  0.00  0.00    -0.084 Cl
ENDBRANCH  25  28
ENDBRANCH  23  24
ENDBRANCH  22  23
ENDBRANCH  21  22
ENDBRANCH  20  21
ENDBRANCH   1  20
TORSDOF 11
