REMARK  8 active torsions:
REMARK  status: ('A' for Active; 'I' for Inactive)
REMARK    1  A    between atoms: N_1  and  C_2 
REMARK    2  A    between atoms: C_2  and  C_3 
REMARK    3  A    between atoms: C_6  and  C_7 
REMARK    4  A    between atoms: C_7  and  N_8 
REMARK    5  A    between atoms: N_8  and  C_9 
REMARK    6  A    between atoms: C_9  and  C_10 
REMARK    7  A    between atoms: C_10  and  C_11 
REMARK    8  A    between atoms: C_11  and  O_12 
ROOT
HETATM    1  C   UNK N   1      -1.064   2.830   0.031  0.00  0.00    -0.033 A 
HETATM    2  C   UNK N   1       0.223   3.370   0.112  0.00  0.00     0.009 A 
HETATM    3  C   UNK N   1       1.340   2.532   0.100  0.00  0.00     0.009 A 
HETATM    4  C   UNK N   1       1.182   1.141   0.001  0.00  0.00    -0.041 A 
HETATM    5  C   UNK N   1      -0.104   0.600  -0.090  0.00  0.00     0.009 A 
HETATM    6  C   UNK N   1      -1.223   1.439  -0.070  0.00  0.00     0.009 A 
ENDROOT
BRANCH   4   7
HETATM    7  C   UNK N   1       2.366   0.215  -0.013  0.00  0.00     0.152 C 
BRANCH   7   8
HETATM    8  N   UNK N   1       3.574   0.846   0.507  0.00  0.00    -0.417 N 
HETATM    9  H   UNK N   1       3.907   0.802   1.470  0.00  0.00     0.153 HD
BRANCH   8  10
HETATM   10  C   UNK N   1       4.220   1.550  -0.591  0.00  0.00     0.124 C 
BRANCH  10  11
HETATM   11  C   UNK N   1       5.522   2.182  -0.116  0.00  0.00     0.129 C 
BRANCH  11  12
HETATM   12  C   UNK N   1       6.651   1.196  -0.011  0.00  0.00     0.140 C 
HETATM   13  O   UNK N   1       6.472   0.008  -0.227  0.00  0.00    -0.650 OA
BRANCH  12  14
HETATM   14  O   UNK N   1       7.882   1.635   0.311  0.00  0.00    -0.776 OA
HETATM   15  H   UNK N   1       8.575   1.046   0.535  0.00  0.00     0.167 HD
ENDBRANCH  12  14
ENDBRANCH  11  12
ENDBRANCH  10  11
ENDBRANCH   8  10
ENDBRANCH   7   8
ENDBRANCH   4   7
BRANCH   1  16
HETATM   16  C   UNK N   1      -2.238   3.762   0.060  0.00  0.00     0.268 C 
BRANCH  16  17
HETATM   17  N   UNK N   1      -3.505   3.049  -0.002  0.00  0.00    -0.075 N 
HETATM   18  H   UNK N   1      -4.382   3.569  -0.045  0.00  0.00     0.274 HD
HETATM   19  H   UNK N   1      -3.517   2.029  -0.002  0.00  0.00     0.274 HD
HETATM   20  H   UNK N   1      -4.393   2.549  -0.045  0.00  0.00     0.274 HD
ENDBRANCH  16  17
ENDBRANCH   1  16
TORSDOF 8
