REMARK  3 active torsions:
REMARK  status: ('A' for Active; 'I' for Inactive)
REMARK    1  A    between atoms: O_1  and  Sb_2 
REMARK    2  A    between atoms: Sb_2  and  O_3 
REMARK    3  A    between atoms: Sb_2  and  O_4 
ROOT
HETATM    1 Sb   UNK N   1       1.079   0.000   0.000  0.00  0.00     0.000 Sb
ENDROOT
BRANCH   1   2
HETATM    2  O   UNK N   1       2.096   1.749   0.000  0.00  0.00    -0.253 OA
HETATM    3  H   UNK N   1       3.066   1.747   0.000  0.00  0.00     0.253 HD
ENDBRANCH   1   2
BRANCH   1   4
HETATM    4  O   UNK N   1       2.096  -1.749   0.000  0.00  0.00    -0.253 OA
HETATM    5  H   UNK N   1       1.613  -2.591   0.000  0.00  0.00     0.253 HD
ENDBRANCH   1   4
BRANCH   1   6
HETATM    6  O   UNK N   1      -0.948   0.000   0.000  0.00  0.00    -0.253 OA
HETATM    7  H   UNK N   1      -1.433   0.840   0.000  0.00  0.00     0.253 HD
ENDBRANCH   1   6
TORSDOF 3
