REMARK  11 active torsions:
REMARK  status: ('A' for Active; 'I' for Inactive)
REMARK    1  A    between atoms: N_1  and  C_2 
REMARK    2  A    between atoms: C_2  and  C_3 
REMARK    3  A    between atoms: C_3  and  N_4 
REMARK    4  A    between atoms: N_4  and  C_5 
REMARK    5  A    between atoms: C_5  and  C_6 
REMARK    6  A    between atoms: C_6  and  N_7 
REMARK    7  A    between atoms: C_6  and  C_8 
REMARK    8  A    between atoms: C_8  and  C_9 
REMARK    9  A    between atoms: C_9  and  C_10 
REMARK   10  A    between atoms: C_10  and  N_11 
REMARK       I    between atoms: N_11  and  C_12 
REMARK       I    between atoms: C_12  and  N_15 
REMARK   11  A    between atoms: N_15  and  N_16 
ROOT
HETATM    1  C   UNK N   1       8.737   2.790  -0.116  0.00  0.00     0.028 C 
ENDROOT
BRANCH   1   2
HETATM    2  C   UNK N   1       7.560   3.652   0.308  0.00  0.00     0.091 C 
BRANCH   2   3
HETATM    3  C   UNK N   1       6.272   3.017  -0.173  0.00  0.00     0.138 C 
BRANCH   3   4
HETATM    4  N   UNK N   1       5.152   3.841   0.242  0.00  0.00    -0.418 N 
HETATM    5  H   UNK N   1       5.207   4.766   0.667  0.00  0.00     0.153 HD
BRANCH   4   6
HETATM    6  C   UNK N   1       3.942   3.106  -0.060  0.00  0.00     0.133 C 
BRANCH   6   7
HETATM    7  C   UNK N   1       2.760   4.041   0.068  0.00  0.00     0.130 C 
BRANCH   7   8
HETATM    8  N   UNK N   1       1.529   3.285  -0.057  0.00  0.00    -0.429 N 
HETATM    9  H   UNK N   1       0.636   3.769  -0.145  0.00  0.00     0.149 HD
HETATM   10  H   UNK N   1       1.557   2.266  -0.057  0.00  0.00     0.149 HD
ENDBRANCH   7   8
ENDBRANCH   6   7
ENDBRANCH   4   6
ENDBRANCH   3   4
ENDBRANCH   2   3
BRANCH   2  11
HETATM   11  N   UNK N   1       7.680   4.990  -0.253  0.00  0.00    -0.424 N 
HETATM   12  H   UNK N   1       8.534   5.386  -0.646  0.00  0.00     0.150 HD
HETATM   13  H   UNK N   1       6.845   5.577  -0.253  0.00  0.00     0.150 HD
ENDBRANCH   2  11
ENDBRANCH   1   2
BRANCH   1  14
HETATM   14  C   UNK N   1      10.034   3.306   0.483  0.00  0.00     0.022 C 
BRANCH  14  15
HETATM   15  C   UNK N   1      10.557   4.465  -0.350  0.00  0.00     0.138 C 
BRANCH  15  16
HETATM   16  N   UNK N   1      11.884   4.853   0.060  0.00  0.00    -0.225 N 
HETATM   17  C   UNK N   1      12.993   3.970  -0.025  0.00  0.00     0.691 C 
HETATM   18  N   UNK N   1      12.812   2.734  -0.327  0.00  0.00    -0.233 N 
HETATM   19  N   UNK N   1      14.307   4.498   0.127  0.00  0.00    -0.072 N 
HETATM   20  H   UNK N   1      11.923   2.380  -0.558  0.00  0.00     0.174 HD
ATOM     21  HN  UNK N   1      13.612   2.102  -0.327  1.00  0.00     0.174 HD
HETATM   22  H   UNK N   1      14.402   5.462   0.302  0.00  0.00     0.212 HD
HETATM   23  H   UNK N   1      12.027   5.762   0.411  0.00  0.00     0.177 HD
BRANCH  19  24
HETATM   24  N   UNK N   1      15.455   3.736   0.042  0.00  0.00    -0.024 N 
HETATM   25  O   UNK N   1      16.627   4.331   0.070  0.00  0.00    -0.516 OA
HETATM   26  O   UNK N   1      15.401   2.547  -0.038  0.00  0.00    -0.516 OA
ENDBRANCH  19  24
ENDBRANCH  15  16
ENDBRANCH  14  15
ENDBRANCH   1  14
TORSDOF 11
