REMARK  3 active torsions:
REMARK  status: ('A' for Active; 'I' for Inactive)
REMARK    1  A    between atoms: C_6  and  N_2 
REMARK       I    between atoms: C_11  and  N_16 
REMARK    2  A    between atoms: C_12  and  O_18 
REMARK    3  A    between atoms: P_22  and  O_24 
ROOT
HETATM    1  C   UNK N   1       2.178   0.430  -0.143  0.00  0.00     0.159 A 
HETATM    2  N   UNK N   1       1.017   1.094  -0.212  0.00  0.00    -0.297 N 
HETATM    3  C   UNK N   1       3.169   1.290   0.160  0.00  0.00     0.147 A 
HETATM    4  N   UNK N   1       2.394  -0.893  -0.334  0.00  0.00    -0.174 N 
ATOM      5  HN  UNK N   1       1.624  -1.520  -0.569  1.00  0.00     0.186 HD
HETATM    6  C   UNK N   1       1.335   2.387   0.062  0.00  0.00     0.188 A 
HETATM    7  N   UNK N   1       2.671   2.533   0.296  0.00  0.00    -0.345 N 
ATOM      8  HN  UNK N   1       3.177   3.389   0.523  1.00  0.00     0.167 HD
HETATM    9  C   UNK N   1       4.473   0.833   0.277  0.00  0.00     0.290 A 
HETATM   10  C   UNK N   1       3.670  -1.369  -0.205  0.00  0.00     0.680 A 
HETATM   11  N   UNK N   1       4.703  -0.513   0.094  0.00  0.00    -0.154 N 
HETATM   12  O   UNK N   1       5.390   1.592   0.535  0.00  0.00    -0.265 OA
HETATM   13  N   UNK N   1       3.924  -2.744  -0.371  0.00  0.00    -0.234 N 
HETATM   14  H   UNK N   1       5.618  -0.865   0.178  0.00  0.00     0.187 HD
HETATM   15  H   UNK N   1       3.181  -3.378  -0.487  0.00  0.00     0.174 HD
HETATM   16  H   UNK N   1       4.852  -3.073  -0.371  0.00  0.00     0.174 HD
ENDROOT
BRANCH   2  17
HETATM   17  C   UNK N   1      -0.300   0.566  -0.574  0.00  0.00     0.262 C 
HETATM   18  C   UNK N   1      -0.742  -0.630   0.270  0.00  0.00     0.199 C 
HETATM   19  C   UNK N   1      -2.161  -0.529  -0.100  0.00  0.00     0.197 C 
HETATM   20  O   UNK N   1      -3.101  -1.276   0.609  0.00  0.00    -0.286 OA
HETATM   21  C   UNK N   1      -2.367   0.910   0.173  0.00  0.00     0.180 C 
HETATM   22  P   UNK N   1      -4.481  -1.273  -0.485  0.00  0.00     0.393 P 
HETATM   23  O   UNK N   1      -5.797  -1.415   0.324  0.00  0.00    -0.631 OA
HETATM   24  O   UNK N   1      -4.632   0.288   0.329  0.00  0.00    -0.294 OA
HETATM   25  C   UNK N   1      -3.767   1.189  -0.337  0.00  0.00     0.215 C 
HETATM   26  O   UNK N   1      -1.317   1.562  -0.499  0.00  0.00    -0.353 OA
BRANCH  18  27
HETATM   27  O   UNK N   1      -0.208  -1.823  -0.214  0.00  0.00    -0.388 OA
HETATM   28  H   UNK N   1      -0.741  -2.560  -0.552  0.00  0.00     0.210 HD
ENDBRANCH  18  27
BRANCH  22  29
HETATM   29  O   UNK N   1      -4.336  -2.789   0.346  0.00  0.00    -0.307 OA
HETATM   30  H   UNK N   1      -5.030  -3.283   0.811  0.00  0.00     0.222 HD
ENDBRANCH  22  29
ENDBRANCH   2  17
TORSDOF 3
