REMARK  2 active torsions:
REMARK  status: ('A' for Active; 'I' for Inactive)
REMARK    1  A    between atoms: N_1  and  C_2 
REMARK    2  A    between atoms: C_2  and  C_3 
ROOT
HETATM    1  C   UNK N   1       0.773   1.505   0.000  0.00  0.00    -0.041 A 
HETATM    2  C   UNK N   1       1.994   0.820   0.000  0.00  0.00     0.009 A 
HETATM    3  C   UNK N   1       2.018  -0.578   0.000  0.00  0.00     0.001 A 
HETATM    4  C   UNK N   1       0.819  -1.299  -0.000  0.00  0.00     0.000 A 
HETATM    5  C   UNK N   1      -0.402  -0.622  -0.000  0.00  0.00     0.001 A 
HETATM    6  C   UNK N   1      -0.427   0.776  -0.000  0.00  0.00     0.009 A 
ENDROOT
BRANCH   1   7
HETATM    7  C   UNK N   1       0.784   3.005   0.000  0.00  0.00     0.150 C 
BRANCH   7   8
HETATM    8  N   UNK N   1      -0.561   3.562  -0.000  0.00  0.00    -0.426 N 
HETATM    9  H   UNK N   1      -0.694   4.573  -0.000  0.00  0.00     0.150 HD
HETATM   10  H   UNK N   1      -1.370   2.941  -0.000  0.00  0.00     0.150 HD
ENDBRANCH   7   8
ENDBRANCH   1   7
TORSDOF 2
