REMARK  22 active torsions:
REMARK  status: ('A' for Active; 'I' for Inactive)
REMARK    1  A    between atoms: N_8  and  C_21 
REMARK    2  A    between atoms: O_59  and  C_16 
REMARK    3  A    between atoms: C_21  and  C_22 
REMARK    4  A    between atoms: C_22  and  C_23 
REMARK    5  A    between atoms: C_22  and  O_27 
REMARK    6  A    between atoms: C_23  and  C_24 
REMARK    7  A    between atoms: C_23  and  O_29 
REMARK    8  A    between atoms: C_24  and  C_25 
REMARK    9  A    between atoms: C_24  and  O_28 
REMARK   10  A    between atoms: C_25  and  O_26 
REMARK   11  A    between atoms: O_26  and  P_30 
REMARK   12  A    between atoms: P_30  and  O_31 
REMARK   13  A    between atoms: P_30  and  O_33 
REMARK   14  A    between atoms: O_31  and  P_34 
REMARK   15  A    between atoms: P_34  and  O_35 
REMARK   16  A    between atoms: P_34  and  O_37 
REMARK   17  A    between atoms: O_35  and  C_39 
REMARK   18  A    between atoms: C_38  and  C_39 
REMARK   19  A    between atoms: C_40  and  O_44 
REMARK   20  A    between atoms: C_41  and  O_45 
REMARK   21  A    between atoms: C_42  and  N_54 
REMARK   22  A    between atoms: C_53  and  N_58 
ROOT
HETATM    1  O   UNK N   1      11.337  -7.137  -1.147  0.00  0.00    -0.294 OA
ENDROOT
BRANCH   1   2
HETATM    2  C   UNK N   1      10.663  -8.273  -0.692  0.00  0.00     0.215 C 
BRANCH   2   3
HETATM    3  C   UNK N   1      10.425  -8.275   0.826  0.00  0.00     0.173 C 
BRANCH   3   4
HETATM    4  C   UNK N   1       9.490  -7.189   1.393  0.00  0.00     0.179 C 
BRANCH   4   5
HETATM    5  C   UNK N   1       8.195  -6.899   0.619  0.00  0.00     0.167 C 
BRANCH   5   6
HETATM    6  C   UNK N   1       8.439  -6.082  -0.650  0.00  0.00     0.165 C 
BRANCH   6   7
HETATM    7  N   UNK N   1       8.281  -4.637  -0.420  0.00  0.00    -0.327 N 
HETATM    8  C   UNK N   1       7.026  -4.105  -0.238  0.00  0.00     0.145 A 
HETATM    9  N   UNK N   1       5.920  -4.904  -0.217  0.00  0.00    -0.292 N 
HETATM   10  C   UNK N   1       6.870  -2.716  -0.065  0.00  0.00     0.146 A 
HETATM   11  C   UNK N   1       4.670  -4.375  -0.021  0.00  0.00     0.328 A 
ATOM     12  HN  UNK N   1       6.025  -5.910  -0.351  1.00  0.00     0.172 HD
HETATM   13  N   UNK N   1       4.510  -3.026   0.146  0.00  0.00    -0.273 N 
HETATM   14  O   UNK N   1       3.697  -5.108   0.010  0.00  0.00    -0.247 OA
HETATM   15  C   UNK N   1       5.592  -2.187   0.123  0.00  0.00     0.280 A 
HETATM   16  H   UNK N   1       3.609  -2.654   0.283  0.00  0.00     0.173 HD
HETATM   17  O   UNK N   1       5.433  -0.989   0.273  0.00  0.00    -0.265 OA
HETATM   18  N   UNK N   1       7.957  -1.907  -0.078  0.00  0.00    -0.345 N 
HETATM   19  C   UNK N   1       9.203  -2.412  -0.235  0.00  0.00     0.094 A 
ATOM     20  HN  UNK N   1       7.834  -0.901   0.033  1.00  0.00     0.166 HD
HETATM   21  C   UNK N   1       9.380  -3.804  -0.410  0.00  0.00     0.066 A 
HETATM   22  C   UNK N   1      10.308  -1.550  -0.210  0.00  0.00     0.101 A 
HETATM   23  C   UNK N   1      10.687  -4.304  -0.547  0.00  0.00     0.039 A 
HETATM   24  C   UNK N   1      11.791  -3.444  -0.490  0.00  0.00    -0.051 A 
HETATM   25  C   UNK N   1      11.603  -2.065  -0.330  0.00  0.00    -0.021 A 
HETATM   26  C   UNK N   1      13.166  -4.000  -0.584  0.00  0.00     0.049 C 
HETATM   27  C   UNK N   1      12.779  -1.141  -0.273  0.00  0.00     0.052 C 
BRANCH  22  28
HETATM   28  O   UNK N   1      10.122  -0.226  -0.056  0.00  0.00    -0.358 OA
HETATM   29  H   UNK N   1      10.856   0.347   0.051  0.00  0.00     0.217 HD
ENDBRANCH  22  28
ENDBRANCH   6   7
ENDBRANCH   5   6
BRANCH   5  30
HETATM   30  O   UNK N   1       7.546  -8.094   0.301  0.00  0.00    -0.391 OA
HETATM   31  H   UNK N   1       6.602  -8.118   0.080  0.00  0.00     0.210 HD
ENDBRANCH   5  30
ENDBRANCH   4   5
BRANCH   4  32
HETATM   32  O   UNK N   1      10.184  -6.018   1.690  0.00  0.00    -0.390 OA
HETATM   33  H   UNK N   1      11.132  -6.028   1.897  0.00  0.00     0.210 HD
ENDBRANCH   4  32
ENDBRANCH   3   4
BRANCH   3  34
HETATM   34  O   UNK N   1       9.968  -9.535   1.204  0.00  0.00    -0.391 OA
HETATM   35  H   UNK N   1       9.049  -9.698   1.468  0.00  0.00     0.210 HD
ENDBRANCH   3  34
ENDBRANCH   2   3
ENDBRANCH   1   2
BRANCH   1  36
HETATM   36  P   UNK N   1      12.999  -7.331  -0.670  0.00  0.00     0.401 P 
HETATM   37  O   UNK N   1      13.831  -6.498  -1.683  0.00  0.00    -0.631 OA
BRANCH  36  38
HETATM   38  O   UNK N   1      13.174  -6.635   0.922  0.00  0.00    -0.195 OA
BRANCH  38  39
HETATM   39  P   UNK N   1      14.786  -6.944   1.502  0.00  0.00     0.401 P 
HETATM   40  O   UNK N   1      14.950  -5.979   2.708  0.00  0.00    -0.631 OA
BRANCH  39  41
HETATM   41  O   UNK N   1      16.054  -6.501   0.393  0.00  0.00    -0.294 OA
BRANCH  41  42
HETATM   42  C   UNK N   1      16.194  -7.593  -0.474  0.00  0.00     0.215 C 
BRANCH  42  43
HETATM   43  C   UNK N   1      17.602  -8.172  -0.456  0.00  0.00     0.180 C 
HETATM   44  C   UNK N   1      18.055  -8.354   0.969  0.00  0.00     0.182 C 
HETATM   45  C   UNK N   1      19.445  -7.786   0.993  0.00  0.00     0.198 C 
HETATM   46  C   UNK N   1      19.432  -6.856  -0.211  0.00  0.00     0.262 C 
HETATM   47  O   UNK N   1      18.512  -7.353  -1.156  0.00  0.00    -0.353 OA
BRANCH  44  48
HETATM   48  O   UNK N   1      18.018  -9.708   1.321  0.00  0.00    -0.390 OA
HETATM   49  H   UNK N   1      17.193 -10.155   1.565  0.00  0.00     0.210 HD
ENDBRANCH  44  48
BRANCH  45  50
HETATM   50  O   UNK N   1      20.385  -8.791   0.758  0.00  0.00    -0.388 OA
HETATM   51  H   UNK N   1      20.108  -9.706   0.595  0.00  0.00     0.210 HD
ENDBRANCH  45  50
BRANCH  46  52
HETATM   52  N   UNK N   1      19.143  -5.457   0.125  0.00  0.00    -0.297 N 
HETATM   53  C   UNK N   1      18.264  -4.610  -0.437  0.00  0.00     0.142 A 
HETATM   54  N   UNK N   1      17.395  -4.849  -1.451  0.00  0.00    -0.336 N 
HETATM   55  C   UNK N   1      18.370  -3.402   0.148  0.00  0.00     0.122 A 
HETATM   56  C   UNK N   1      16.591  -3.823  -1.869  0.00  0.00     0.183 A 
ATOM     57  HN  UNK N   1      17.343  -5.768  -1.890  1.00  0.00     0.168 HD
HETATM   58  N   UNK N   1      16.678  -2.586  -1.278  0.00  0.00    -0.337 N 
HETATM   59  C   UNK N   1      17.567  -2.352  -0.267  0.00  0.00     0.131 A 
ATOM     60  HN  UNK N   1      16.072  -1.831  -1.599  1.00  0.00     0.168 HD
HETATM   61  N   UNK N   1      19.324  -3.437   1.097  0.00  0.00    -0.346 N 
HETATM   62  C   UNK N   1      19.794  -4.716   1.059  0.00  0.00     0.188 A 
ATOM     63  HN  UNK N   1      19.626  -2.677   1.708  1.00  0.00     0.167 HD
BRANCH  59  64
HETATM   64  N   UNK N   1      17.664  -1.076   0.324  0.00  0.00    -0.383 N 
HETATM   65  H   UNK N   1      18.470  -0.689   0.737  0.00  0.00     0.157 HD
HETATM   66  H   UNK N   1      16.851  -0.521   0.324  0.00  0.00     0.157 HD
ENDBRANCH  59  64
ENDBRANCH  46  52
ENDBRANCH  42  43
ENDBRANCH  41  42
ENDBRANCH  39  41
BRANCH  39  67
HETATM   67  O   UNK N   1      14.976  -8.531   2.181  0.00  0.00    -0.307 OA
HETATM   68  H   UNK N   1      14.261  -9.066   2.559  0.00  0.00     0.222 HD
ENDBRANCH  39  67
ENDBRANCH  38  39
ENDBRANCH  36  38
BRANCH  36  69
HETATM   69  O   UNK N   1      13.515  -8.986  -0.791  0.00  0.00    -0.307 OA
HETATM   70  H   UNK N   1      12.859  -9.698  -0.858  0.00  0.00     0.222 HD
ENDBRANCH  36  69
ENDBRANCH   1  36
TORSDOF 22
