REMARK WARNING: 32 MAX_TORS EXCEEDED!!!
REMARK  33 active torsions:
REMARK  status: ('A' for Active; 'I' for Inactive)
REMARK    1  A    between atoms: C_1  and  N_38 
REMARK    2  A    between atoms: C_3  and  O_6 
REMARK    3  A    between atoms: C_4  and  C_32 
REMARK    4  A    between atoms: C_5  and  O_33 
REMARK    5  A    between atoms: N_9  and  C_7 
REMARK    6  A    between atoms: C_7  and  C_8 
REMARK    7  A    between atoms: C_8  and  S_51 
REMARK       I    between atoms: C_10  and  N_9 
REMARK    8  A    between atoms: C_13  and  C_10 
REMARK    9  A    between atoms: C_12  and  N_14 
REMARK   10  A    between atoms: C_13  and  C_12 
REMARK       I    between atoms: C_16  and  N_14 
REMARK   11  A    between atoms: C_16  and  C_21 
REMARK   12  A    between atoms: C_19  and  C_17 
REMARK   13  A    between atoms: C_17  and  O_23 
REMARK   14  A    between atoms: C_21  and  C_19 
REMARK   15  A    between atoms: C_21  and  O_22 
REMARK   16  A    between atoms: O_23  and  P_30 
REMARK   17  A    between atoms: P_30  and  O_24 
REMARK   18  A    between atoms: O_24  and  P_31 
REMARK   19  A    between atoms: P_31  and  O_25 
REMARK   20  A    between atoms: C_32  and  O_25 
REMARK   21  A    between atoms: P_30  and  O_27 
REMARK   22  A    between atoms: P_31  and  O_29 
REMARK   23  A    between atoms: O_33  and  P_36 
REMARK   24  A    between atoms: P_36  and  O_34 
REMARK   25  A    between atoms: P_36  and  O_35 
REMARK   26  A    between atoms: N_50  and  C_46 
REMARK   27  A    between atoms: S_51  and  C_59 
REMARK   28  A    between atoms: C_59  and  C_52 
REMARK   29  A    between atoms: C_52  and  C_53 
REMARK   30  A    between atoms: C_53  and  C_54 
REMARK   31  A    between atoms: C_54  and  C_55 
REMARK   32  A    between atoms: C_55  and  C_56 
REMARK   33  A    between atoms: C_56  and  C_57 
ROOT
HETATM    1  O   UNK N   1      24.932  -0.914   0.045  0.00  0.00    -0.195 OA
ENDROOT
BRANCH   1   2
HETATM    2  P   UNK N   1      23.344  -0.716  -0.660  0.00  0.00     0.401 P 
HETATM    3  O   UNK N   1      22.994  -1.091   0.806  0.00  0.00    -0.631 OA
BRANCH   2   4
HETATM    4  O   UNK N   1      21.884  -1.649  -0.809  0.00  0.00    -0.296 OA
BRANCH   4   5
HETATM    5  C   UNK N   1      20.951  -0.728  -1.320  0.00  0.00     0.192 C 
BRANCH   5   6
HETATM    6  C   UNK N   1      19.858  -0.303  -0.314  0.00  0.00     0.009 C 
HETATM    7  C   UNK N   1      20.409  -0.084   1.086  0.00  0.00     0.020 C 
HETATM    8  C   UNK N   1      19.350   1.040  -0.805  0.00  0.00     0.020 C 
BRANCH   6   9
HETATM    9  C   UNK N   1      18.646  -1.261  -0.298  0.00  0.00     0.219 C 
BRANCH   9  10
HETATM   10  C   UNK N   1      18.870  -2.743  -0.164  0.00  0.00     0.247 C 
HETATM   11  N   UNK N   1      20.039  -3.235   0.315  0.00  0.00    -0.358 N 
HETATM   12  H   UNK N   1      20.678  -2.610   0.727  0.00  0.00     0.162 HD
HETATM   13  O   UNK N   1      17.992  -3.501  -0.547  0.00  0.00    -0.271 OA
BRANCH  11  14
HETATM   14  C   UNK N   1      20.389  -4.635   0.247  0.00  0.00     0.132 C 
BRANCH  14  15
HETATM   15  C   UNK N   1      19.399  -5.547   0.959  0.00  0.00     0.122 C 
BRANCH  15  16
HETATM   16  C   UNK N   1      19.208  -6.804   0.149  0.00  0.00     0.219 C 
HETATM   17  N   UNK N   1      20.234  -7.656  -0.105  0.00  0.00    -0.360 N 
HETATM   18  H   UNK N   1      20.066  -8.447  -0.668  0.00  0.00     0.162 HD
HETATM   19  O   UNK N   1      18.102  -7.051  -0.303  0.00  0.00    -0.274 OA
BRANCH  17  20
HETATM   20  C   UNK N   1      21.560  -7.444   0.419  0.00  0.00     0.133 C 
BRANCH  20  21
HETATM   21  C   UNK N   1      22.462  -6.893  -0.668  0.00  0.00     0.102 C 
BRANCH  21  22
HETATM   22  S   UNK N   1      23.750  -5.877   0.109  0.00  0.00    -0.091 SA
BRANCH  22  23
HETATM   23  C   UNK N   1      24.947  -7.204   0.067  0.00  0.00     0.186 C 
HETATM   24  O   UNK N   1      24.787  -8.187   0.776  0.00  0.00    -0.286 OA
BRANCH  23  25
HETATM   25  C   UNK N   1      26.139  -7.083  -0.840  0.00  0.00     0.091 C 
BRANCH  25  26
HETATM   26  C   UNK N   1      27.061  -8.296  -0.813  0.00  0.00     0.008 C 
BRANCH  26  27
HETATM   27  C   UNK N   1      27.810  -8.376   0.507  0.00  0.00     0.000 C 
BRANCH  27  28
HETATM   28  C   UNK N   1      29.305  -8.480   0.271  0.00  0.00     0.000 C 
BRANCH  28  29
HETATM   29  C   UNK N   1      29.854  -7.128  -0.137  0.00  0.00    -0.000 C 
BRANCH  29  30
HETATM   30  C   UNK N   1      31.356  -7.110   0.032  0.00  0.00    -0.005 C 
HETATM   31  C   UNK N   1      31.850  -5.688  -0.115  0.00  0.00     0.005 C 
ENDBRANCH  29  30
ENDBRANCH  28  29
ENDBRANCH  27  28
ENDBRANCH  26  27
ENDBRANCH  25  26
ENDBRANCH  23  25
ENDBRANCH  22  23
ENDBRANCH  21  22
ENDBRANCH  20  21
ENDBRANCH  17  20
ENDBRANCH  15  16
ENDBRANCH  14  15
ENDBRANCH  11  14
ENDBRANCH   9  10
BRANCH   9  32
HETATM   32  O   UNK N   1      17.661  -0.838   0.601  0.00  0.00    -0.385 OA
HETATM   33  H   UNK N   1      17.574  -0.099   1.224  0.00  0.00     0.210 HD
ENDBRANCH   9  32
ENDBRANCH   6   9
ENDBRANCH   5   6
ENDBRANCH   4   5
ENDBRANCH   2   4
BRANCH   2  34
HETATM   34  O   UNK N   1      23.884  -2.246  -1.286  0.00  0.00    -0.307 OA
HETATM   35  H   UNK N   1      23.296  -2.934  -1.636  0.00  0.00     0.222 HD
ENDBRANCH   2  34
ENDBRANCH   1   2
BRANCH   1  36
HETATM   36  P   UNK N   1      25.297   0.610   0.848  0.00  0.00     0.401 P 
HETATM   37  O   UNK N   1      24.700   1.798   0.042  0.00  0.00    -0.631 OA
BRANCH  36  38
HETATM   38  O   UNK N   1      26.992   0.929   1.045  0.00  0.00    -0.294 OA
BRANCH  38  39
HETATM   39  C   UNK N   1      27.555   0.900  -0.231  0.00  0.00     0.215 C 
BRANCH  39  40
HETATM   40  C   UNK N   1      28.810   0.059  -0.160  0.00  0.00     0.180 C 
HETATM   41  O   UNK N   1      29.698   0.337  -1.207  0.00  0.00    -0.353 OA
HETATM   42  C   UNK N   1      30.565  -0.781  -1.224  0.00  0.00     0.262 C 
HETATM   43  C   UNK N   1      29.922  -1.893  -0.408  0.00  0.00     0.199 C 
HETATM   44  C   UNK N   1      28.518  -1.411  -0.243  0.00  0.00     0.197 C 
BRANCH  42  45
HETATM   45  N   UNK N   1      31.871  -0.432  -0.659  0.00  0.00    -0.297 N 
HETATM   46  C   UNK N   1      32.905  -1.247  -0.419  0.00  0.00     0.142 A 
HETATM   47  C   UNK N   1      33.922  -0.539   0.107  0.00  0.00     0.122 A 
HETATM   48  N   UNK N   1      32.981  -2.583  -0.632  0.00  0.00    -0.336 N 
HETATM   49  C   UNK N   1      35.106  -1.170   0.448  0.00  0.00     0.131 A 
HETATM   50  N   UNK N   1      33.568   0.756   0.216  0.00  0.00    -0.346 N 
HETATM   51  N   UNK N   1      35.196  -2.518   0.241  0.00  0.00    -0.337 N 
HETATM   52  C   UNK N   1      34.144  -3.222  -0.293  0.00  0.00     0.183 A 
ATOM     53  HN  UNK N   1      36.056  -3.008   0.486  1.00  0.00     0.168 HD
HETATM   54  C   UNK N   1      32.293   0.798  -0.261  0.00  0.00     0.188 A 
ATOM     55  HN  UNK N   1      34.128   1.529   0.575  1.00  0.00     0.167 HD
ATOM     56  HN  UNK N   1      32.196  -3.097  -1.032  1.00  0.00     0.168 HD
BRANCH  49  57
HETATM   57  N   UNK N   1      36.189  -0.453   0.995  0.00  0.00    -0.383 N 
HETATM   58  H   UNK N   1      37.001  -0.857   1.377  0.00  0.00     0.157 HD
HETATM   59  H   UNK N   1      36.129   0.530   0.995  0.00  0.00     0.157 HD
ENDBRANCH  49  57
ENDBRANCH  42  45
BRANCH  43  60
HETATM   60  O   UNK N   1      29.955  -3.092  -1.120  0.00  0.00    -0.388 OA
HETATM   61  H   UNK N   1      29.244  -3.528  -1.616  0.00  0.00     0.210 HD
ENDBRANCH  43  60
BRANCH  44  62
HETATM   62  O   UNK N   1      27.940  -1.875   0.948  0.00  0.00    -0.286 OA
BRANCH  62  63
HETATM   63  P   UNK N   1      27.310  -3.478   0.647  0.00  0.00     0.391 P 
HETATM   64  O   UNK N   1      26.838  -3.583  -0.831  0.00  0.00    -0.632 OA
BRANCH  63  65
HETATM   65  O   UNK N   1      25.931  -3.811   1.644  0.00  0.00    -0.307 OA
HETATM   66  H   UNK N   1      25.384  -3.236   2.201  0.00  0.00     0.222 HD
ENDBRANCH  63  65
BRANCH  63  67
HETATM   67  O   UNK N   1      28.539  -4.676   0.894  0.00  0.00    -0.307 OA
HETATM   68  H   UNK N   1      28.302  -5.606   1.033  0.00  0.00     0.222 HD
ENDBRANCH  63  67
ENDBRANCH  62  63
ENDBRANCH  44  62
ENDBRANCH  39  40
ENDBRANCH  38  39
ENDBRANCH  36  38
BRANCH  36  69
HETATM   69  O   UNK N   1      24.544   0.652   2.411  0.00  0.00    -0.307 OA
HETATM   70  H   UNK N   1      24.353   1.028   3.285  0.00  0.00     0.222 HD
ENDBRANCH  36  69
ENDBRANCH   1  36
TORSDOF 33
