REMARK  14 active torsions:
REMARK  status: ('A' for Active; 'I' for Inactive)
REMARK    1  A    between atoms: C_2  and  C_1 
REMARK    2  A    between atoms: C_3  and  C_1 
REMARK    3  A    between atoms: C_4  and  C_2 
REMARK    4  A    between atoms: C_6  and  C_3 
REMARK    5  A    between atoms: C_11  and  C_4 
REMARK    6  A    between atoms: C_5  and  C_7 
REMARK    7  A    between atoms: N_19  and  C_6 
REMARK    8  A    between atoms: N_20  and  C_7 
REMARK    9  A    between atoms: C_12  and  C_8 
REMARK   10  A    between atoms: S_32  and  C_8 
REMARK   11  A    between atoms: S_32  and  C_11 
REMARK   12  A    between atoms: C_14  and  O_29 
REMARK   13  A    between atoms: N_21  and  C_16 
REMARK   14  A    between atoms: C_18  and  N_28 
ROOT
HETATM    1  C   UNK N   1      -4.218   5.937   0.151  0.00  0.00     0.165 C 
HETATM    2  C   UNK N   1      -4.155   7.431   0.464  0.00  0.00     0.180 C 
HETATM    3  C   UNK N   1      -5.549   7.838   0.054  0.00  0.00     0.198 C 
HETATM    4  C   UNK N   1      -6.300   6.678   0.705  0.00  0.00     0.262 C 
HETATM    5  O   UNK N   1      -5.687   7.793  -1.339  0.00  0.00    -0.388 OA
HETATM    6  O   UNK N   1      -5.517   5.512   0.507  0.00  0.00    -0.355 OA
HETATM    7  H   UNK N   1      -5.762   7.860  -2.304  0.00  0.00     0.210 HD
ENDROOT
BRANCH   2   8
HETATM    8  O   UNK N   1      -3.157   8.104  -0.247  0.00  0.00    -0.390 OA
HETATM    9  H   UNK N   1      -2.407   7.738  -0.740  0.00  0.00     0.210 HD
ENDBRANCH   2   8
BRANCH   4  10
HETATM   10  N   UNK N   1      -7.652   6.456   0.185  0.00  0.00    -0.297 N 
HETATM   11  C   UNK N   1      -8.131   5.262  -0.257  0.00  0.00     0.188 A 
HETATM   12  N   UNK N   1      -9.436   5.352  -0.630  0.00  0.00    -0.346 N 
HETATM   13  C   UNK N   1      -9.752   6.639  -0.414  0.00  0.00     0.122 A 
ATOM     14  HN  UNK N   1     -10.037   4.611  -0.991  1.00  0.00     0.167 HD
HETATM   15  C   UNK N   1     -10.950   7.298  -0.621  0.00  0.00     0.131 A 
HETATM   16  C   UNK N   1      -8.685   7.304   0.075  0.00  0.00     0.142 A 
HETATM   17  N   UNK N   1     -11.004   8.631  -0.329  0.00  0.00    -0.337 N 
HETATM   18  C   UNK N   1      -9.902   9.293   0.162  0.00  0.00     0.183 A 
ATOM     19  HN  UNK N   1     -11.873   9.143  -0.478  1.00  0.00     0.168 HD
HETATM   20  N   UNK N   1      -8.724   8.623   0.375  0.00  0.00    -0.336 N 
ATOM     21  HN  UNK N   1      -7.905   9.104   0.747  1.00  0.00     0.168 HD
BRANCH  15  22
HETATM   22  N   UNK N   1     -12.082   6.619  -1.117  0.00  0.00    -0.383 N 
HETATM   23  H   UNK N   1     -12.887   7.067  -1.463  0.00  0.00     0.157 HD
HETATM   24  H   UNK N   1     -12.065   5.635  -1.117  0.00  0.00     0.157 HD
ENDBRANCH  15  22
ENDBRANCH   4  10
BRANCH   1  25
HETATM   25  C   UNK N   1      -3.234   5.062   0.926  0.00  0.00     0.114 C 
BRANCH  25  26
HETATM   26  S   UNK N   1      -1.525   5.667   1.037  0.00  0.00    -0.132 SA
BRANCH  26  27
HETATM   27  C   UNK N   1      -0.980   5.018  -0.554  0.00  0.00    -0.024 C 
HETATM   28  C   UNK N   1      -0.881   3.703  -0.795  0.00  0.00     0.006 C 
BRANCH  27  29
HETATM   29  C   UNK N   1      -0.621   5.985  -1.638  0.00  0.00     0.045 C 
BRANCH  29  30
HETATM   30  C   UNK N   1       0.750   6.631  -1.426  0.00  0.00     0.005 C 
BRANCH  30  31
HETATM   31  C   UNK N   1       0.845   7.499  -0.173  0.00  0.00     0.002 C 
BRANCH  31  32
HETATM   32  C   UNK N   1       1.478   6.741   0.992  0.00  0.00     0.019 C 
BRANCH  32  33
HETATM   33  C   UNK N   1       2.954   6.464   0.761  0.00  0.00     0.111 C 
BRANCH  33  34
HETATM   34  N   UNK N   1       3.117   5.298  -0.090  0.00  0.00    -0.430 N 
HETATM   35  H   UNK N   1       2.465   4.789  -0.687  0.00  0.00     0.149 HD
HETATM   36  H   UNK N   1       4.063   4.915  -0.090  0.00  0.00     0.149 HD
ENDBRANCH  33  34
ENDBRANCH  32  33
ENDBRANCH  31  32
ENDBRANCH  30  31
ENDBRANCH  29  30
ENDBRANCH  27  29
BRANCH  28  37
HETATM   37  C   UNK N   1      -1.199   2.668   0.237  0.00  0.00     0.139 C 
BRANCH  37  38
HETATM   38  N   UNK N   1      -2.372   1.918  -0.174  0.00  0.00    -0.427 N 
HETATM   39  H   UNK N   1      -3.241   2.368  -0.463  0.00  0.00     0.150 HD
HETATM   40  H   UNK N   1      -2.326   0.899  -0.174  0.00  0.00     0.150 HD
ENDBRANCH  37  38
ENDBRANCH  28  37
ENDBRANCH  26  27
ENDBRANCH  25  26
ENDBRANCH   1  25
TORSDOF 14
