REMARK  9 active torsions:
REMARK  status: ('A' for Active; 'I' for Inactive)
REMARK    1  A    between atoms: C_2  and  C_1 
REMARK    2  A    between atoms: C_5  and  C_1 
REMARK    3  A    between atoms: O_15  and  C_2 
REMARK    4  A    between atoms: C_6  and  C_3 
REMARK    5  A    between atoms: O_11  and  C_3 
REMARK    6  A    between atoms: C_7  and  O_12 
REMARK    7  A    between atoms: C_8  and  O_13 
REMARK    8  A    between atoms: C_9  and  O_14 
REMARK    9  A    between atoms: C_10  and  O_15 
ROOT
HETATM    1  C   UNK N   1       0.314   8.768   0.160  0.00  0.00     0.179 C 
HETATM    2  C   UNK N   1      -0.941   8.187  -0.539  0.00  0.00     0.180 C 
HETATM    3  C   UNK N   1      -1.070   6.689  -0.219  0.00  0.00     0.183 C 
HETATM    4  C   UNK N   1       0.248   5.980  -0.567  0.00  0.00     0.204 C 
HETATM    5  C   UNK N   1       1.423   6.718   0.147  0.00  0.00     0.291 C 
HETATM    6  O   UNK N   1       1.471   8.071  -0.272  0.00  0.00    -0.348 OA
ENDROOT
BRANCH   5   7
HETATM    7  O   UNK N   1       2.714   6.151  -0.002  0.00  0.00    -0.358 OA
BRANCH   7   8
HETATM    8  C   UNK N   1       2.899   5.578  -1.271  0.00  0.00     0.173 C 
BRANCH   8   9
HETATM    9  C   UNK N   1       3.790   4.340  -1.169  0.00  0.00     0.060 C 
BRANCH   9  10
HETATM   10  C   UNK N   1       3.585   3.578   0.136  0.00  0.00     0.147 A 
HETATM   11  C   UNK N   1       3.596   2.108   0.010  0.00  0.00     0.200 A 
HETATM   12  O   UNK N   1       2.393   2.835   0.120  0.00  0.00    -0.381 OA
ENDBRANCH   9  10
ENDBRANCH   8   9
ENDBRANCH   7   8
ENDBRANCH   5   7
BRANCH   4  13
HETATM   13  O   UNK N   1       0.185   4.642  -0.171  0.00  0.00    -0.388 OA
HETATM   14  H   UNK N   1      -0.642   4.216   0.104  0.00  0.00     0.210 HD
ENDBRANCH   4  13
BRANCH   3  15
HETATM   15  O   UNK N   1      -1.355   6.517   1.141  0.00  0.00    -0.390 OA
HETATM   16  H   UNK N   1      -1.557   6.628   2.083  0.00  0.00     0.210 HD
ENDBRANCH   3  15
BRANCH   1  17
HETATM   17  C   UNK N   1       0.516  10.240  -0.191  0.00  0.00     0.198 C 
BRANCH  17  18
HETATM   18  O   UNK N   1      -0.490  11.033   0.364  0.00  0.00    -0.398 OA
HETATM   19  H   UNK N   1      -0.362  11.914   0.749  0.00  0.00     0.209 HD
ENDBRANCH  17  18
ENDBRANCH   1  17
BRANCH   2  20
HETATM   20  O   UNK N   1      -2.099   8.854  -0.127  0.00  0.00    -0.390 OA
HETATM   21  H   UNK N   1      -2.100   9.780   0.160  0.00  0.00     0.210 HD
ENDBRANCH   2  20
TORSDOF 9
