REMARK  5 active torsions:
REMARK  status: ('A' for Active; 'I' for Inactive)
REMARK    1  A    between atoms: C_2  and  N_1 
REMARK    2  A    between atoms: C_2  and  C_3 
REMARK    3  A    between atoms: C_2  and  C_11 
REMARK    4  A    between atoms: C_3  and  N_4 
REMARK    5  A    between atoms: C_11  and  O_12 
ROOT
HETATM    1  C   UNK N   1       2.209   0.546  -0.000  0.00  0.00     0.197 C 
ENDROOT
BRANCH   1   2
HETATM    2  C   UNK N   1       2.669   2.014   0.000  0.00  0.00     0.194 C 
BRANCH   2   3
HETATM    3  N   UNK N   1       1.757   3.138  -0.000  0.00  0.00    -0.416 N 
HETATM    4  H   UNK N   1       2.122   4.091  -0.000  0.00  0.00     0.150 HD
HETATM    5  H   UNK N   1       0.750   2.978  -0.000  0.00  0.00     0.150 HD
ENDBRANCH   2   3
BRANCH   2   6
HETATM    6  C   UNK N   1       4.126   2.349   0.000  0.00  0.00     0.164 C 
HETATM    7  O   UNK N   1       4.963   1.461  -0.000  0.00  0.00    -0.648 OA
BRANCH   6   8
HETATM    8  O   UNK N   1       4.518   3.637  -0.000  0.00  0.00    -0.775 OA
HETATM    9  H   UNK N   1       5.431   3.849  -0.000  0.00  0.00     0.167 HD
ENDBRANCH   6   8
ENDBRANCH   2   6
ENDBRANCH   1   2
BRANCH   1  10
HETATM   10  N   UNK N   1       0.785   0.176  -0.000  0.00  0.00    -0.194 N 
HETATM   11  O   UNK N   1       0.438  -1.076  -0.000  0.00  0.00    -0.174 OA
HETATM   12  C   UNK N   1      -0.870  -1.170   0.000  0.00  0.00     0.391 A 
HETATM   13  O   UNK N   1      -1.480  -2.222   0.000  0.00  0.00    -0.236 OA
HETATM   14  N   UNK N   1      -1.463   0.051   0.000  0.00  0.00    -0.251 N 
HETATM   15  C   UNK N   1      -0.390   0.880   0.000  0.00  0.00     0.351 A 
HETATM   16  H   UNK N   1      -2.422   0.275   0.000  0.00  0.00     0.176 HD
HETATM   17  O   UNK N   1      -0.495   2.089   0.000  0.00  0.00    -0.244 OA
ENDBRANCH   1  10
TORSDOF 5
