REMARK  5 active torsions:
REMARK  status: ('A' for Active; 'I' for Inactive)
REMARK    1  A    between atoms: C_7  and  C_2 
REMARK    2  A    between atoms: O_8  and  C_2 
REMARK    3  A    between atoms: C_3  and  O_9 
REMARK    4  A    between atoms: C_5  and  O_10 
REMARK    5  A    between atoms: C_6  and  O_11 
ROOT
HETATM    1  C   UNK N   1       1.326  -0.587   0.422  0.00  0.00     0.069 C 
HETATM    2  C   UNK N   1       2.462   0.091  -0.356  0.00  0.00     0.152 C 
HETATM    3  C   UNK N   1       0.022   0.218   0.477  0.00  0.00     0.164 A 
HETATM    4  C   UNK N   1       2.667   1.523   0.154  0.00  0.00     0.178 C 
HETATM    5  C   UNK N   1       1.425   2.393  -0.120  0.00  0.00     0.188 C 
HETATM    6  C   UNK N   1       0.107   1.709   0.304  0.00  0.00     0.137 A 
HETATM    7  O   UNK N   1      -0.253   0.818  -0.750  0.00  0.00    -0.364 OA
ENDROOT
BRANCH   6   8
HETATM    8  C   UNK N   1      -1.121   2.570   0.571  0.00  0.00     0.207 C 
BRANCH   8   9
HETATM    9  O   UNK N   1      -1.371   3.414  -0.513  0.00  0.00    -0.398 OA
HETATM   10  H   UNK N   1      -0.950   3.858  -1.266  0.00  0.00     0.209 HD
ENDBRANCH   8   9
ENDBRANCH   6   8
BRANCH   5  11
HETATM   11  O   UNK N   1       1.569   3.613   0.552  0.00  0.00    -0.390 OA
HETATM   12  H   UNK N   1       2.351   3.949   1.018  0.00  0.00     0.210 HD
ENDBRANCH   5  11
BRANCH   4  13
HETATM   13  O   UNK N   1       2.943   1.491   1.526  0.00  0.00    -0.390 OA
HETATM   14  H   UNK N   1       3.019   1.315   2.476  0.00  0.00     0.210 HD
ENDBRANCH   4  13
BRANCH   2  15
HETATM   15  O   UNK N   1       3.632  -0.647  -0.176  0.00  0.00    -0.393 OA
HETATM   16  H   UNK N   1       3.594  -1.609  -0.051  0.00  0.00     0.210 HD
ENDBRANCH   2  15
TORSDOF 5
