REMARK  2 active torsions:
REMARK  status: ('A' for Active; 'I' for Inactive)
REMARK    1  A    between atoms: C_3  and  C_4 
REMARK    2  A    between atoms: O_7  and  C_4 
ROOT
HETATM    1  C   UNK N   1       1.776   0.207  -0.000  0.00  0.00     0.111 A 
HETATM    2  C   UNK N   1      -0.406  -1.156  -0.000  0.00  0.00     0.189 A 
HETATM    3  C   UNK N   1       0.550   1.112  -0.000  0.00  0.00     0.185 A 
HETATM    4  N   UNK N   1      -0.654   0.277   0.000  0.00  0.00    -0.400 N 
HETATM    5  S   UNK N   1       1.349  -1.543  -0.000  0.00  0.00    -0.147 SA
HETATM    6  H   UNK N   1      -1.595   0.672   0.000  0.00  0.00     0.154 HD
ENDROOT
BRANCH   3   7
HETATM    7  C   UNK N   1       0.223   2.592  -0.000  0.00  0.00     0.163 C 
HETATM    8  O   UNK N   1      -0.947   2.948  -0.000  0.00  0.00    -0.648 OA
BRANCH   7   9
HETATM    9  O   UNK N   1       1.193   3.532   0.000  0.00  0.00    -0.775 OA
HETATM   10  H   UNK N   1       2.094   3.275   0.000  0.00  0.00     0.167 HD
ENDBRANCH   7   9
ENDBRANCH   3   7
TORSDOF 2
