REMARK  22 active torsions:
REMARK  status: ('A' for Active; 'I' for Inactive)
REMARK    1  A    between atoms: C_3  and  C_2 
REMARK    2  A    between atoms: C_4  and  C_3 
REMARK    3  A    between atoms: C_5  and  C_4 
REMARK    4  A    between atoms: C_6  and  C_5 
REMARK    5  A    between atoms: C_7  and  C_6 
REMARK    6  A    between atoms: C_8  and  C_7 
REMARK    7  A    between atoms: C_9  and  C_8 
REMARK    8  A    between atoms: C_10  and  C_9 
REMARK    9  A    between atoms: C_11  and  C_10 
REMARK   10  A    between atoms: O_31  and  C_11 
REMARK   11  A    between atoms: C_14  and  C_12 
REMARK   12  A    between atoms: O_24  and  C_12 
REMARK   13  A    between atoms: C_15  and  C_13 
REMARK   14  A    between atoms: O_25  and  C_13 
REMARK   15  A    between atoms: C_16  and  O_26 
REMARK   16  A    between atoms: C_17  and  O_27 
REMARK   17  A    between atoms: C_18  and  O_28 
REMARK   18  A    between atoms: C_19  and  O_29 
REMARK   19  A    between atoms: C_20  and  O_30 
REMARK   20  A    between atoms: C_21  and  O_34 
REMARK   21  A    between atoms: C_22  and  O_31 
REMARK   22  A    between atoms: C_23  and  O_34 
ROOT
HETATM    1  C   UNK N   1       5.511   6.232   0.552  0.00  0.00     0.180 C 
HETATM    2  C   UNK N   1       6.256   8.600   0.750  0.00  0.00     0.183 C 
HETATM    3  C   UNK N   1       5.074   8.986  -0.146  0.00  0.00     0.204 C 
HETATM    4  C   UNK N   1       6.737   7.165   0.434  0.00  0.00     0.187 C 
HETATM    5  C   UNK N   1       3.971   7.922  -0.009  0.00  0.00     0.291 C 
HETATM    6  O   UNK N   1       4.485   6.635  -0.348  0.00  0.00    -0.348 OA
ENDROOT
BRANCH   4   7
HETATM    7  O   UNK N   1       7.247   7.044  -0.888  0.00  0.00    -0.348 OA
BRANCH   7   8
HETATM    8  C   UNK N   1       8.665   7.062  -1.033  0.00  0.00     0.292 C 
HETATM    9  C   UNK N   1       9.507   6.092  -0.119  0.00  0.00     0.204 C 
HETATM   10  C   UNK N   1      10.972   6.336  -0.489  0.00  0.00     0.183 C 
HETATM   11  C   UNK N   1      11.351   7.809  -0.205  0.00  0.00     0.180 C 
HETATM   12  C   UNK N   1      10.092   8.721  -0.141  0.00  0.00     0.179 C 
HETATM   13  O   UNK N   1       9.156   8.399  -1.149  0.00  0.00    -0.348 OA
BRANCH   9  14
HETATM   14  O   UNK N   1       9.147   4.764  -0.363  0.00  0.00    -0.388 OA
HETATM   15  H   UNK N   1       8.224   4.520  -0.532  0.00  0.00     0.210 HD
ENDBRANCH   9  14
BRANCH  10  16
HETATM   16  O   UNK N   1      11.831   5.471   0.195  0.00  0.00    -0.390 OA
HETATM   17  H   UNK N   1      11.609   4.655   0.669  0.00  0.00     0.210 HD
ENDBRANCH  10  16
BRANCH  11  18
HETATM   18  O   UNK N   1      12.250   8.239  -1.186  0.00  0.00    -0.390 OA
HETATM   19  H   UNK N   1      12.820   7.848  -1.866  0.00  0.00     0.210 HD
ENDBRANCH  11  18
BRANCH  12  20
HETATM   20  C   UNK N   1      10.443  10.203  -0.240  0.00  0.00     0.198 C 
BRANCH  20  21
HETATM   21  O   UNK N   1      11.253  10.593   0.828  0.00  0.00    -0.398 OA
HETATM   22  H   UNK N   1      11.769  10.242   1.570  0.00  0.00     0.209 HD
ENDBRANCH  20  21
ENDBRANCH  12  20
ENDBRANCH   7   8
ENDBRANCH   4   7
BRANCH   1  23
HETATM   23  C   UNK N   1       5.907   4.796   0.224  0.00  0.00     0.198 C 
BRANCH  23  24
HETATM   24  O   UNK N   1       4.797   3.954   0.313  0.00  0.00    -0.398 OA
HETATM   25  H   UNK N   1       3.905   4.330   0.375  0.00  0.00     0.209 HD
ENDBRANCH  23  24
ENDBRANCH   1  23
BRANCH   2  26
HETATM   26  O   UNK N   1       7.285   9.531   0.616  0.00  0.00    -0.390 OA
HETATM   27  H   UNK N   1       8.204   9.235   0.522  0.00  0.00     0.210 HD
ENDBRANCH   2  26
BRANCH   3  28
HETATM   28  O   UNK N   1       5.485   9.065  -1.481  0.00  0.00    -0.388 OA
HETATM   29  H   UNK N   1       5.675   8.846  -2.407  0.00  0.00     0.210 HD
ENDBRANCH   3  28
BRANCH   5  30
HETATM   30  O   UNK N   1       3.421   7.951   1.297  0.00  0.00    -0.359 OA
BRANCH  30  31
HETATM   31  C   UNK N   1       2.413   6.977   1.368  0.00  0.00     0.171 C 
BRANCH  31  32
HETATM   32  C   UNK N   1       1.047   7.624   1.284  0.00  0.00     0.026 C 
BRANCH  32  33
HETATM   33  C   UNK N   1       0.248   6.963   0.177  0.00  0.00     0.002 C 
BRANCH  33  34
HETATM   34  C   UNK N   1       0.358   7.777  -1.100  0.00  0.00     0.000 C 
BRANCH  34  35
HETATM   35  C   UNK N   1      -0.995   8.363  -1.478  0.00  0.00     0.000 C 
BRANCH  35  36
HETATM   36  C   UNK N   1      -1.300   9.634  -0.692  0.00  0.00     0.000 C 
BRANCH  36  37
HETATM   37  C   UNK N   1      -1.739   9.340   0.739  0.00  0.00     0.000 C 
BRANCH  37  38
HETATM   38  C   UNK N   1      -3.213   8.976   0.809  0.00  0.00     0.000 C 
BRANCH  38  39
HETATM   39  C   UNK N   1      -3.437   7.526   0.408  0.00  0.00    -0.000 C 
BRANCH  39  40
HETATM   40  C   UNK N   1      -4.451   7.441  -0.719  0.00  0.00    -0.005 C 
HETATM   41  C   UNK N   1      -5.849   7.730  -0.204  0.00  0.00     0.005 C 
ENDBRANCH  39  40
ENDBRANCH  38  39
ENDBRANCH  37  38
ENDBRANCH  36  37
ENDBRANCH  35  36
ENDBRANCH  34  35
ENDBRANCH  33  34
ENDBRANCH  32  33
ENDBRANCH  31  32
ENDBRANCH  30  31
ENDBRANCH   5  30
TORSDOF 22
