REMARK  1 active torsions:
REMARK  status: ('A' for Active; 'I' for Inactive)
REMARK    1  A    between atoms: C_2  and  O_4 
ROOT
HETATM    1  C   UNK N   1       3.077  -0.717   0.000  0.00  0.00     0.125 C 
HETATM    2  C   UNK N   1       1.593  -0.591  -0.000  0.00  0.00     0.135 C 
HETATM    3  O   UNK N   1       0.896  -1.591  -0.000  0.00  0.00    -0.650 OA
ENDROOT
BRANCH   2   4
HETATM    4  O   UNK N   1       1.026   0.631   0.000  0.00  0.00    -0.777 OA
HETATM    5 Hg   UNK N   1      -0.924   0.864  -0.000  0.00  0.00     0.167 Hg
ENDBRANCH   2   4
TORSDOF 1
