REMARK  11 active torsions:
REMARK  status: ('A' for Active; 'I' for Inactive)
REMARK    1  A    between atoms: C_2  and  O_1 
REMARK    2  A    between atoms: C_4  and  O_7 
REMARK    3  A    between atoms: C_5  and  C_8 
REMARK    4  A    between atoms: C_6  and  O_9 
REMARK    5  A    between atoms: C_8  and  S_10 
REMARK    6  A    between atoms: S_10  and  C_11 
REMARK    7  A    between atoms: C_11  and  C_12 
REMARK    8  A    between atoms: C_12  and  C_13 
REMARK    9  A    between atoms: C_13  and  C_14 
REMARK   10  A    between atoms: C_13  and  N_15 
REMARK   11  A    between atoms: C_14  and  O_16 
ROOT
HETATM    1  C   UNK N   1      16.313 -10.606   0.225  0.00  0.00     0.108 C 
ENDROOT
BRANCH   1   2
HETATM    2  C   UNK N   1      17.613 -11.265  -0.193  0.00  0.00     0.165 C 
HETATM    3  O   UNK N   1      18.719 -10.500   0.229  0.00  0.00    -0.350 OA
HETATM    4  C   UNK N   1      19.683 -11.437   0.659  0.00  0.00     0.288 C 
HETATM    5  C   UNK N   1      19.206 -12.808   0.250  0.00  0.00     0.204 C 
HETATM    6  C   UNK N   1      17.750 -12.627   0.441  0.00  0.00     0.181 C 
BRANCH   4   7
HETATM    7  O   UNK N   1      20.915 -11.171   0.061  0.00  0.00    -0.369 OA
HETATM    8  H   UNK N   1      21.503 -11.821  -0.355  0.00  0.00     0.212 HD
ENDBRANCH   4   7
BRANCH   5   9
HETATM    9  O   UNK N   1      19.714 -13.800   1.087  0.00  0.00    -0.388 OA
HETATM   10  H   UNK N   1      19.293 -14.452   1.669  0.00  0.00     0.210 HD
ENDBRANCH   5   9
BRANCH   6  11
HETATM   11  O   UNK N   1      17.030 -13.599  -0.253  0.00  0.00    -0.390 OA
HETATM   12  H   UNK N   1      16.193 -13.504  -0.735  0.00  0.00     0.210 HD
ENDBRANCH   6  11
ENDBRANCH   1   2
BRANCH   1  13
HETATM   13  S   UNK N   1      15.236 -10.398  -1.225  0.00  0.00    -0.166 SA
BRANCH  13  14
HETATM   14  C   UNK N   1      14.643 -12.116  -1.154  0.00  0.00     0.076 C 
BRANCH  14  15
HETATM   15  C   UNK N   1      13.629 -12.311  -0.042  0.00  0.00     0.045 C 
BRANCH  15  16
HETATM   16  C   UNK N   1      12.302 -11.679  -0.417  0.00  0.00     0.174 C 
BRANCH  16  17
HETATM   17  C   UNK N   1      11.178 -12.600  -0.052  0.00  0.00     0.163 C 
HETATM   18  O   UNK N   1      11.123 -13.714  -0.549  0.00  0.00    -0.648 OA
BRANCH  17  19
HETATM   19  O   UNK N   1      10.217 -12.207   0.807  0.00  0.00    -0.775 OA
HETATM   20  H   UNK N   1      10.120 -11.492   1.405  0.00  0.00     0.167 HD
ENDBRANCH  17  19
ENDBRANCH  16  17
BRANCH  16  21
HETATM   21  N   UNK N   1      12.169 -10.395   0.254  0.00  0.00    -0.418 N 
HETATM   22  H   UNK N   1      12.901  -9.864   0.725  0.00  0.00     0.150 HD
HETATM   23  H   UNK N   1      11.237  -9.980   0.254  0.00  0.00     0.150 HD
ENDBRANCH  16  21
ENDBRANCH  15  16
ENDBRANCH  14  15
ENDBRANCH  13  14
ENDBRANCH   1  13
TORSDOF 11
