REMARK  6 active torsions:
REMARK  status: ('A' for Active; 'I' for Inactive)
REMARK    1  A    between atoms: C_2  and  C_3 
REMARK    2  A    between atoms: C_3  and  C_4 
REMARK    3  A    between atoms: C_4  and  C_5 
REMARK    4  A    between atoms: C_5  and  C_6 
REMARK    5  A    between atoms: C_6  and  C_7 
REMARK    6  A    between atoms: C_7  and  O_8 
ROOT
HETATM    1  C   UNK N   1       3.847   1.391   0.000  0.00  0.00     0.010 C 
ENDROOT
BRANCH   1   2
HETATM    2  C   UNK N   1       2.598   2.242   0.000  0.00  0.00     0.001 C 
BRANCH   2   3
HETATM    3  C   UNK N   1       1.419   1.293  -0.000  0.00  0.00    -0.000 C 
BRANCH   3   4
HETATM    4  C   UNK N   1       0.110   2.050  -0.000  0.00  0.00    -0.005 C 
HETATM    5  C   UNK N   1      -1.025   1.048  -0.000  0.00  0.00     0.005 C 
ENDBRANCH   3   4
ENDBRANCH   2   3
ENDBRANCH   1   2
BRANCH   1   6
HETATM    6  C   UNK N   1       5.109   2.236   0.000  0.00  0.00     0.110 C 
BRANCH   6   7
HETATM    7  C   UNK N   1       6.343   1.378  -0.000  0.00  0.00     0.139 C 
HETATM    8  O   UNK N   1       6.261   0.158   0.000  0.00  0.00    -0.650 OA
BRANCH   7   9
HETATM    9  O   UNK N   1       7.556   1.960  -0.000  0.00  0.00    -0.776 OA
HETATM   10  H   UNK N   1       8.329   1.431  -0.000  0.00  0.00     0.167 HD
ENDBRANCH   7   9
ENDBRANCH   6   7
ENDBRANCH   1   6
TORSDOF 6
