REMARK  17 active torsions:
REMARK  status: ('A' for Active; 'I' for Inactive)
REMARK    1  A    between atoms: N_1  and  C_2 
REMARK    2  A    between atoms: C_8  and  N_7 
REMARK    3  A    between atoms: C_10  and  C_11 
REMARK    4  A    between atoms: C_11  and  O_12 
REMARK    5  A    between atoms: P_13  and  O_12 
REMARK    6  A    between atoms: P_13  and  O_14 
REMARK    7  A    between atoms: P_13  and  O_16 
REMARK    8  A    between atoms: P_17  and  O_16 
REMARK    9  A    between atoms: P_17  and  O_18 
REMARK   10  A    between atoms: P_17  and  O_20 
REMARK   11  A    between atoms: O_20  and  C_21 
REMARK   12  A    between atoms: C_22  and  C_21 
REMARK   13  A    between atoms: C_24  and  O_25 
REMARK   14  A    between atoms: C_26  and  O_27 
REMARK   15  A    between atoms: C_28  and  O_29 
REMARK   16  A    between atoms: C_30  and  O_31 
REMARK   17  A    between atoms: C_32  and  O_33 
ROOT
HETATM    1  C   UNK N   1      -4.391   2.268  -1.438  0.00  0.00     0.262 C 
HETATM    2  O   UNK N   1      -3.528   3.288  -0.992  0.00  0.00    -0.353 OA
HETATM    3  C   UNK N   1      -2.713   2.714   0.008  0.00  0.00     0.180 C 
HETATM    4  C   UNK N   1      -3.244   1.343   0.355  0.00  0.00     0.182 C 
HETATM    5  C   UNK N   1      -3.719   0.975  -1.003  0.00  0.00     0.198 C 
ENDROOT
BRANCH   3   6
HETATM    6  C   UNK N   1      -2.609   3.656   1.196  0.00  0.00     0.215 C 
BRANCH   6   7
HETATM    7  O   UNK N   1      -1.289   4.102   1.347  0.00  0.00    -0.294 OA
BRANCH   7   8
HETATM    8  P   UNK N   1      -0.985   5.315   0.116  0.00  0.00     0.401 P 
HETATM    9  O   UNK N   1      -2.007   6.468   0.309  0.00  0.00    -0.631 OA
BRANCH   8  10
HETATM   10  O   UNK N   1      -1.180   4.709  -1.500  0.00  0.00    -0.307 OA
HETATM   11  H   UNK N   1      -1.527   4.634  -2.402  0.00  0.00     0.222 HD
ENDBRANCH   8  10
BRANCH   8  12
HETATM   12  O   UNK N   1       0.594   6.021   0.283  0.00  0.00    -0.195 OA
BRANCH  12  13
HETATM   13  P   UNK N   1       1.672   4.708   0.667  0.00  0.00     0.401 P 
HETATM   14  O   UNK N   1       3.111   5.287   0.620  0.00  0.00    -0.631 OA
BRANCH  13  15
HETATM   15  O   UNK N   1       1.439   4.186   2.305  0.00  0.00    -0.307 OA
HETATM   16  H   UNK N   1       1.121   4.152   3.221  0.00  0.00     0.222 HD
ENDBRANCH  13  15
BRANCH  13  17
HETATM   17  O   UNK N   1       1.556   3.342  -0.422  0.00  0.00    -0.294 OA
BRANCH  17  18
HETATM   18  C   UNK N   1       2.484   3.513  -1.459  0.00  0.00     0.215 C 
BRANCH  18  19
HETATM   19  C   UNK N   1       3.763   2.693  -1.235  0.00  0.00     0.180 C 
HETATM   20  O   UNK N   1       4.725   3.416  -0.498  0.00  0.00    -0.349 OA
HETATM   21  C   UNK N   1       5.311   2.487   0.388  0.00  0.00     0.288 C 
HETATM   22  C   UNK N   1       4.908   1.106  -0.062  0.00  0.00     0.204 C 
HETATM   23  C   UNK N   1       3.523   1.383  -0.516  0.00  0.00     0.182 C 
BRANCH  21  24
HETATM   24  O   UNK N   1       6.700   2.605   0.360  0.00  0.00    -0.369 OA
HETATM   25  H   UNK N   1       7.254   1.809   0.341  0.00  0.00     0.212 HD
ENDBRANCH  21  24
BRANCH  22  26
HETATM   26  O   UNK N   1       4.927   0.204   1.002  0.00  0.00    -0.388 OA
HETATM   27  H   UNK N   1       4.391  -0.121   1.742  0.00  0.00     0.210 HD
ENDBRANCH  22  26
BRANCH  23  28
HETATM   28  O   UNK N   1       3.066   0.395  -1.388  0.00  0.00    -0.390 OA
HETATM   29  H   UNK N   1       2.312   0.326  -1.993  0.00  0.00     0.210 HD
ENDBRANCH  23  28
ENDBRANCH  18  19
ENDBRANCH  17  18
ENDBRANCH  13  17
ENDBRANCH  12  13
ENDBRANCH   8  12
ENDBRANCH   7   8
ENDBRANCH   6   7
ENDBRANCH   3   6
BRANCH   4  30
HETATM   30  O   UNK N   1      -2.202   0.507   0.760  0.00  0.00    -0.390 OA
HETATM   31  H   UNK N   1      -2.343  -0.410   1.042  0.00  0.00     0.210 HD
ENDBRANCH   4  30
BRANCH   1  32
HETATM   32  N   UNK N   1      -5.756   2.561  -0.953  0.00  0.00    -0.297 N 
HETATM   33  C   UNK N   1      -6.340   3.777  -1.142  0.00  0.00     0.188 A 
HETATM   34  N   UNK N   1      -7.604   3.818  -0.644  0.00  0.00    -0.346 N 
HETATM   35  C   UNK N   1      -7.805   2.588  -0.146  0.00  0.00     0.122 A 
ATOM     36  HN  UNK N   1      -8.253   4.605  -0.647  1.00  0.00     0.167 HD
HETATM   37  C   UNK N   1      -8.936   2.055   0.450  0.00  0.00     0.131 A 
HETATM   38  C   UNK N   1      -6.699   1.833  -0.319  0.00  0.00     0.142 A 
HETATM   39  N   UNK N   1      -8.894   0.751   0.850  0.00  0.00    -0.337 N 
HETATM   40  C   UNK N   1      -7.761  -0.004   0.670  0.00  0.00     0.183 A 
ATOM     41  HN  UNK N   1      -9.715   0.331   1.287  1.00  0.00     0.168 HD
HETATM   42  N   UNK N   1      -6.651   0.540   0.081  0.00  0.00    -0.336 N 
ATOM     43  HN  UNK N   1      -5.807  -0.017  -0.053  1.00  0.00     0.168 HD
BRANCH  37  44
HETATM   44  N   UNK N   1     -10.104   2.824   0.625  0.00  0.00    -0.383 N 
HETATM   45  H   UNK N   1     -10.048   3.799   0.748  0.00  0.00     0.157 HD
HETATM   46  H   UNK N   1     -10.984   2.382   0.625  0.00  0.00     0.157 HD
ENDBRANCH  37  44
ENDBRANCH   1  32
BRANCH   5  47
HETATM   47  O   UNK N   1      -4.488  -0.183  -1.068  0.00  0.00    -0.388 OA
HETATM   48  H   UNK N   1      -5.455  -0.122  -1.113  0.00  0.00     0.210 HD
ENDBRANCH   5  47
TORSDOF 17
