REMARK  0 active torsions:
REMARK  status: ('A' for Active; 'I' for Inactive)
ROOT
HETATM    1  O   UNK N   1       0.671   2.891   0.000  0.00  0.00    -0.298 OA
HETATM    2  C   UNK N   1       0.660   1.671  -0.000  0.00  0.00     0.127 A 
HETATM    3  C   UNK N   1       1.972   0.957  -0.000  0.00  0.00     0.078 A 
HETATM    4  C   UNK N   1       1.963  -0.565  -0.000  0.00  0.00     0.007 A 
HETATM    5  C   UNK N   1       0.635  -1.314   0.000  0.00  0.00     0.001 A 
HETATM    6  C   UNK N   1      -0.680  -0.542  -0.000  0.00  0.00     0.007 A 
HETATM    7  C   UNK N   1      -0.664   0.980   0.000  0.00  0.00     0.078 A 
ENDROOT
TORSDOF 0
