REMARK  8 active torsions:
REMARK  status: ('A' for Active; 'I' for Inactive)
REMARK    1  A    between atoms: C_10  and  C_5 
REMARK    2  A    between atoms: O_22  and  C_5 
REMARK    3  A    between atoms: C_11  and  O_17 
REMARK    4  A    between atoms: C_12  and  O_18 
REMARK    5  A    between atoms: C_13  and  N_16 
REMARK    6  A    between atoms: P_24  and  O_19 
REMARK    7  A    between atoms: P_24  and  O_20 
REMARK    8  A    between atoms: P_24  and  O_22 
ROOT
HETATM    1  C   UNK N   1       0.897   3.896  -0.265  0.00  0.00     0.180 C 
HETATM    2  C   UNK N   1      -0.555   3.557   0.081  0.00  0.00     0.182 C 
HETATM    3  C   UNK N   1      -0.591   2.028  -0.109  0.00  0.00     0.198 C 
HETATM    4  C   UNK N   1       0.877   1.719  -0.458  0.00  0.00     0.261 C 
HETATM    5  O   UNK N   1       1.629   2.758   0.123  0.00  0.00    -0.353 OA
ENDROOT
BRANCH   4   6
HETATM    6  N   UNK N   1       1.389   0.403  -0.052  0.00  0.00    -0.311 N 
HETATM    7  C   UNK N   1       0.725  -0.652   0.486  0.00  0.00     0.186 A 
HETATM    8  N   UNK N   1       1.562  -1.700   0.722  0.00  0.00    -0.350 N 
HETATM    9  C   UNK N   1       2.768  -1.266   0.317  0.00  0.00     0.060 A 
ATOM     10  HN  UNK N   1       1.327  -2.610   1.117  1.00  0.00     0.166 HD
HETATM   11  C   UNK N   1       3.984  -1.943   0.356  0.00  0.00     0.038 A 
HETATM   12  C   UNK N   1       2.666   0.003  -0.156  0.00  0.00     0.064 A 
HETATM   13  C   UNK N   1       5.124  -1.261  -0.115  0.00  0.00    -0.060 A 
HETATM   14  C   UNK N   1       6.451  -1.930  -0.089  0.00  0.00     0.048 C 
HETATM   15  C   UNK N   1       5.015   0.060  -0.609  0.00  0.00     0.009 A 
HETATM   16  C   UNK N   1       3.767   0.710  -0.634  0.00  0.00     0.033 A 
ENDBRANCH   4   6
BRANCH   3  17
HETATM   17  O   UNK N   1      -0.972   1.417   1.094  0.00  0.00    -0.388 OA
HETATM   18  H   UNK N   1      -1.469   1.434   1.926  0.00  0.00     0.210 HD
ENDBRANCH   3  17
BRANCH   2  19
HETATM   19  O   UNK N   1      -0.788   3.869   1.429  0.00  0.00    -0.390 OA
HETATM   20  H   UNK N   1      -0.681   4.116   2.361  0.00  0.00     0.210 HD
ENDBRANCH   2  19
BRANCH   1  21
HETATM   21  C   UNK N   1       1.401   5.157   0.434  0.00  0.00     0.215 C 
BRANCH  21  22
HETATM   22  O   UNK N   1       2.803   5.174   0.487  0.00  0.00    -0.294 OA
BRANCH  22  23
HETATM   23  P   UNK N   1       3.311   6.739  -0.087  0.00  0.00     0.390 P 
HETATM   24  O   UNK N   1       3.105   7.058   1.420  0.00  0.00    -0.632 OA
BRANCH  23  25
HETATM   25  O   UNK N   1       4.840   7.418   0.377  0.00  0.00    -0.307 OA
HETATM   26  H   UNK N   1       5.596   6.868   0.636  0.00  0.00     0.222 HD
ENDBRANCH  23  25
BRANCH  23  27
HETATM   27  O   UNK N   1       4.601   5.585  -0.232  0.00  0.00    -0.307 OA
HETATM   28  H   UNK N   1       4.403   4.639  -0.314  0.00  0.00     0.222 HD
ENDBRANCH  23  27
ENDBRANCH  22  23
ENDBRANCH  21  22
ENDBRANCH   1  21
TORSDOF 8
