REMARK  7 active torsions:
REMARK  status: ('A' for Active; 'I' for Inactive)
REMARK    1  A    between atoms: C_2  and  C_1 
REMARK    2  A    between atoms: O_10  and  C_1 
REMARK    3  A    between atoms: C_3  and  O_11 
REMARK    4  A    between atoms: C_4  and  O_12 
REMARK    5  A    between atoms: C_5  and  O_13 
REMARK    6  A    between atoms: C_6  and  C_7 
REMARK    7  A    between atoms: O_14  and  C_7 
ROOT
HETATM    1  C   UNK N   1       1.690   1.410  -0.565  0.00  0.00     0.177 C 
HETATM    2  C   UNK N   1       0.653   2.043   0.393  0.00  0.00     0.180 C 
HETATM    3  C   UNK N   1      -0.747   1.431   0.182  0.00  0.00     0.181 C 
HETATM    4  C   UNK N   1      -0.658  -0.044  -0.252  0.00  0.00     0.186 C 
HETATM    5  C   UNK N   1       0.678  -0.656   0.219  0.00  0.00     0.227 C 
HETATM    6  O   UNK N   1       1.774  -0.014  -0.440  0.00  0.00    -0.365 OA
ENDROOT
BRANCH   5   7
HETATM    7  C   UNK N   1       0.749  -2.136  -0.076  0.00  0.00     0.141 C 
HETATM    8  N   UNK N   1      -0.081  -2.945   0.475  0.00  0.00    -0.381 N 
HETATM    9  H   UNK N   1      -0.937  -2.704   0.898  0.00  0.00     0.158 HD
ATOM     10  HN  UNK N   1       0.170  -3.934   0.475  1.00  0.00     0.158 HD
BRANCH   7  11
HETATM   11  O   UNK N   1       1.709  -2.625  -0.884  0.00  0.00    -0.348 OA
HETATM   12  H   UNK N   1       1.749  -3.373  -1.447  0.00  0.00     0.219 HD
ENDBRANCH   7  11
ENDBRANCH   5   7
BRANCH   4  13
HETATM   13  O   UNK N   1      -1.773  -0.739   0.225  0.00  0.00    -0.390 OA
HETATM   14  H   UNK N   1      -2.578  -0.310   0.556  0.00  0.00     0.210 HD
ENDBRANCH   4  13
BRANCH   3  15
HETATM   15  O   UNK N   1      -1.484   2.137  -0.774  0.00  0.00    -0.390 OA
HETATM   16  H   UNK N   1      -1.315   2.825  -1.437  0.00  0.00     0.210 HD
ENDBRANCH   3  15
BRANCH   1  17
HETATM   17  C   UNK N   1       3.093   1.947  -0.274  0.00  0.00     0.198 C 
BRANCH  17  18
HETATM   18  O   UNK N   1       3.182   3.321  -0.503  0.00  0.00    -0.398 OA
HETATM   19  H   UNK N   1       4.039   3.745  -0.663  0.00  0.00     0.209 HD
ENDBRANCH  17  18
ENDBRANCH   1  17
BRANCH   2  20
HETATM   20  O   UNK N   1       0.597   3.436   0.286  0.00  0.00    -0.390 OA
HETATM   21  H   UNK N   1       1.415   3.953   0.213  0.00  0.00     0.210 HD
ENDBRANCH   2  20
TORSDOF 7
