REMARK  5 active torsions:
REMARK  status: ('A' for Active; 'I' for Inactive)
REMARK    1  A    between atoms: S_1  and  C_2 
REMARK    2  A    between atoms: C_3  and  C_4 
REMARK    3  A    between atoms: C_4  and  S_5 
REMARK    4  A    between atoms: S_5  and  C_7 
REMARK    5  A    between atoms: C_7  and  C_8 
ROOT
HETATM    1  C   UNK N   1       0.265   1.574   0.138  0.00  0.00     0.136 C 
ENDROOT
BRANCH   1   2
HETATM    2  C   UNK N   1      -1.014   0.869  -0.166  0.00  0.00    -0.008 C 
HETATM    3  C   UNK N   1      -2.170   1.351   0.271  0.00  0.00     0.038 C 
BRANCH   3   4
HETATM    4  S   UNK N   1      -3.689   0.477  -0.093  0.00  0.00    -0.155 SA
HETATM    5  H   UNK N   1      -4.841   1.144  -0.370  0.00  0.00     0.106 HD
ENDBRANCH   3   4
ENDBRANCH   1   2
BRANCH   1   6
HETATM    6  S   UNK N   1       1.633   0.700  -0.676  0.00  0.00     0.021 S 
HETATM    7  O   UNK N   1       1.674  -0.381   0.415  0.00  0.00    -0.258 OA
BRANCH   6   8
HETATM    8  C   UNK N   1       2.896   1.690   0.172  0.00  0.00     0.135 C 
BRANCH   8   9
HETATM    9  C   UNK N   1       4.248   1.226  -0.250  0.00  0.00    -0.024 C 
HETATM   10  C   UNK N   1       5.336   1.849   0.190  0.00  0.00     0.008 C 
ENDBRANCH   8   9
ENDBRANCH   6   8
ENDBRANCH   1   6
TORSDOF 5
