REMARK  0 active torsions:
REMARK  status: ('A' for Active; 'I' for Inactive)
ROOT
HETATM    1  I   UNK N   1       0.677   3.686  -0.000  0.00  0.00    -0.045 I 
HETATM    2  C   UNK N   1       0.688   1.586   0.000  0.00  0.00     0.006 A 
HETATM    3  C   UNK N   1       1.903   0.894  -0.000  0.00  0.00     0.018 A 
HETATM    4  C   UNK N   1       1.908  -0.504  -0.000  0.00  0.00     0.001 A 
HETATM    5  C   UNK N   1       0.700  -1.207   0.000  0.00  0.00     0.000 A 
HETATM    6  C   UNK N   1      -0.515  -0.514   0.000  0.00  0.00     0.001 A 
HETATM    7  C   UNK N   1      -0.520   0.884   0.000  0.00  0.00     0.018 A 
ENDROOT
TORSDOF 0
