REMARK  12 active torsions:
REMARK  status: ('A' for Active; 'I' for Inactive)
REMARK    1  A    between atoms: C_6  and  C_5 
REMARK    2  A    between atoms: C_12  and  C_5 
REMARK    3  A    between atoms: C_13  and  C_6 
REMARK    4  A    between atoms: C_11  and  C_7 
REMARK    5  A    between atoms: N_22  and  C_7 
REMARK    6  A    between atoms: C_16  and  C_9 
REMARK    7  A    between atoms: N_22  and  C_10 
REMARK    8  A    between atoms: C_18  and  C_12 
REMARK    9  A    between atoms: C_12  and  N_25 
REMARK   10  A    between atoms: O_30  and  C_13 
REMARK       I    between atoms: N_25  and  C_16 
REMARK   11  A    between atoms: O_32  and  C_17 
REMARK   12  A    between atoms: O_34  and  C_18 
REMARK       I    between atoms: N_20  and  C_19 
ROOT
HETATM    1  N   UNK N   1      -1.408  -1.519   1.158  0.00  0.00    -0.388 N 
HETATM    2  H   UNK N   1      -1.804  -0.665   1.447  0.00  0.00     0.159 HD
ENDROOT
BRANCH   1   3
HETATM    3  C   UNK N   1       0.015  -1.715   1.259  0.00  0.00     0.146 C 
BRANCH   3   4
HETATM    4  C   UNK N   1       0.592  -1.479  -0.127  0.00  0.00     0.117 C 
HETATM    5  C   UNK N   1       2.080  -1.848  -0.208  0.00  0.00     0.148 C 
HETATM    6  N   UNK N   1       2.956  -0.784   0.230  0.00  0.00    -0.372 N 
HETATM    7  C   UNK N   1       2.599   0.575   0.072  0.00  0.00     0.148 A 
HETATM    8  H   UNK N   1       3.819  -1.011   0.647  0.00  0.00     0.161 HD
HETATM    9  C   UNK N   1       1.296   0.912  -0.291  0.00  0.00     0.125 A 
HETATM   10  N   UNK N   1       3.521   1.551   0.266  0.00  0.00    -0.175 N 
HETATM   11  C   UNK N   1       0.964   2.261  -0.422  0.00  0.00     0.185 A 
HETATM   12  N   UNK N   1       0.334  -0.101  -0.496  0.00  0.00    -0.376 N 
HETATM   13  N   UNK N   1       1.916   3.209  -0.221  0.00  0.00    -0.168 N 
HETATM   14  C   UNK N   1       3.189   2.861   0.112  0.00  0.00     0.679 A 
ATOM     15  HN  UNK N   1       1.673   4.195  -0.321  1.00  0.00     0.186 HD
HETATM   16  N   UNK N   1       4.074   3.766   0.280  0.00  0.00    -0.234 N 
HETATM   17  H   UNK N   1       5.019   3.524   0.409  0.00  0.00     0.174 HD
ATOM     18  HN  UNK N   1       3.799   4.748   0.280  1.00  0.00     0.174 HD
HETATM   19  H   UNK N   1      -0.532   0.134  -0.900  0.00  0.00     0.160 HD
HETATM   20  H   UNK N   1       4.440   1.308   0.521  0.00  0.00     0.186 HD
BRANCH  11  21
HETATM   21  O   UNK N   1      -0.292   2.627  -0.732  0.00  0.00    -0.344 OA
HETATM   22  H   UNK N   1      -0.509   3.513  -0.948  0.00  0.00     0.219 HD
ENDBRANCH  11  21
ENDBRANCH   3   4
ENDBRANCH   1   3
BRANCH   1  23
HETATM   23  C   UNK N   1      -2.243  -2.537   0.649  0.00  0.00     0.028 A 
HETATM   24  C   UNK N   1      -1.871  -3.886   0.754  0.00  0.00     0.030 A 
HETATM   25  C   UNK N   1      -2.734  -4.884   0.309  0.00  0.00     0.019 A 
HETATM   26  C   UNK N   1      -3.950  -4.539  -0.292  0.00  0.00     0.032 A 
HETATM   27  C   UNK N   1      -4.291  -3.187  -0.445  0.00  0.00     0.019 A 
HETATM   28  C   UNK N   1      -3.444  -2.191   0.032  0.00  0.00     0.030 A 
BRANCH  26  29
HETATM   29  C   UNK N   1      -4.977  -5.559  -0.522  0.00  0.00     0.252 C 
HETATM   30  N   UNK N   1      -6.157  -5.174  -1.077  0.00  0.00    -0.343 N 
HETATM   31  H   UNK N   1      -6.124  -4.742  -1.961  0.00  0.00     0.163 HD
HETATM   32  O   UNK N   1      -4.846  -6.660  -0.012  0.00  0.00    -0.268 OA
BRANCH  30  33
HETATM   33  C   UNK N   1      -7.462  -5.351  -0.467  0.00  0.00     0.183 C 
BRANCH  33  34
HETATM   34  C   UNK N   1      -7.521  -4.357   0.706  0.00  0.00     0.046 C 
BRANCH  34  35
HETATM   35  C   UNK N   1      -8.929  -4.118   1.236  0.00  0.00     0.112 C 
BRANCH  35  36
HETATM   36  C   UNK N   1      -9.766  -3.378   0.242  0.00  0.00     0.139 C 
HETATM   37  O   UNK N   1     -10.654  -3.965  -0.352  0.00  0.00    -0.650 OA
BRANCH  36  38
HETATM   38  O   UNK N   1      -9.545  -2.072  -0.001  0.00  0.00    -0.776 OA
HETATM   39  H   UNK N   1      -8.681  -1.751  -0.170  0.00  0.00     0.167 HD
ENDBRANCH  36  38
ENDBRANCH  35  36
ENDBRANCH  34  35
ENDBRANCH  33  34
BRANCH  33  40
HETATM   40  C   UNK N   1      -7.833  -6.757  -0.029  0.00  0.00     0.163 C 
HETATM   41  O   UNK N   1      -7.108  -7.710  -0.255  0.00  0.00    -0.648 OA
BRANCH  40  42
HETATM   42  O   UNK N   1      -9.007  -6.963   0.597  0.00  0.00    -0.775 OA
HETATM   43  H   UNK N   1      -9.540  -6.328   1.033  0.00  0.00     0.167 HD
ENDBRANCH  40  42
ENDBRANCH  33  40
ENDBRANCH  30  33
ENDBRANCH  26  29
ENDBRANCH   1  23
TORSDOF 12
