REMARK  9 active torsions:
REMARK  status: ('A' for Active; 'I' for Inactive)
REMARK    1  A    between atoms: C_22  and  C_18 
REMARK    2  A    between atoms: C_27  and  C_18 
REMARK    3  A    between atoms: C_21  and  C_20 
REMARK    4  A    between atoms: N_31  and  C_23 
REMARK    5  A    between atoms: S_36  and  C_24 
REMARK    6  A    between atoms: C_28  and  C_27 
REMARK    7  A    between atoms: C_27  and  N_30 
REMARK    8  A    between atoms: O_33  and  C_28 
REMARK    9  A    between atoms: S_36  and  N_30 
ROOT
HETATM    1  O   UNK N   1       1.802  -1.691  -0.427  0.00  0.00    -0.201 OA
HETATM    2  O   UNK N   1       1.200  -2.640   1.662  0.00  0.00    -0.201 OA
HETATM    3  S   UNK N   1       0.768  -1.524   0.698  0.00  0.00     0.259 S 
ENDROOT
BRANCH   3   4
HETATM    4  C   UNK N   1      -0.924  -1.797   0.189  0.00  0.00     0.079 A 
HETATM    5  C   UNK N   1      -1.274  -2.912  -0.583  0.00  0.00     0.027 A 
HETATM    6  C   UNK N   1      -2.605  -3.094  -0.985  0.00  0.00     0.031 A 
HETATM    7  C   UNK N   1      -3.586  -2.150  -0.628  0.00  0.00     0.030 A 
HETATM    8  C   UNK N   1      -3.216  -1.049   0.154  0.00  0.00     0.031 A 
HETATM    9  C   UNK N   1      -1.902  -0.886   0.566  0.00  0.00     0.027 A 
BRANCH   7  10
HETATM   10  N   UNK N   1      -4.943  -2.295  -1.039  0.00  0.00    -0.381 N 
HETATM   11  C   UNK N   1      -5.403  -3.516  -1.683  0.00  0.00     0.123 C 
HETATM   12  C   UNK N   1      -6.933  -3.630  -1.635  0.00  0.00     0.029 C 
HETATM   13  C   UNK N   1      -7.421  -3.197  -0.247  0.00  0.00     0.021 C 
HETATM   14  C   UNK N   1      -7.058  -1.739   0.065  0.00  0.00     0.029 C 
HETATM   15  C   UNK N   1      -5.890  -1.229  -0.770  0.00  0.00     0.123 C 
BRANCH  13  16
HETATM   16  C   UNK N   1      -8.890  -3.396  -0.073  0.00  0.00    -0.054 A 
HETATM   17  C   UNK N   1      -9.351  -4.259   0.926  0.00  0.00     0.007 A 
HETATM   18  C   UNK N   1     -10.723  -4.433   1.124  0.00  0.00     0.001 A 
HETATM   19  C   UNK N   1     -11.639  -3.743   0.324  0.00  0.00     0.000 A 
HETATM   20  C   UNK N   1     -11.183  -2.878  -0.675  0.00  0.00     0.001 A 
HETATM   21  C   UNK N   1      -9.811  -2.702  -0.874  0.00  0.00     0.007 A 
ENDBRANCH  13  16
ENDBRANCH   7  10
ENDBRANCH   3   4
BRANCH   3  22
HETATM   22  N   UNK N   1       1.215  -0.040   1.581  0.00  0.00    -0.300 N 
HETATM   23  H   UNK N   1       1.611  -0.071   2.520  0.00  0.00     0.173 HD
BRANCH  22  24
HETATM   24  C   UNK N   1       0.980   1.232   0.878  0.00  0.00     0.195 C 
BRANCH  24  25
HETATM   25  C   UNK N   1       1.556   1.230  -0.548  0.00  0.00     0.077 C 
BRANCH  25  26
HETATM   26  C   UNK N   1       2.505   2.366  -0.729  0.00  0.00    -0.028 A 
HETATM   27  C   UNK N   1       2.209   3.644  -1.191  0.00  0.00     0.096 A 
HETATM   28  N   UNK N   1       3.330   4.411  -1.144  0.00  0.00    -0.365 N 
HETATM   29  C   UNK N   1       4.304   3.618  -0.654  0.00  0.00     0.042 A 
HETATM   30  H   UNK N   1       3.413   5.354  -1.413  0.00  0.00     0.165 HD
HETATM   31  C   UNK N   1       5.628   3.966  -0.409  0.00  0.00     0.030 A 
HETATM   32  C   UNK N   1       3.830   2.366  -0.394  0.00  0.00    -0.002 A 
HETATM   33  C   UNK N   1       6.478   2.975   0.120  0.00  0.00     0.002 A 
HETATM   34  C   UNK N   1       5.985   1.676   0.387  0.00  0.00     0.001 A 
HETATM   35  C   UNK N   1       4.639   1.361   0.131  0.00  0.00     0.014 A 
ENDBRANCH  25  26
ENDBRANCH  24  25
BRANCH  24  36
HETATM   36  C   UNK N   1      -0.470   1.634   0.894  0.00  0.00     0.164 C 
HETATM   37  O   UNK N   1      -1.057   1.743   1.959  0.00  0.00    -0.648 OA
BRANCH  36  38
HETATM   38  O   UNK N   1      -1.127   1.895  -0.256  0.00  0.00    -0.775 OA
HETATM   39  H   UNK N   1      -1.198   2.381  -1.054  0.00  0.00     0.167 HD
ENDBRANCH  36  38
ENDBRANCH  24  36
ENDBRANCH  22  24
ENDBRANCH   3  22
TORSDOF 9
