REMARK  9 active torsions:
REMARK  status: ('A' for Active; 'I' for Inactive)
REMARK    1  A    between atoms: C_2  and  O_1 
REMARK    2  A    between atoms: C_4  and  C_5 
REMARK    3  A    between atoms: C_5  and  O_6 
REMARK    4  A    between atoms: O_6  and  P_7 
REMARK    5  A    between atoms: P_7  and  O_8 
REMARK    6  A    between atoms: P_7  and  O_9 
REMARK    7  A    between atoms: C_11  and  O_12 
REMARK    8  A    between atoms: C_13  and  O_14 
REMARK    9  A    between atoms: C_15  and  O_16 
ROOT
HETATM    1  C   UNK N   1       0.437   2.113  -0.358  0.00  0.00     0.288 C 
HETATM    2  O   UNK N   1       1.271   1.228  -1.074  0.00  0.00    -0.349 OA
HETATM    3  C   UNK N   1       1.287  -0.045  -0.432  0.00  0.00     0.180 C 
HETATM    4  C   UNK N   1       0.003  -0.421   0.343  0.00  0.00     0.180 C 
HETATM    5  C   UNK N   1      -1.175   0.175  -0.422  0.00  0.00     0.183 C 
HETATM    6  C   UNK N   1      -1.039   1.709  -0.510  0.00  0.00     0.204 C 
ENDROOT
BRANCH   3   7
HETATM    7  C   UNK N   1       2.551  -0.252   0.391  0.00  0.00     0.215 C 
BRANCH   7   8
HETATM    8  O   UNK N   1       3.470  -1.016  -0.341  0.00  0.00    -0.294 OA
BRANCH   8   9
HETATM    9  P   UNK N   1       3.925  -2.314   0.729  0.00  0.00     0.390 P 
HETATM   10  O   UNK N   1       2.949  -3.061  -0.221  0.00  0.00    -0.632 OA
BRANCH   9  11
HETATM   11  O   UNK N   1       4.891  -3.662   0.215  0.00  0.00    -0.307 OA
HETATM   12  H   UNK N   1       4.508  -4.506  -0.072  0.00  0.00     0.222 HD
ENDBRANCH   9  11
BRANCH   9  13
HETATM   13  O   UNK N   1       5.293  -1.799  -0.210  0.00  0.00    -0.307 OA
HETATM   14  H   UNK N   1       5.923  -2.317  -0.734  0.00  0.00     0.222 HD
ENDBRANCH   9  13
ENDBRANCH   8   9
ENDBRANCH   7   8
ENDBRANCH   3   7
BRANCH   4  15
HETATM   15  O   UNK N   1      -0.109  -1.808   0.431  0.00  0.00    -0.390 OA
HETATM   16  H   UNK N   1      -0.983  -2.223   0.493  0.00  0.00     0.210 HD
ENDBRANCH   4  15
BRANCH   1  17
HETATM   17  O   UNK N   1       0.633   3.424  -0.786  0.00  0.00    -0.369 OA
HETATM   18  H   UNK N   1       1.492   3.763  -1.084  0.00  0.00     0.212 HD
ENDBRANCH   1  17
BRANCH   5  19
HETATM   19  O   UNK N   1      -2.401  -0.202   0.133  0.00  0.00    -0.390 OA
HETATM   20  H   UNK N   1      -3.053   0.404   0.517  0.00  0.00     0.210 HD
ENDBRANCH   5  19
BRANCH   6  21
HETATM   21  O   UNK N   1      -1.782   2.345   0.489  0.00  0.00    -0.388 OA
HETATM   22  H   UNK N   1      -1.658   3.012   1.182  0.00  0.00     0.210 HD
ENDBRANCH   6  21
TORSDOF 9
