REMARK  10 active torsions:
REMARK  status: ('A' for Active; 'I' for Inactive)
REMARK    1  A    between atoms: P_1  and  O_5 
REMARK    2  A    between atoms: P_1  and  O_8 
REMARK    3  A    between atoms: P_1  and  O_9 
REMARK    4  A    between atoms: C_15  and  O_3 
REMARK    5  A    between atoms: C_16  and  O_4 
REMARK    6  A    between atoms: O_5  and  C_19 
REMARK    7  A    between atoms: O_7  and  C_24 
REMARK    8  A    between atoms: C_17  and  N_13 
REMARK    9  A    between atoms: C_18  and  C_19 
REMARK   10  A    between atoms: C_20  and  C_24 
ROOT
HETATM    1  O   UNK N   1      13.460 -10.036  -0.613  0.00  0.00    -0.353 OA
HETATM    2  C   UNK N   1      15.615 -10.153   0.263  0.00  0.00     0.198 C 
HETATM    3  C   UNK N   1      15.129 -11.543  -0.145  0.00  0.00     0.182 C 
HETATM    4  C   UNK N   1      14.261  -9.389   0.323  0.00  0.00     0.265 C 
HETATM    5  C   UNK N   1      13.640 -11.329  -0.143  0.00  0.00     0.180 C 
ENDROOT
BRANCH   4   6
HETATM    6  N   UNK N   1      14.137  -7.901   0.228  0.00  0.00    -0.263 N 
HETATM    7  C   UNK N   1      12.870  -7.320   0.202  0.00  0.00     0.120 A 
HETATM    8  C   UNK N   1      12.738  -5.940   0.024  0.00  0.00     0.111 A 
HETATM    9  C   UNK N   1      13.858  -5.147  -0.087  0.00  0.00     0.251 A 
HETATM   10  O   UNK N   1      13.743  -3.946  -0.249  0.00  0.00    -0.268 OA
HETATM   11  N   UNK N   1      15.092  -5.709   0.005  0.00  0.00    -0.275 N 
HETATM   12  C   UNK N   1      15.251  -7.060   0.164  0.00  0.00     0.332 A 
HETATM   13  H   UNK N   1      15.888  -5.133  -0.044  0.00  0.00     0.173 HD
HETATM   14  O   UNK N   1      16.379  -7.494   0.274  0.00  0.00    -0.246 OA
BRANCH   7  15
HETATM   15  C   UNK N   1      11.580  -8.068   0.380  0.00  0.00     0.194 C 
HETATM   16  O   UNK N   1      11.553  -9.218   0.784  0.00  0.00    -0.645 OA
BRANCH  15  17
HETATM   17  O   UNK N   1      10.410  -7.430   0.175  0.00  0.00    -0.772 OA
HETATM   18  H   UNK N   1      10.387  -6.504   0.032  0.00  0.00     0.167 HD
ENDBRANCH  15  17
ENDBRANCH   7  15
ENDBRANCH   4   6
BRANCH   2  19
HETATM   19  O   UNK N   1      16.412  -9.722  -0.797  0.00  0.00    -0.388 OA
HETATM   20  H   UNK N   1      16.949 -10.052  -1.535  0.00  0.00     0.210 HD
ENDBRANCH   2  19
BRANCH   5  21
HETATM   21  C   UNK N   1      12.741 -12.324  -0.837  0.00  0.00     0.215 C 
BRANCH  21  22
HETATM   22  O   UNK N   1      11.452 -12.085  -0.339  0.00  0.00    -0.294 OA
BRANCH  22  23
HETATM   23  P   UNK N   1      10.475 -13.482  -0.680  0.00  0.00     0.390 P 
HETATM   24  O   UNK N   1      11.141 -13.983   0.632  0.00  0.00    -0.632 OA
BRANCH  23  25
HETATM   25  O   UNK N   1       9.085 -13.881   0.281  0.00  0.00    -0.307 OA
HETATM   26  H   UNK N   1       8.504 -13.320   0.818  0.00  0.00     0.222 HD
ENDBRANCH  23  25
BRANCH  23  27
HETATM   27  O   UNK N   1       9.517 -12.090  -0.273  0.00  0.00    -0.307 OA
HETATM   28  H   UNK N   1       9.923 -11.239  -0.046  0.00  0.00     0.222 HD
ENDBRANCH  23  27
ENDBRANCH  22  23
ENDBRANCH  21  22
ENDBRANCH   5  21
BRANCH   3  29
HETATM   29  O   UNK N   1      15.493 -12.516   0.785  0.00  0.00    -0.390 OA
HETATM   30  H   UNK N   1      15.033 -13.074   1.431  0.00  0.00     0.210 HD
ENDBRANCH   3  29
TORSDOF 10
