REMARK  6 active torsions:
REMARK  status: ('A' for Active; 'I' for Inactive)
REMARK    1  A    between atoms: C_2  and  C_4 
REMARK    2  A    between atoms: C_4  and  N_5 
REMARK    3  A    between atoms: C_4  and  C_6 
REMARK    4  A    between atoms: C_6  and  O_7 
REMARK    5  A    between atoms: O_7  and  C_8 
REMARK    6  A    between atoms: C_8  and  C_9 
ROOT
HETATM    1  C   UNK N   1      -1.022  -3.358  -0.428  0.00  0.00     0.200 C 
ENDROOT
BRANCH   1   2
HETATM    2  C   UNK N   1      -2.205  -3.827   0.397  0.00  0.00     0.168 C 
BRANCH   2   3
HETATM    3  C   UNK N   1      -3.401  -2.944   0.149  0.00  0.00     0.147 C 
HETATM    4  C   UNK N   1      -4.676  -3.499  -0.404  0.00  0.00     0.093 C 
HETATM    5  O   UNK N   1      -3.337  -1.753   0.409  0.00  0.00    -0.296 OA
ENDBRANCH   2   3
BRANCH   2   6
HETATM    6  N   UNK N   1      -2.493  -5.211   0.056  0.00  0.00    -0.418 N 
HETATM    7  H   UNK N   1      -3.435  -5.522  -0.183  0.00  0.00     0.150 HD
HETATM    8  H   UNK N   1      -1.732  -5.891   0.056  0.00  0.00     0.150 HD
ENDBRANCH   2   6
ENDBRANCH   1   2
BRANCH   1   9
HETATM    9  O   UNK N   1      -0.235  -2.462   0.304  0.00  0.00    -0.384 OA
BRANCH   9  10
HETATM   10  C   UNK N   1       0.836  -2.167  -0.547  0.00  0.00     0.206 C 
BRANCH  10  11
HETATM   11  C   UNK N   1       2.032  -3.013  -0.238  0.00  0.00    -0.035 A 
HETATM   12  C   UNK N   1       3.268  -2.409   0.012  0.00  0.00     0.009 A 
HETATM   13  C   UNK N   1       4.397  -3.198   0.260  0.00  0.00     0.001 A 
HETATM   14  C   UNK N   1       4.290  -4.592   0.261  0.00  0.00     0.000 A 
HETATM   15  C   UNK N   1       3.056  -5.199   0.013  0.00  0.00     0.001 A 
HETATM   16  C   UNK N   1       1.930  -4.411  -0.242  0.00  0.00     0.009 A 
ENDBRANCH  10  11
ENDBRANCH   9  10
ENDBRANCH   1   9
TORSDOF 6
