REMARK  6 active torsions:
REMARK  status: ('A' for Active; 'I' for Inactive)
REMARK    1  A    between atoms: C_3  and  C_1 
REMARK    2  A    between atoms: C_4  and  C_1 
REMARK    3  A    between atoms: C_3  and  C_2 
REMARK    4  A    between atoms: S_8  and  C_2 
REMARK    5  A    between atoms: C_3  and  N_5 
REMARK    6  A    between atoms: O_7  and  C_4 
ROOT
HETATM    1  C   UNK N   1       1.056   1.100  -0.058  0.00  0.00     0.092 C 
ENDROOT
BRANCH   1   2
HETATM    2  C   UNK N   1       2.295   1.454   0.764  0.00  0.00     0.135 C 
BRANCH   2   3
HETATM    3  C   UNK N   1       3.577   0.973   0.154  0.00  0.00     0.141 C 
HETATM    4  O   UNK N   1       4.422   1.778  -0.201  0.00  0.00    -0.650 OA
BRANCH   3   5
HETATM    5  O   UNK N   1       3.822  -0.347   0.043  0.00  0.00    -0.776 OA
HETATM    6  H   UNK N   1       3.112  -0.954  -0.033  0.00  0.00     0.167 HD
ENDBRANCH   3   5
ENDBRANCH   2   3
ENDBRANCH   1   2
BRANCH   1   7
HETATM    7  C   UNK N   1      -0.169   1.537   0.733  0.00  0.00     0.095 C 
BRANCH   7   8
HETATM    8  S   UNK N   1      -1.720   1.094  -0.111  0.00  0.00    -0.180 SA
HETATM    9  H   UNK N   1      -2.586   1.931  -0.742  0.00  0.00     0.101 HD
ENDBRANCH   7   8
ENDBRANCH   1   7
BRANCH   1  10
HETATM   10  N   UNK N   1       0.997  -0.336  -0.290  0.00  0.00    -0.425 N 
HETATM   11  H   UNK N   1       0.105  -0.803  -0.452  0.00  0.00     0.150 HD
HETATM   12  H   UNK N   1       1.859  -0.882  -0.290  0.00  0.00     0.150 HD
ENDBRANCH   1  10
TORSDOF 6
