REMARK  2 active torsions:
REMARK  status: ('A' for Active; 'I' for Inactive)
REMARK    1  A    between atoms: C_2  and  C_3 
REMARK    2  A    between atoms: C_3  and  C_4 
REMARK       I    between atoms: C_4  and  N_5 
ROOT
HETATM    1  C   UNK N   1       0.823  -0.318  -0.000  0.00  0.00     0.215 C 
HETATM    2  N   UNK N   1       1.377  -1.542  -0.000  0.00  0.00    -0.370 N 
HETATM    3  O   UNK N   1      -0.398  -0.206  -0.000  0.00  0.00    -0.274 OA
HETATM    4  H   UNK N   1       0.803  -2.341  -0.000  0.00  0.00     0.159 HD
HETATM    5  H   UNK N   1       2.357  -1.639  -0.000  0.00  0.00     0.159 HD
ENDROOT
BRANCH   1   6
HETATM    6  C   UNK N   1       1.711   0.891  -0.000  0.00  0.00     0.102 C 
BRANCH   6   7
HETATM    7  C   UNK N   1       0.960   2.211   0.000  0.00  0.00     0.005 C 
HETATM    8  C   UNK N   1       1.969   3.340   0.000  0.00  0.00     0.005 C 
ENDBRANCH   6   7
ENDBRANCH   1   6
TORSDOF 2
