REMARK  9 active torsions:
REMARK  status: ('A' for Active; 'I' for Inactive)
REMARK    1  A    between atoms: C_5  and  N_4 
REMARK    2  A    between atoms: C_7  and  C_8 
REMARK    3  A    between atoms: C_8  and  O_9 
REMARK    4  A    between atoms: P_10  and  O_9 
REMARK    5  A    between atoms: P_10  and  O_11 
REMARK    6  A    between atoms: P_10  and  O_13 
REMARK    7  A    between atoms: O_13  and  P_14 
REMARK    8  A    between atoms: P_14  and  O_15 
REMARK    9  A    between atoms: P_14  and  O_16 
ROOT
HETATM    1  C   UNK N   1      -5.464  -0.188  -0.602  0.00  0.00     0.257 C 
HETATM    2  O   UNK N   1      -4.510   0.838  -0.859  0.00  0.00    -0.352 OA
HETATM    3  C   UNK N   1      -3.363   0.525  -0.083  0.00  0.00     0.171 C 
HETATM    4  C   UNK N   1      -3.751  -0.550   0.846  0.00  0.00     0.007 C 
HETATM    5  C   UNK N   1      -4.944  -0.965   0.547  0.00  0.00     0.025 C 
ENDROOT
BRANCH   3   6
HETATM    6  C   UNK N   1      -2.857   1.746   0.670  0.00  0.00     0.216 C 
BRANCH   6   7
HETATM    7  O   UNK N   1      -1.904   2.406  -0.122  0.00  0.00    -0.294 OA
BRANCH   7   8
HETATM    8  P   UNK N   1      -0.347   2.000   0.562  0.00  0.00     0.401 P 
HETATM    9  O   UNK N   1      -0.517   0.884  -0.506  0.00  0.00    -0.631 OA
BRANCH   8  10
HETATM   10  O   UNK N   1      -0.242   3.537  -0.241  0.00  0.00    -0.307 OA
HETATM   11  H   UNK N   1       0.531   3.915  -0.689  0.00  0.00     0.222 HD
ENDBRANCH   8  10
BRANCH   8  12
HETATM   12  O   UNK N   1       1.129   2.087  -0.364  0.00  0.00    -0.195 OA
BRANCH  12  13
HETATM   13  P   UNK N   1       2.365   1.412   0.666  0.00  0.00     0.399 P 
HETATM   14  O   UNK N   1       2.173   0.278  -0.377  0.00  0.00    -0.631 OA
BRANCH  13  15
HETATM   15  O   UNK N   1       3.971   1.144   0.065  0.00  0.00    -0.307 OA
HETATM   16  H   UNK N   1       4.290   0.291  -0.270  0.00  0.00     0.222 HD
ENDBRANCH  13  15
BRANCH  13  17
HETATM   17  O   UNK N   1       2.972   2.832  -0.126  0.00  0.00    -0.307 OA
HETATM   18  H   UNK N   1       3.829   2.935  -0.569  0.00  0.00     0.222 HD
ENDBRANCH  13  17
ENDBRANCH  12  13
ENDBRANCH   8  12
ENDBRANCH   7   8
ENDBRANCH   6   7
ENDBRANCH   3   6
BRANCH   1  19
HETATM   19  N   UNK N   1      -6.806   0.348  -0.310  0.00  0.00    -0.278 N 
HETATM   20  C   UNK N   1      -7.014   1.695  -0.255  0.00  0.00     0.111 A 
HETATM   21  C   UNK N   1      -8.285   2.211  -0.002  0.00  0.00     0.022 A 
HETATM   22  C   UNK N   1      -8.487   3.687   0.052  0.00  0.00     0.056 C 
HETATM   23  C   UNK N   1      -9.347   1.323   0.192  0.00  0.00     0.256 A 
HETATM   24  N   UNK N   1      -9.122  -0.023   0.131  0.00  0.00    -0.275 N 
HETATM   25  O   UNK N   1     -10.472   1.737   0.413  0.00  0.00    -0.267 OA
HETATM   26  C   UNK N   1      -7.869  -0.518  -0.119  0.00  0.00     0.331 A 
HETATM   27  H   UNK N   1      -9.871  -0.647   0.269  0.00  0.00     0.173 HD
HETATM   28  O   UNK N   1      -7.706  -1.724  -0.179  0.00  0.00    -0.246 OA
ENDBRANCH   1  19
TORSDOF 9
