REMARK  0 active torsions:
REMARK  status: ('A' for Active; 'I' for Inactive)
ROOT
HETATM    1  O   UNK N   1       1.527  -1.705   0.000  0.00  0.00    -0.614 OA
HETATM    2  P   UNK N   1       1.204   0.000   0.000  0.00  0.00     0.462 P 
HETATM    3  O   UNK N   1       1.527   1.705   0.000  0.00  0.00    -0.614 OA
HETATM    4  F   UNK N   1       2.918   0.000   0.000  0.00  0.00    -0.122 F 
HETATM    5  O   UNK N   1      -0.351   0.000   0.000  0.00  0.00    -0.614 OA
ENDROOT
TORSDOF 0
