REMARK  7 active torsions:
REMARK  status: ('A' for Active; 'I' for Inactive)
REMARK    1  A    between atoms: N_1  and  C_2 
REMARK    2  A    between atoms: C_10  and  N_7 
REMARK    3  A    between atoms: C_13  and  C_14 
REMARK    4  A    between atoms: C_14  and  O_15 
REMARK    5  A    between atoms: O_15  and  P_16 
REMARK    6  A    between atoms: P_16  and  O_17 
REMARK    7  A    between atoms: P_16  and  O_18 
ROOT
HETATM    1  C   UNK N   1       0.828   3.203  -0.310  0.00  0.00     0.232 C 
HETATM    2  C   UNK N   1       1.987   2.637  -1.092  0.00  0.00     0.057 C 
HETATM    3  C   UNK N   1       2.096   1.258  -0.506  0.00  0.00     0.038 C 
HETATM    4  C   UNK N   1       1.336   1.357   0.810  0.00  0.00     0.148 C 
HETATM    5  O   UNK N   1       0.893   2.680   0.988  0.00  0.00    -0.359 OA
ENDROOT
BRANCH   1   6
HETATM    6  N   UNK N   1       0.801   4.665  -0.291  0.00  0.00    -0.282 N 
HETATM    7  C   UNK N   1       1.853   5.432   0.179  0.00  0.00     0.330 A 
HETATM    8  N   UNK N   1       1.742   6.798   0.210  0.00  0.00    -0.295 N 
HETATM    9  O   UNK N   1       2.881   4.906   0.571  0.00  0.00    -0.246 OA
HETATM   10  C   UNK N   1       0.608   7.414  -0.212  0.00  0.00     0.103 A 
ATOM     11  HN  UNK N   1       2.521   7.360   0.554  1.00  0.00     0.172 HD
HETATM   12  C   UNK N   1      -0.455   6.659  -0.695  0.00  0.00     0.065 A 
HETATM   13  C   UNK N   1      -0.335   5.273  -0.727  0.00  0.00     0.102 A 
BRANCH  10  14
HETATM   14  N   UNK N   1       0.504   8.817  -0.155  0.00  0.00    -0.385 N 
HETATM   15  H   UNK N   1       1.317   9.371  -0.115  0.00  0.00     0.157 HD
HETATM   16  H   UNK N   1      -0.383   9.245  -0.155  0.00  0.00     0.157 HD
ENDBRANCH  10  14
ENDBRANCH   1   6
BRANCH   4  17
HETATM   17  C   UNK N   1       0.169   0.368   0.865  0.00  0.00     0.212 C 
BRANCH  17  18
HETATM   18  O   UNK N   1      -0.759   0.612  -0.157  0.00  0.00    -0.295 OA
BRANCH  18  19
HETATM   19  P   UNK N   1      -2.267  -0.011   0.445  0.00  0.00     0.390 P 
HETATM   20  O   UNK N   1      -1.957  -0.985  -0.725  0.00  0.00    -0.632 OA
BRANCH  19  21
HETATM   21  O   UNK N   1      -3.709   0.067  -0.518  0.00  0.00    -0.307 OA
HETATM   22  H   UNK N   1      -4.074   0.787  -1.056  0.00  0.00     0.222 HD
ENDBRANCH  19  21
BRANCH  19  23
HETATM   23  O   UNK N   1      -2.504   1.592  -0.178  0.00  0.00    -0.307 OA
HETATM   24  H   UNK N   1      -1.795   2.155  -0.526  0.00  0.00     0.222 HD
ENDBRANCH  19  23
ENDBRANCH  18  19
ENDBRANCH  17  18
ENDBRANCH   4  17
TORSDOF 7
