REMARK  14 active torsions:
REMARK  status: ('A' for Active; 'I' for Inactive)
REMARK    1  A    between atoms: N_1  and  C_2 
REMARK    2  A    between atoms: C_8  and  C_9 
REMARK    3  A    between atoms: N_15  and  C_16 
REMARK    4  A    between atoms: C_16  and  C_17 
REMARK    5  A    between atoms: C_17  and  C_18 
REMARK    6  A    between atoms: C_18  and  C_19 
REMARK    7  A    between atoms: C_19  and  C_20 
REMARK    8  A    between atoms: C_20  and  C_21 
REMARK    9  A    between atoms: C_21  and  C_22 
REMARK   10  A    between atoms: N_24  and  C_25 
REMARK   11  A    between atoms: C_25  and  C_26 
REMARK   12  A    between atoms: C_26  and  N_27 
REMARK   13  A    between atoms: N_27  and  C_28 
REMARK   14  A    between atoms: C_50  and  N_51 
ROOT
HETATM    1  C   UNK N   1      -0.350  11.497  -0.191  0.00  0.00     0.002 C 
ENDROOT
BRANCH   1   2
HETATM    2  C   UNK N   1       0.970  10.860  -0.503  0.00  0.00     0.020 C 
BRANCH   2   3
HETATM    3  C   UNK N   1       1.454  10.189   0.758  0.00  0.00     0.129 C 
BRANCH   3   4
HETATM    4  N   UNK N   1       2.254   9.011   0.438  0.00  0.00    -0.345 N 
HETATM    5  C   UNK N   1       3.636   9.091   0.278  0.00  0.00     0.056 A 
HETATM    6  C   UNK N   1       4.356   7.867   0.057  0.00  0.00     0.005 A 
HETATM    7  C   UNK N   1       3.655   6.638  -0.039  0.00  0.00    -0.011 A 
HETATM    8  C   UNK N   1       5.757   7.833  -0.063  0.00  0.00     0.043 A 
HETATM    9  C   UNK N   1       4.363   5.440  -0.253  0.00  0.00     0.015 A 
HETATM   10  C   UNK N   1       2.265   6.617   0.073  0.00  0.00     0.002 A 
HETATM   11  C   UNK N   1       5.751   5.442  -0.360  0.00  0.00     0.030 A 
HETATM   12  C   UNK N   1       6.448   6.640  -0.263  0.00  0.00     0.026 A 
HETATM   13  C   UNK N   1       1.575   7.817   0.323  0.00  0.00     0.048 A 
HETATM   14  C   UNK N   1       1.546   5.411  -0.053  0.00  0.00     0.017 A 
HETATM   15  C   UNK N   1       0.167   7.773   0.440  0.00  0.00     0.059 A 
HETATM   16  C   UNK N   1      -0.535   6.577   0.299  0.00  0.00     0.027 A 
HETATM   17  C   UNK N   1       0.155   5.394   0.052  0.00  0.00     0.030 A 
BRANCH   5  18
HETATM   18  C   UNK N   1       4.373  10.450   0.307  0.00  0.00    -0.008 A 
HETATM   19  C   UNK N   1       3.688  11.669   0.487  0.00  0.00     0.014 A 
HETATM   20  C   UNK N   1       4.337  12.904   0.439  0.00  0.00     0.001 A 
HETATM   21  C   UNK N   1       5.707  12.958   0.207  0.00  0.00     0.000 A 
HETATM   22  C   UNK N   1       6.421  11.776   0.030  0.00  0.00     0.001 A 
HETATM   23  C   UNK N   1       5.760  10.544   0.075  0.00  0.00     0.014 A 
ENDBRANCH   5  18
BRANCH  12  24
HETATM   24  N   UNK N   1       7.852   6.649  -0.361  0.00  0.00    -0.399 N 
HETATM   25  H   UNK N   1       8.349   5.802  -0.429  0.00  0.00     0.156 HD
HETATM   26  H   UNK N   1       8.339   7.505  -0.361  0.00  0.00     0.156 HD
ENDBRANCH  12  24
BRANCH  16  27
HETATM   27  N   UNK N   1      -1.940   6.569   0.395  0.00  0.00    -0.399 N 
HETATM   28  H   UNK N   1      -2.436   7.416   0.463  0.00  0.00     0.156 HD
HETATM   29  H   UNK N   1      -2.427   5.713   0.395  0.00  0.00     0.156 HD
ENDBRANCH  16  27
ENDBRANCH   3   4
ENDBRANCH   2   3
ENDBRANCH   1   2
BRANCH   1  30
HETATM   30  C   UNK N   1      -1.433  10.459  -0.412  0.00  0.00     0.000 C 
BRANCH  30  31
HETATM   31  C   UNK N   1      -2.760  11.108  -0.734  0.00  0.00     0.006 C 
BRANCH  31  32
HETATM   32  C   UNK N   1      -2.626  12.160  -1.828  0.00  0.00     0.059 C 
BRANCH  32  33
HETATM   33  C   UNK N   1      -2.760  13.486  -1.177  0.00  0.00     0.040 A 
HETATM   34  C   UNK N   1      -3.942  14.146  -0.995  0.00  0.00     0.134 A 
HETATM   35  N   UNK N   1      -3.663  15.186  -0.187  0.00  0.00    -0.283 N 
HETATM   36  N   UNK N   1      -2.375  15.156   0.114  0.00  0.00    -0.020 NA
HETATM   37  N   UNK N   1      -1.799  14.119  -0.474  0.00  0.00    -0.287 N 
ATOM     38  HN  UNK N   1      -0.818  13.850  -0.409  1.00  0.00     0.184 HD
BRANCH  35  39
HETATM   39  C   UNK N   1      -4.623  16.101   0.428  0.00  0.00     0.165 C 
BRANCH  39  40
HETATM   40  C   UNK N   1      -6.067  15.602   0.298  0.00  0.00     0.141 C 
BRANCH  40  41
HETATM   41  N   UNK N   1      -6.150  14.205   0.669  0.00  0.00    -0.387 N 
HETATM   42  H   UNK N   1      -5.383  13.819   1.151  0.00  0.00     0.159 HD
BRANCH  41  43
HETATM   43  C   UNK N   1      -7.254  13.343   0.394  0.00  0.00     0.049 A 
HETATM   44  C   UNK N   1      -8.570  13.828   0.191  0.00  0.00    -0.008 A 
HETATM   45  C   UNK N   1      -8.877  15.303   0.293  0.00  0.00     0.043 C 
HETATM   46  C   UNK N   1      -9.608  12.904  -0.088  0.00  0.00     0.018 A 
HETATM   47  C   UNK N   1     -10.352  15.597   0.522  0.00  0.00     0.005 C 
HETATM   48  C   UNK N   1     -11.176  14.854  -0.509  0.00  0.00     0.006 C 
HETATM   49  C   UNK N   1     -11.028  13.350  -0.313  0.00  0.00     0.057 C 
HETATM   50  N   UNK N   1      -9.339  11.575  -0.153  0.00  0.00    -0.358 N 
HETATM   51  C   UNK N   1      -8.093  11.082   0.039  0.00  0.00     0.044 A 
ATOM     52  HN  UNK N   1     -10.101  10.926  -0.352  1.00  0.00     0.166 HD
HETATM   53  C   UNK N   1      -7.022  11.955   0.322  0.00  0.00     0.018 A 
HETATM   54  C   UNK N   1      -7.872   9.703  -0.050  0.00  0.00     0.030 A 
HETATM   55  C   UNK N   1      -5.738  11.422   0.513  0.00  0.00     0.016 A 
HETATM   56  C   UNK N   1      -5.525  10.042   0.423  0.00  0.00     0.001 A 
HETATM   57  C   UNK N   1      -6.589   9.184   0.139  0.00  0.00     0.002 A 
ENDBRANCH  41  43
ENDBRANCH  40  41
ENDBRANCH  39  40
ENDBRANCH  35  39
ENDBRANCH  32  33
ENDBRANCH  31  32
ENDBRANCH  30  31
ENDBRANCH   1  30
TORSDOF 14
