REMARK  11 active torsions:
REMARK  status: ('A' for Active; 'I' for Inactive)
REMARK    1  A    between atoms: C_26  and  C_7 
REMARK    2  A    between atoms: C_27  and  C_8 
REMARK    3  A    between atoms: C_16  and  C_14 
REMARK    4  A    between atoms: C_28  and  C_14 
REMARK    5  A    between atoms: C_17  and  C_15 
REMARK    6  A    between atoms: C_29  and  C_15 
REMARK    7  A    between atoms: C_36  and  C_16 
REMARK    8  A    between atoms: C_37  and  C_17 
REMARK    9  A    between atoms: C_38  and  C_25 
REMARK   10  A    between atoms: O_46  and  C_36 
REMARK   11  A    between atoms: O_48  and  C_37 
ROOT
HETATM    1  C   UNK N   1       3.545   0.783  -1.557  0.00  0.00     0.046 A 
HETATM    2  C   UNK N   1      -0.959   1.697   0.423  0.00  0.00     0.051 C 
HETATM    3  C   UNK N   1       5.857  -5.491   0.839  0.00  0.00     0.051 C 
HETATM    4  C   UNK N   1       9.703   0.833   1.178  0.00  0.00     0.017 C 
HETATM    5  C   UNK N   1       1.988   2.330   0.224  0.00  0.00     0.031 C 
HETATM    6  C   UNK N   1       6.767  -2.736   0.140  0.00  0.00     0.060 C 
HETATM    7  C   UNK N   1       1.851  -2.459   0.215  0.00  0.00     0.064 C 
HETATM    8  C   UNK N   1       3.725   1.533  -0.036  0.00  0.00    -0.053 A 
HETATM    9  C   UNK N   1       0.120   0.652   0.437  0.00  0.00    -0.025 A 
HETATM   10  C   UNK N   1       4.963  -4.325   0.556  0.00  0.00    -0.025 A 
HETATM   11  C   UNK N   1       8.472   0.108   0.724  0.00  0.00     0.048 C 
HETATM   12  C   UNK N   1       8.629  -1.289   0.183  0.00  0.00     0.069 C 
HETATM   13  C   UNK N   1       4.709   1.365   1.196  0.00  0.00    -0.031 A 
HETATM   14  C   UNK N   1       0.126  -0.782   0.285  0.00  0.00    -0.021 A 
HETATM   15  C   UNK N   1       3.591  -4.261   0.577  0.00  0.00    -0.021 A 
HETATM   16  C   UNK N   1       1.431   1.001   0.377  0.00  0.00     0.062 A 
HETATM   17  C   UNK N   1       5.389  -3.069   0.260  0.00  0.00     0.066 A 
HETATM   18  C   UNK N   1       3.501   2.615  -0.157  0.00  0.00     0.130 A 
HETATM   19  C   UNK N   1       7.221  -1.556  -0.166  0.00  0.00     0.045 C 
HETATM   20  C   UNK N   1       1.432  -1.188   0.270  0.00  0.00     0.066 A 
HETATM   21  C   UNK N   1       3.242  -2.950   0.292  0.00  0.00     0.066 A 
HETATM   22  C   UNK N   1       6.904   1.913   0.302  0.00  0.00     0.001 C 
HETATM   23  C   UNK N   1       7.309   0.681  -0.018  0.00  0.00     0.049 C 
HETATM   24  C   UNK N   1       5.526   2.173   0.699  0.00  0.00     0.144 C 
HETATM   25 Fe   UNK N   1       4.481  -0.218  -0.006  0.00  0.00     0.000 Fe
HETATM   26  N   UNK N   1       2.220  -0.155   0.268  0.00  0.00    -0.248 N 
HETATM   27  N   UNK N   1       4.356  -2.210   0.171  0.00  0.00    -0.248 N 
HETATM   28  N   UNK N   1       4.775   2.427  -0.234  0.00  0.00    -0.222 N 
HETATM   29  N   UNK N   1       6.446  -0.386  -0.251  0.00  0.00    -0.256 N 
ENDROOT
BRANCH  14  30
HETATM   30  C   UNK N   1      -0.847  -1.889   0.021  0.00  0.00     0.052 C 
BRANCH  30  31
HETATM   31  C   UNK N   1      -2.301  -1.695   0.147  0.00  0.00     0.115 C 
BRANCH  31  32
HETATM   32  C   UNK N   1      -2.712  -0.421  -0.445  0.00  0.00     0.139 C 
HETATM   33  O   UNK N   1      -2.441  -0.143  -1.604  0.00  0.00    -0.650 OA
BRANCH  32  34
HETATM   34  O   UNK N   1      -3.293   0.482   0.357  0.00  0.00    -0.776 OA
HETATM   35  H   UNK N   1      -2.949   1.149   0.918  0.00  0.00     0.167 HD
ENDBRANCH  32  34
ENDBRANCH  31  32
ENDBRANCH  30  31
ENDBRANCH  14  30
BRANCH  15  36
HETATM   36  C   UNK N   1       2.661  -5.367   0.915  0.00  0.00     0.052 C 
BRANCH  36  37
HETATM   37  C   UNK N   1       2.462  -6.311  -0.257  0.00  0.00     0.115 C 
BRANCH  37  38
HETATM   38  C   UNK N   1       3.682  -7.101  -0.607  0.00  0.00     0.139 C 
HETATM   39  O   UNK N   1       3.784  -8.252  -0.218  0.00  0.00    -0.650 OA
BRANCH  38  40
HETATM   40  O   UNK N   1       4.646  -6.564  -1.385  0.00  0.00    -0.776 OA
HETATM   41  H   UNK N   1       5.304  -6.956  -1.925  0.00  0.00     0.167 HD
ENDBRANCH  38  40
ENDBRANCH  37  38
ENDBRANCH  36  37
ENDBRANCH  15  36
BRANCH  13  42
HETATM   42  C   UNK N   1       5.243   0.278   2.106  0.00  0.00    -0.001 C 
HETATM   43  C   UNK N   1       4.524  -0.753   2.543  0.00  0.00     0.012 C 
ENDBRANCH  13  42
BRANCH  22  44
HETATM   44  C   UNK N   1       7.419   2.926  -0.676  0.00  0.00    -0.026 C 
HETATM   45  C   UNK N   1       6.771   4.170  -0.611  0.00  0.00     0.012 C 
HETATM   46  C   UNK N   1       7.483   5.242  -0.144  0.00  0.00     0.001 C 
HETATM   47  C   UNK N   1       8.841   5.076   0.133  0.00  0.00     0.000 C 
HETATM   48  C   UNK N   1       9.516   3.944  -0.329  0.00  0.00     0.001 C 
HETATM   49  C   UNK N   1       8.794   2.879  -0.814  0.00  0.00     0.012 C 
ENDBRANCH  22  44
BRANCH  12  50
HETATM   50  C   UNK N   1       9.573  -1.414  -0.961  0.00  0.00    -0.025 C 
HETATM   51  C   UNK N   1      10.467  -2.398  -0.915  0.00  0.00     0.007 C 
ENDBRANCH  12  50
TORSDOF 11
