REMARK  4 active torsions:
REMARK  status: ('A' for Active; 'I' for Inactive)
REMARK    1  A    between atoms: O_1  and  C_2 
REMARK    2  A    between atoms: C_2  and  C_4 
REMARK    3  A    between atoms: C_4  and  C_6 
REMARK    4  A    between atoms: C_6  and  C_7 
ROOT
HETATM    1  C   UNK N   1       0.884   0.965  -0.000  0.00  0.00     0.231 C 
HETATM    2  O   UNK N   1       0.800  -0.256   0.000  0.00  0.00    -0.285 OA
ENDROOT
BRANCH   1   3
HETATM    3  C   UNK N   1      -0.343   1.783  -0.000  0.00  0.00     0.214 C 
HETATM    4  O   UNK N   1      -0.265   3.003  -0.000  0.00  0.00    -0.644 OA
BRANCH   3   5
HETATM    5  O   UNK N   1      -1.554   1.196   0.000  0.00  0.00    -0.771 OA
HETATM    6  H   UNK N   1      -2.330   1.722   0.000  0.00  0.00     0.167 HD
ENDBRANCH   3   5
ENDBRANCH   1   3
BRANCH   1   7
HETATM    7  C   UNK N   1       2.222   1.665   0.000  0.00  0.00     0.203 C 
BRANCH   7   8
HETATM    8  C   UNK N   1       3.477   0.834   0.000  0.00  0.00     0.180 C 
HETATM    9  O   UNK N   1       4.668   1.460   0.000  0.00  0.00    -0.648 OA
HETATM   10  O   UNK N   1       3.438  -0.386  -0.000  0.00  0.00    -0.648 OA
ENDBRANCH   7   8
ENDBRANCH   1   7
TORSDOF 4
