REMARK  17 active torsions:
REMARK  status: ('A' for Active; 'I' for Inactive)
REMARK    1  A    between atoms: C_23  and  C_19 
REMARK    2  A    between atoms: C_29  and  C_19 
REMARK    3  A    between atoms: C_22  and  C_20 
REMARK    4  A    between atoms: N_41  and  C_20 
REMARK    5  A    between atoms: O_42  and  C_21 
REMARK    6  A    between atoms: C_25  and  C_24 
REMARK    7  A    between atoms: C_32  and  C_26 
REMARK    8  A    between atoms: C_35  and  C_27 
REMARK    9  A    between atoms: C_28  and  N_39 
REMARK   10  A    between atoms: C_30  and  C_29 
REMARK   11  A    between atoms: C_29  and  N_37 
REMARK   12  A    between atoms: C_30  and  O_43 
REMARK   13  A    between atoms: O_50  and  C_32 
REMARK   14  A    between atoms: C_35  and  C_33 
REMARK   15  A    between atoms: O_47  and  C_33 
REMARK   16  A    between atoms: C_35  and  C_34 
REMARK   17  A    between atoms: O_49  and  C_34 
ROOT
HETATM    1  C   UNK N   1       1.857   5.117  -0.808  0.00  0.00     0.162 C 
ENDROOT
BRANCH   1   2
HETATM    2  C   UNK N   1       3.382   5.270  -0.846  0.00  0.00     0.072 C 
BRANCH   2   3
HETATM    3  C   UNK N   1       4.036   6.307   0.013  0.00  0.00    -0.055 C 
HETATM    4  C   UNK N   1       3.359   7.487   0.250  0.00  0.00     0.008 C 
HETATM    5  C   UNK N   1       4.044   8.669   0.337  0.00  0.00     0.013 C 
HETATM    6  C   UNK N   1       5.434   8.715   0.193  0.00  0.00     0.019 C 
HETATM    7  C   UNK N   1       6.166   7.469   0.216  0.00  0.00     0.050 C 
HETATM    8  C   UNK N   1       5.425   6.288   0.071  0.00  0.00     0.025 C 
BRANCH   6   9
HETATM    9  C   UNK N   1       5.940  10.090  -0.261  0.00  0.00     0.299 C 
HETATM   10  F   UNK N   1       5.063  10.472  -1.271  0.00  0.00    -0.214 F 
BRANCH   9  11
HETATM   11  C   UNK N   1       7.272  10.051  -0.980  0.00  0.00     0.198 C 
HETATM   12  O   UNK N   1       7.408   9.314  -1.947  0.00  0.00    -0.647 OA
BRANCH  11  13
HETATM   13  O   UNK N   1       8.300  10.834  -0.604  0.00  0.00    -0.773 OA
HETATM   14  H   UNK N   1       9.130  10.486  -0.342  0.00  0.00     0.167 HD
ENDBRANCH  11  13
ENDBRANCH   9  11
BRANCH   9  15
HETATM   15  C   UNK N   1       5.776  11.147   0.815  0.00  0.00     0.198 C 
HETATM   16  O   UNK N   1       6.682  11.915   1.090  0.00  0.00    -0.647 OA
BRANCH  15  17
HETATM   17  O   UNK N   1       4.574  11.315   1.403  0.00  0.00    -0.773 OA
HETATM   18  H   UNK N   1       4.257  12.097   1.811  0.00  0.00     0.167 HD
ENDBRANCH  15  17
ENDBRANCH   9  15
ENDBRANCH   6   9
BRANCH   7  19
HETATM   19  C   UNK N   1       7.648   7.287   0.259  0.00  0.00     0.293 C 
HETATM   20  O   UNK N   1       8.389   8.211   0.556  0.00  0.00    -0.259 OA
BRANCH  19  21
HETATM   21  O   UNK N   1       8.162   6.042   0.071  0.00  0.00    -0.323 OA
HETATM   22  C   UNK N   1       9.511   5.774   0.122  0.00  0.00     0.213 C 
ENDBRANCH  19  21
ENDBRANCH   7  19
ENDBRANCH   2   3
ENDBRANCH   1   2
BRANCH   1  23
HETATM   23  C   UNK N   1       1.646   4.229   0.351  0.00  0.00     0.135 C 
HETATM   24  N   UNK N   1       1.962   3.007   0.158  0.00  0.00    -0.359 N 
ATOM     25  HN  UNK N   1       2.021   2.678  -0.806  1.00  0.00     0.162 HD
BRANCH  24  26
HETATM   26  C   UNK N   1       2.239   2.073   1.198  0.00  0.00     0.175 C 
HETATM   27  C   UNK N   1       1.202   0.980   0.894  0.00  0.00     0.035 C 
HETATM   28  C   UNK N   1       1.204   0.445  -0.551  0.00  0.00     0.004 C 
HETATM   29  C   UNK N   1       2.581  -0.026  -1.006  0.00  0.00     0.020 C 
HETATM   30  C   UNK N   1       3.496   1.158  -1.327  0.00  0.00     0.126 C 
HETATM   31  N   UNK N   1       4.307   1.551  -0.177  0.00  0.00    -0.346 N 
HETATM   32  C   UNK N   1       3.739   1.978   1.001  0.00  0.00     0.242 C 
HETATM   33  O   UNK N   1       4.473   2.291   1.941  0.00  0.00    -0.271 OA
BRANCH  31  34
HETATM   34  C   UNK N   1       5.732   1.294  -0.220  0.00  0.00     0.164 C 
BRANCH  34  35
HETATM   35  C   UNK N   1       5.905  -0.169   0.033  0.00  0.00    -0.040 A 
HETATM   36  C   UNK N   1       5.069  -0.769   0.980  0.00  0.00     0.009 A 
HETATM   37  C   UNK N   1       4.969  -2.141   1.061  0.00  0.00     0.013 A 
HETATM   38  C   UNK N   1       5.736  -2.951   0.226  0.00  0.00    -0.026 A 
HETATM   39  C   UNK N   1       6.653  -2.360  -0.665  0.00  0.00     0.013 A 
HETATM   40  C   UNK N   1       6.719  -0.964  -0.779  0.00  0.00     0.009 A 
BRANCH  38  41
HETATM   41  C   UNK N   1       5.453  -4.396   0.186  0.00  0.00    -0.026 A 
HETATM   42  C   UNK N   1       6.280  -5.277  -0.522  0.00  0.00     0.012 A 
HETATM   43  C   UNK N   1       5.933  -6.626  -0.631  0.00  0.00     0.001 A 
HETATM   44  C   UNK N   1       4.744  -7.095  -0.064  0.00  0.00     0.000 A 
HETATM   45  C   UNK N   1       3.909  -6.221   0.634  0.00  0.00     0.001 A 
HETATM   46  C   UNK N   1       4.266  -4.881   0.764  0.00  0.00     0.012 A 
ENDBRANCH  38  41
ENDBRANCH  34  35
ENDBRANCH  31  34
ENDBRANCH  24  26
BRANCH  23  47
HETATM   47  O   UNK N   1       1.504   4.727   1.598  0.00  0.00    -0.348 OA
HETATM   48  H   UNK N   1       1.754   4.985   2.464  0.00  0.00     0.219 HD
ENDBRANCH  23  47
ENDBRANCH   1  23
BRANCH   1  49
HETATM   49  N   UNK N   1       1.146   6.379  -0.740  0.00  0.00    -0.362 N 
HETATM   50  C   UNK N   1      -0.136   6.502  -0.796  0.00  0.00     0.107 C 
HETATM   51  C   UNK N   1      -1.034   5.315  -0.953  0.00  0.00     0.097 C 
ATOM     52  HN  UNK N   1       1.699   7.230  -0.642  1.00  0.00     0.162 HD
BRANCH  50  53
HETATM   53  O   UNK N   1      -0.680   7.730  -0.727  0.00  0.00    -0.350 OA
HETATM   54  H   UNK N   1      -0.129   8.486  -0.678  0.00  0.00     0.219 HD
ENDBRANCH  50  53
ENDBRANCH   1  49
TORSDOF 17
