REMARK  3 active torsions:
REMARK  status: ('A' for Active; 'I' for Inactive)
REMARK       I    between atoms: N_1  and  C_2 
REMARK       I    between atoms: C_2  and  N_5 
REMARK    1  A    between atoms: N_5  and  C_6 
REMARK    2  A    between atoms: C_9  and  C_12 
REMARK    3  A    between atoms: C_12  and  O_13 
ROOT
HETATM    1  C   UNK N   1       0.539  -0.685   0.008  0.00  0.00     0.049 A 
HETATM    2  C   UNK N   1      -0.714  -0.063  -0.006  0.00  0.00     0.031 A 
HETATM    3  C   UNK N   1      -0.813   1.331  -0.007  0.00  0.00     0.020 A 
HETATM    4  C   UNK N   1       0.342   2.122   0.008  0.00  0.00     0.037 A 
HETATM    5  C   UNK N   1       1.600   1.503   0.025  0.00  0.00     0.020 A 
HETATM    6  C   UNK N   1       1.697   0.109   0.025  0.00  0.00     0.031 A 
ENDROOT
BRANCH   1   7
HETATM    7  N   UNK N   1       0.596  -2.109   0.007  0.00  0.00    -0.193 N 
HETATM    8  C   UNK N   1       1.776  -2.910  -0.010  0.00  0.00     0.669 C 
HETATM    9  N   UNK N   1       1.654  -4.316   0.004  0.00  0.00    -0.235 N 
HETATM   10  N   UNK N   1       2.943  -2.381  -0.060  0.00  0.00    -0.235 N 
HETATM   11  H   UNK N   1       0.762  -4.733   0.014  0.00  0.00     0.174 HD
HETATM   12  H   UNK N   1       2.461  -4.881   0.004  0.00  0.00     0.174 HD
HETATM   13  H   UNK N   1       3.742  -2.954  -0.097  0.00  0.00     0.174 HD
ATOM     14  HN  UNK N   1       3.042  -1.366  -0.060  1.00  0.00     0.174 HD
HETATM   15  H   UNK N   1      -0.265  -2.587   0.020  0.00  0.00     0.184 HD
ENDBRANCH   1   7
BRANCH   4  16
HETATM   16  C   UNK N   1       0.232   3.594   0.004  0.00  0.00     0.176 C 
HETATM   17  O   UNK N   1       1.236   4.289   0.018  0.00  0.00    -0.646 OA
BRANCH  16  18
HETATM   18  O   UNK N   1      -0.981   4.183  -0.016  0.00  0.00    -0.773 OA
HETATM   19  H   UNK N   1      -1.048   5.117  -0.030  0.00  0.00     0.167 HD
ENDBRANCH  16  18
ENDBRANCH   4  16
TORSDOF 3
