REMARK  6 active torsions:
REMARK  status: ('A' for Active; 'I' for Inactive)
REMARK    1  A    between atoms: C_2  and  C_4 
REMARK    2  A    between atoms: C_4  and  C_5 
REMARK    3  A    between atoms: C_5  and  C_6 
REMARK    4  A    between atoms: C_5  and  C_9 
REMARK    5  A    between atoms: C_6  and  O_7 
REMARK       I    between atoms: C_9  and  N_11 
REMARK    6  A    between atoms: N_11  and  O_12 
ROOT
HETATM    1  C   UNK N   1       4.140   1.381  -0.079  0.00  0.00     0.178 C 
ENDROOT
BRANCH   1   2
HETATM    2  C   UNK N   1       2.910   1.982  -0.756  0.00  0.00     0.029 C 
BRANCH   2   3
HETATM    3  C   UNK N   1       1.725   2.072   0.194  0.00  0.00    -0.021 C 
HETATM    4  C   UNK N   1       0.840   3.228  -0.222  0.00  0.00     0.009 C 
HETATM    5  C   UNK N   1       0.910   0.794   0.136  0.00  0.00     0.009 C 
ENDBRANCH   2   3
ENDBRANCH   1   2
BRANCH   1   6
HETATM    6  C   UNK N   1       4.269  -0.106   0.125  0.00  0.00     0.153 C 
HETATM    7  O   UNK N   1       5.252  -0.567   0.682  0.00  0.00    -0.649 OA
BRANCH   6   8
HETATM    8  O   UNK N   1       3.309  -0.937  -0.320  0.00  0.00    -0.776 OA
HETATM    9  H   UNK N   1       2.473  -0.648  -0.629  0.00  0.00     0.167 HD
ENDBRANCH   6   8
ENDBRANCH   1   6
BRANCH   1  10
HETATM   10  C   UNK N   1       5.198   2.315   0.442  0.00  0.00     0.255 C 
HETATM   11  O   UNK N   1       4.899   3.159   1.273  0.00  0.00    -0.270 OA
HETATM   12  N   UNK N   1       6.473   2.242  -0.001  0.00  0.00    -0.237 N 
HETATM   13  H   UNK N   1       7.145   2.868   0.353  0.00  0.00     0.197 HD
BRANCH  12  14
HETATM   14  O   UNK N   1       6.839   1.332  -0.916  0.00  0.00    -0.287 OA
HETATM   15  H   UNK N   1       6.401   0.773  -1.577  0.00  0.00     0.244 HD
ENDBRANCH  12  14
ENDBRANCH   1  10
TORSDOF 6
