REMARK  22 active torsions:
REMARK  status: ('A' for Active; 'I' for Inactive)
REMARK    1  A    between atoms: C_14  and  C_5 
REMARK    2  A    between atoms: N_41  and  C_5 
REMARK    3  A    between atoms: C_15  and  C_6 
REMARK    4  A    between atoms: O_54  and  C_6 
REMARK    5  A    between atoms: C_16  and  C_7 
REMARK    6  A    between atoms: O_55  and  C_7 
REMARK    7  A    between atoms: C_19  and  C_14 
REMARK    8  A    between atoms: C_14  and  O_43 
REMARK    9  A    between atoms: C_19  and  C_15 
REMARK   10  A    between atoms: C_15  and  O_44 
REMARK   11  A    between atoms: C_19  and  O_45 
REMARK   12  A    between atoms: C_20  and  O_46 
REMARK   13  A    between atoms: C_21  and  O_47 
REMARK   14  A    between atoms: N_28  and  C_22 
REMARK   15  A    between atoms: O_48  and  C_25 
REMARK   16  A    between atoms: C_26  and  N_42 
REMARK   17  A    between atoms: P_58  and  O_50 
REMARK   18  A    between atoms: P_59  and  O_52 
REMARK   19  A    between atoms: P_58  and  O_54 
REMARK   20  A    between atoms: P_59  and  O_55 
REMARK   21  A    between atoms: P_58  and  O_57 
REMARK   22  A    between atoms: P_59  and  O_57 
ROOT
HETATM    1  O   UNK N   1       2.368   5.626   2.255  0.00  0.00    -0.631 OA
HETATM    2  P   UNK N   1       3.419   6.306   1.347  0.00  0.00     0.401 P 
ENDROOT
BRANCH   2   3
HETATM    3  O   UNK N   1       4.179   7.500   2.354  0.00  0.00    -0.307 OA
HETATM    4  H   UNK N   1       4.968   7.466   2.916  0.00  0.00     0.222 HD
ENDBRANCH   2   3
BRANCH   2   5
HETATM    5  O   UNK N   1       4.501   5.024   0.909  0.00  0.00    -0.294 OA
BRANCH   5   6
HETATM    6  C   UNK N   1       4.359   4.907  -0.472  0.00  0.00     0.215 C 
BRANCH   6   7
HETATM    7  C   UNK N   1       3.895   3.519  -0.917  0.00  0.00     0.173 C 
BRANCH   7   8
HETATM    8  C   UNK N   1       2.367   3.192  -0.991  0.00  0.00     0.179 C 
BRANCH   8   9
HETATM    9  C   UNK N   1       1.491   2.818   0.245  0.00  0.00     0.167 C 
BRANCH   9  10
HETATM   10  C   UNK N   1       1.922   1.615   1.135  0.00  0.00     0.165 C 
BRANCH  10  11
HETATM   11  N   UNK N   1       1.829   0.235   0.584  0.00  0.00    -0.327 N 
HETATM   12  C   UNK N   1       2.989  -0.469   0.365  0.00  0.00     0.063 A 
HETATM   13  C   UNK N   1       4.240   0.099   0.626  0.00  0.00     0.039 A 
HETATM   14  C   UNK N   1       2.943  -1.792  -0.131  0.00  0.00     0.060 A 
HETATM   15  C   UNK N   1       5.422  -0.591   0.367  0.00  0.00    -0.054 A 
HETATM   16  C   UNK N   1       6.722   0.091   0.626  0.00  0.00     0.049 C 
HETATM   17  C   UNK N   1       5.366  -1.896  -0.147  0.00  0.00    -0.054 A 
HETATM   18  C   UNK N   1       6.610  -2.658  -0.452  0.00  0.00     0.049 C 
HETATM   19  C   UNK N   1       4.125  -2.494  -0.383  0.00  0.00     0.039 A 
HETATM   20  N   UNK N   1       1.748  -2.382  -0.362  0.00  0.00    -0.348 N 
HETATM   21  C   UNK N   1       0.592  -1.723  -0.123  0.00  0.00     0.129 A 
ATOM     22  HN  UNK N   1       1.718  -3.336  -0.722  1.00  0.00     0.166 HD
HETATM   23  C   UNK N   1       0.616  -0.391   0.362  0.00  0.00     0.143 A 
HETATM   24  C   UNK N   1      -0.640  -2.347  -0.344  0.00  0.00     0.175 A 
HETATM   25  N   UNK N   1      -0.564   0.234   0.613  0.00  0.00    -0.292 N 
HETATM   26  C   UNK N   1      -1.766  -0.391   0.381  0.00  0.00     0.327 A 
ATOM     27  HN  UNK N   1      -0.557   1.186   0.980  1.00  0.00     0.172 HD
HETATM   28  N   UNK N   1      -1.790  -1.677  -0.095  0.00  0.00    -0.287 N 
HETATM   29  O   UNK N   1      -2.809   0.195   0.594  0.00  0.00    -0.247 OA
ATOM     30  HN  UNK N   1      -2.686  -2.134  -0.264  1.00  0.00     0.172 HD
BRANCH  24  31
HETATM   31  O   UNK N   1      -0.689  -3.611  -0.803  0.00  0.00    -0.344 OA
HETATM   32  H   UNK N   1      -1.469  -4.022  -1.122  0.00  0.00     0.219 HD
ENDBRANCH  24  31
ENDBRANCH  10  11
ENDBRANCH   9  10
BRANCH   9  33
HETATM   33  O   UNK N   1       0.188   2.607  -0.210  0.00  0.00    -0.391 OA
HETATM   34  H   UNK N   1      -0.392   3.317  -0.527  0.00  0.00     0.210 HD
ENDBRANCH   9  33
ENDBRANCH   8   9
BRANCH   8  35
HETATM   35  O   UNK N   1       1.748   4.267  -1.641  0.00  0.00    -0.390 OA
HETATM   36  H   UNK N   1       2.178   5.010  -2.091  0.00  0.00     0.210 HD
ENDBRANCH   8  35
ENDBRANCH   7   8
BRANCH   7  37
HETATM   37  O   UNK N   1       4.621   2.552  -0.244  0.00  0.00    -0.391 OA
HETATM   38  H   UNK N   1       4.288   1.772   0.228  0.00  0.00     0.210 HD
ENDBRANCH   7  37
ENDBRANCH   6   7
ENDBRANCH   5   6
ENDBRANCH   2   5
BRANCH   2  39
HETATM   39  O   UNK N   1       2.516   6.903  -0.028  0.00  0.00    -0.195 OA
BRANCH  39  40
HETATM   40  P   UNK N   1       2.970   8.551  -0.339  0.00  0.00     0.401 P 
HETATM   41  O   UNK N   1       1.800   9.509  -0.686  0.00  0.00    -0.631 OA
BRANCH  40  42
HETATM   42  O   UNK N   1       2.994   8.073  -2.001  0.00  0.00    -0.307 OA
HETATM   43  H   UNK N   1       2.769   7.928  -2.933  0.00  0.00     0.222 HD
ENDBRANCH  40  42
BRANCH  40  44
HETATM   44  O   UNK N   1       4.559   9.116  -0.705  0.00  0.00    -0.294 OA
BRANCH  44  45
HETATM   45  C   UNK N   1       5.155   9.323   0.528  0.00  0.00     0.215 C 
BRANCH  45  46
HETATM   46  C   UNK N   1       6.655   9.407   0.381  0.00  0.00     0.180 C 
HETATM   47  C   UNK N   1       7.444   8.127   0.301  0.00  0.00     0.182 C 
HETATM   48  C   UNK N   1       8.811   8.750   0.030  0.00  0.00     0.198 C 
HETATM   49  C   UNK N   1       8.405   9.972  -0.852  0.00  0.00     0.262 C 
HETATM   50  O   UNK N   1       6.995  10.034  -0.824  0.00  0.00    -0.353 OA
BRANCH  47  51
HETATM   51  O   UNK N   1       7.402   7.364   1.471  0.00  0.00    -0.390 OA
HETATM   52  H   UNK N   1       6.928   7.124   2.282  0.00  0.00     0.210 HD
ENDBRANCH  47  51
BRANCH  48  53
HETATM   53  O   UNK N   1       9.384   9.179   1.234  0.00  0.00    -0.388 OA
HETATM   54  H   UNK N   1       9.840   8.983   2.068  0.00  0.00     0.210 HD
ENDBRANCH  48  53
BRANCH  49  55
HETATM   55  N   UNK N   1       8.876  11.292  -0.392  0.00  0.00    -0.297 N 
HETATM   56  C   UNK N   1       8.032  12.321  -0.086  0.00  0.00     0.188 A 
HETATM   57  N   UNK N   1       8.706  13.445   0.256  0.00  0.00    -0.346 N 
HETATM   58  C   UNK N   1       9.995  13.095   0.157  0.00  0.00     0.122 A 
ATOM     59  HN  UNK N   1       8.320  14.350   0.527  1.00  0.00     0.167 HD
HETATM   60  C   UNK N   1      11.119  13.861   0.367  0.00  0.00     0.131 A 
HETATM   61  C   UNK N   1      10.102  11.802  -0.225  0.00  0.00     0.142 A 
HETATM   62  N   UNK N   1      12.336  13.267   0.192  0.00  0.00    -0.337 N 
HETATM   63  C   UNK N   1      12.430  11.946  -0.186  0.00  0.00     0.183 A 
ATOM     64  HN  UNK N   1      13.187  13.809   0.343  1.00  0.00     0.168 HD
HETATM   65  N   UNK N   1      11.300  11.198  -0.407  0.00  0.00    -0.336 N 
ATOM     66  HN  UNK N   1      11.361  10.223  -0.697  1.00  0.00     0.168 HD
BRANCH  60  67
HETATM   67  N   UNK N   1      11.019  15.219   0.735  0.00  0.00    -0.383 N 
HETATM   68  H   UNK N   1      11.805  15.753   0.991  0.00  0.00     0.157 HD
HETATM   69  H   UNK N   1      10.132  15.647   0.735  0.00  0.00     0.157 HD
ENDBRANCH  60  67
ENDBRANCH  49  55
ENDBRANCH  45  46
ENDBRANCH  44  45
ENDBRANCH  40  44
ENDBRANCH  39  40
ENDBRANCH   2  39
TORSDOF 22
