REMARK  13 active torsions:
REMARK  status: ('A' for Active; 'I' for Inactive)
REMARK    1  A    between atoms: C_10  and  C_8 
REMARK    2  A    between atoms: O_27  and  C_8 
REMARK    3  A    between atoms: O_29  and  C_9 
REMARK    4  A    between atoms: O_19  and  C_11 
REMARK    5  A    between atoms: C_12  and  O_20 
REMARK    6  A    between atoms: C_13  and  O_21 
REMARK    7  A    between atoms: C_14  and  N_18 
REMARK    8  A    between atoms: P_31  and  O_23 
REMARK    9  A    between atoms: P_32  and  O_25 
REMARK   10  A    between atoms: P_31  and  O_27 
REMARK   11  A    between atoms: P_32  and  O_29 
REMARK   12  A    between atoms: P_31  and  O_30 
REMARK   13  A    between atoms: P_32  and  O_30 
ROOT
HETATM    1  C   UNK N   1       3.138  -0.957  -0.647  0.00  0.00     0.180 C 
HETATM    2  C   UNK N   1       2.759   0.241   0.210  0.00  0.00     0.182 C 
HETATM    3  C   UNK N   1       1.413  -0.273   0.636  0.00  0.00     0.198 C 
HETATM    4  C   UNK N   1       1.771  -1.750   0.955  0.00  0.00     0.263 C 
HETATM    5  O   UNK N   1       2.924  -2.063   0.183  0.00  0.00    -0.353 OA
ENDROOT
BRANCH   1   6
HETATM    6  C   UNK N   1       4.530  -0.978  -1.243  0.00  0.00     0.215 C 
BRANCH   6   7
HETATM    7  O   UNK N   1       5.513  -0.580  -0.347  0.00  0.00    -0.294 OA
BRANCH   7   8
HETATM    8  P   UNK N   1       6.516   0.447  -1.324  0.00  0.00     0.401 P 
HETATM    9  O   UNK N   1       7.503  -0.478  -2.085  0.00  0.00    -0.631 OA
BRANCH   8  10
HETATM   10  O   UNK N   1       5.627   1.326  -2.535  0.00  0.00    -0.307 OA
HETATM   11  H   UNK N   1       5.804   2.000  -3.210  0.00  0.00     0.222 HD
ENDBRANCH   8  10
BRANCH   8  12
HETATM   12  O   UNK N   1       7.487   1.501  -0.353  0.00  0.00    -0.195 OA
BRANCH  12  13
HETATM   13  P   UNK N   1       6.390   2.523   0.538  0.00  0.00     0.407 P 
HETATM   14  O   UNK N   1       5.893   1.761   1.796  0.00  0.00    -0.631 OA
BRANCH  13  15
HETATM   15  O   UNK N   1       5.007   3.010  -0.390  0.00  0.00    -0.307 OA
HETATM   16  H   UNK N   1       4.856   3.816  -0.909  0.00  0.00     0.222 HD
ENDBRANCH  13  15
BRANCH  13  17
HETATM   17  O   UNK N   1       7.198   3.946   1.068  0.00  0.00    -0.254 OA
BRANCH  17  18
HETATM   18  C   UNK N   1       8.499   4.196   0.798  0.00  0.00     0.081 A 
HETATM   19  C   UNK N   1       8.909   5.521   0.626  0.00  0.00     0.037 A 
HETATM   20  C   UNK N   1      10.234   5.809   0.287  0.00  0.00     0.003 A 
HETATM   21  C   UNK N   1      11.161   4.773   0.138  0.00  0.00     0.000 A 
HETATM   22  C   UNK N   1      10.765   3.448   0.334  0.00  0.00     0.003 A 
HETATM   23  C   UNK N   1       9.438   3.160   0.658  0.00  0.00     0.037 A 
ENDBRANCH  17  18
ENDBRANCH  13  17
ENDBRANCH  12  13
ENDBRANCH   8  12
ENDBRANCH   7   8
ENDBRANCH   6   7
ENDBRANCH   1   6
BRANCH   2  24
HETATM   24  O   UNK N   1       2.672   1.428  -0.520  0.00  0.00    -0.390 OA
HETATM   25  H   UNK N   1       3.355   1.893  -1.027  0.00  0.00     0.210 HD
ENDBRANCH   2  24
BRANCH   3  26
HETATM   26  O   UNK N   1       0.872   0.419   1.722  0.00  0.00    -0.388 OA
HETATM   27  H   UNK N   1       1.100   0.985   2.476  0.00  0.00     0.210 HD
ENDBRANCH   3  26
BRANCH   4  28
HETATM   28  N   UNK N   1       0.752  -2.794   0.675  0.00  0.00    -0.280 N 
HETATM   29  C   UNK N   1       1.185  -4.079   0.849  0.00  0.00     0.103 A 
HETATM   30  C   UNK N   1       0.392  -5.167   0.509  0.00  0.00     0.073 A 
HETATM   31  C   UNK N   1      -0.867  -4.935  -0.016  0.00  0.00     0.144 A 
HETATM   32  N   UNK N   1      -1.318  -3.664  -0.153  0.00  0.00    -0.289 N 
HETATM   33  C   UNK N   1      -0.538  -2.591   0.189  0.00  0.00     0.330 A 
ATOM     34  HN  UNK N   1      -2.257  -3.504  -0.517  1.00  0.00     0.172 HD
HETATM   35  O   UNK N   1      -0.997  -1.474   0.048  0.00  0.00    -0.246 OA
BRANCH  31  36
HETATM   36  O   UNK N   1      -1.639  -5.966  -0.392  0.00  0.00    -0.346 OA
HETATM   37  H   UNK N   1      -2.533  -5.860  -0.654  0.00  0.00     0.219 HD
ENDBRANCH  31  36
ENDBRANCH   4  28
TORSDOF 13
