REMARK  5 active torsions:
REMARK  status: ('A' for Active; 'I' for Inactive)
REMARK    1  A    between atoms: C_2  and  N_1 
REMARK    2  A    between atoms: C_2  and  C_3 
REMARK    3  A    between atoms: C_2  and  C_13 
REMARK    4  A    between atoms: C_3  and  N_4 
REMARK    5  A    between atoms: C_13  and  O_14 
ROOT
HETATM    1  N   UNK N   1       1.344   0.539   0.091  0.00  0.00    -0.304 N 
HETATM    2  C   UNK N   1       1.372  -0.808  -0.097  0.00  0.00     0.143 A 
HETATM    3  C   UNK N   1       0.202  -1.560  -0.123  0.00  0.00     0.199 A 
HETATM    4  F   UNK N   1       0.260  -2.902  -0.312  0.00  0.00    -0.199 F 
HETATM    5  C   UNK N   1      -1.016  -0.912   0.044  0.00  0.00     0.289 A 
HETATM    6  O   UNK N   1      -2.058  -1.542   0.014  0.00  0.00    -0.265 OA
HETATM    7  N   UNK N   1      -1.040   0.440   0.247  0.00  0.00    -0.273 N 
HETATM    8  C   UNK N   1       0.119   1.172   0.280  0.00  0.00     0.329 A 
HETATM    9  O   UNK N   1       0.051   2.370   0.482  0.00  0.00    -0.246 OA
HETATM   10  H   UNK N   1      -1.904   0.895   0.371  0.00  0.00     0.173 HD
ENDROOT
BRANCH   1  11
HETATM   11  C   UNK N   1       2.663   1.196   0.077  0.00  0.00     0.168 C 
BRANCH  11  12
HETATM   12  C   UNK N   1       2.727   2.728   0.124  0.00  0.00     0.192 C 
BRANCH  12  13
HETATM   13  N   UNK N   1       2.091   3.291  -1.056  0.00  0.00    -0.416 N 
HETATM   14  H   UNK N   1       2.210   3.875  -1.884  0.00  0.00     0.150 HD
HETATM   15  H   UNK N   1       1.124   2.968  -1.056  0.00  0.00     0.150 HD
ENDBRANCH  12  13
BRANCH  12  16
HETATM   16  C   UNK N   1       4.157   3.206   0.164  0.00  0.00     0.164 C 
HETATM   17  O   UNK N   1       5.087   2.415   0.098  0.00  0.00    -0.648 OA
BRANCH  16  18
HETATM   18  O   UNK N   1       4.415   4.524   0.255  0.00  0.00    -0.775 OA
HETATM   19  H   UNK N   1       5.299   4.827   0.318  0.00  0.00     0.167 HD
ENDBRANCH  16  18
ENDBRANCH  12  16
ENDBRANCH  11  12
ENDBRANCH   1  11
TORSDOF 5
