REMARK  1 active torsions:
REMARK  status: ('A' for Active; 'I' for Inactive)
REMARK       I    between atoms: C_10  and  N_11 
REMARK    1  A    between atoms: C_14  and  O_15 
ROOT
HETATM    1  C   UNK N   1      -1.234   1.791  -0.000  0.00  0.00     0.158 C 
HETATM    2  N   UNK N   1      -0.802   0.406  -0.000  0.00  0.00    -0.331 N 
HETATM    3  C   UNK N   1      -1.580  -0.706   0.000  0.00  0.00     0.184 A 
HETATM    4  N   UNK N   1      -0.820  -1.839   0.000  0.00  0.00    -0.346 N 
ATOM      5  HN  UNK N   1      -1.139  -2.808   0.000  1.00  0.00     0.167 HD
HETATM    6  C   UNK N   1       0.451  -1.386  -0.000  0.00  0.00     0.130 A 
HETATM    7  C   UNK N   1       0.451  -0.041  -0.000  0.00  0.00     0.155 A 
HETATM    8  N   UNK N   1       1.588   0.693  -0.000  0.00  0.00    -0.174 N 
ATOM      9  HN  UNK N   1       1.555   1.713  -0.000  1.00  0.00     0.186 HD
HETATM   10  C   UNK N   1       2.780   0.026  -0.000  0.00  0.00     0.679 A 
HETATM   11  N   UNK N   1       3.984   0.755   0.000  0.00  0.00    -0.234 N 
HETATM   12  N   UNK N   1       2.808  -1.349   0.000  0.00  0.00    -0.168 N 
ATOM     13  HN  UNK N   1       3.706  -1.833   0.000  1.00  0.00     0.186 HD
HETATM   14  C   UNK N   1       1.650  -2.078  -0.000  0.00  0.00     0.186 A 
HETATM   15  H   UNK N   1       4.847   0.281   0.000  0.00  0.00     0.174 HD
HETATM   16  H   UNK N   1       3.964   1.740   0.000  0.00  0.00     0.174 HD
ENDROOT
BRANCH  14  17
HETATM   17  O   UNK N   1       1.684  -3.421   0.000  0.00  0.00    -0.344 OA
HETATM   18  H   UNK N   1       0.885  -3.911   0.000  0.00  0.00     0.219 HD
ENDBRANCH  14  17
TORSDOF 1
