REMARK  3 active torsions:
REMARK  status: ('A' for Active; 'I' for Inactive)
REMARK       I    between atoms: N_1  and  C_2 
REMARK    1  A    between atoms: C_5  and  O_6 
REMARK    2  A    between atoms: C_7  and  N_8 
REMARK    3  A    between atoms: C_9  and  O_10 
ROOT
HETATM    1  N   UNK N   1       3.186  -1.048  -0.000  0.00  0.00    -0.234 N 
HETATM    2  C   UNK N   1       1.974  -0.333  -0.000  0.00  0.00     0.679 A 
HETATM    3  N   UNK N   1       0.792  -1.004   0.000  0.00  0.00    -0.168 N 
ATOM      4  HN  UNK N   1       0.791  -2.024   0.000  1.00  0.00     0.186 HD
HETATM    5  C   UNK N   1      -0.389  -0.332   0.000  0.00  0.00     0.186 A 
HETATM    6  C   UNK N   1      -0.391   1.064  -0.000  0.00  0.00     0.129 A 
HETATM    7  C   UNK N   1       0.832   1.734  -0.000  0.00  0.00     0.186 A 
HETATM    8  N   UNK N   1       1.990   1.025  -0.000  0.00  0.00    -0.168 N 
ATOM      9  HN  UNK N   1       2.883   1.518  -0.000  1.00  0.00     0.186 HD
HETATM   10  H   UNK N   1       3.176  -2.032  -0.000  0.00  0.00     0.174 HD
HETATM   11  H   UNK N   1       4.043  -0.564  -0.000  0.00  0.00     0.174 HD
ENDROOT
BRANCH   5  12
HETATM   12  O   UNK N   1      -1.545  -1.016   0.000  0.00  0.00    -0.344 OA
HETATM   13  H   UNK N   1      -2.361  -0.555   0.000  0.00  0.00     0.219 HD
ENDBRANCH   5  12
BRANCH   7  14
HETATM   14  O   UNK N   1       0.872   3.077   0.000  0.00  0.00    -0.344 OA
HETATM   15  H   UNK N   1       1.697   3.521   0.000  0.00  0.00     0.219 HD
ENDBRANCH   7  14
BRANCH   6  16
HETATM   16  N   UNK N   1      -1.604   1.784   0.000  0.00  0.00    -0.392 N 
HETATM   17  H   UNK N   1      -1.593   2.768   0.000  0.00  0.00     0.156 HD
HETATM   18  H   UNK N   1      -2.463   1.301   0.000  0.00  0.00     0.156 HD
ENDBRANCH   6  16
TORSDOF 3
