REMARK  6 active torsions:
REMARK  status: ('A' for Active; 'I' for Inactive)
REMARK    1  A    between atoms: Hg_2  and  S_3 
REMARK    2  A    between atoms: S_3  and  C_4 
REMARK    3  A    between atoms: C_4  and  C_5 
REMARK    4  A    between atoms: C_5  and  N_6 
REMARK    5  A    between atoms: C_5  and  C_7 
REMARK    6  A    between atoms: C_7  and  O_8 
ROOT
HETATM    1  C   UNK N   1       4.870   1.991   0.340  0.00  0.00     0.181 C 
ENDROOT
BRANCH   1   2
HETATM    2  C   UNK N   1       3.744   1.616  -0.606  0.00  0.00     0.099 C 
BRANCH   2   3
HETATM    3  S   UNK N   1       2.865   0.141  -0.007  0.00  0.00    -0.204 SA
BRANCH   3   4
HETATM    4 Hg   UNK N   1       0.872   1.453   0.101  0.00  0.00     0.138 Hg
HETATM    5  C   UNK N   1      -0.692   2.835   0.038  0.00  0.00    -0.005 C 
ENDBRANCH   3   4
ENDBRANCH   2   3
ENDBRANCH   1   2
BRANCH   1   6
HETATM    6  N   UNK N   1       5.191   3.400   0.161  0.00  0.00    -0.417 N 
HETATM    7  H   UNK N   1       6.158   3.699   0.036  0.00  0.00     0.150 HD
HETATM    8  H   UNK N   1       4.443   4.093   0.161  0.00  0.00     0.150 HD
ENDBRANCH   1   6
BRANCH   1   9
HETATM    9  C   UNK N   1       6.084   1.144   0.072  0.00  0.00     0.163 C 
HETATM   10  O   UNK N   1       6.011  -0.076   0.179  0.00  0.00    -0.648 OA
BRANCH   9  11
HETATM   11  O   UNK N   1       7.254   1.706  -0.279  0.00  0.00    -0.775 OA
HETATM   12  H   UNK N   1       8.000   1.195  -0.523  0.00  0.00     0.167 HD
ENDBRANCH   9  11
ENDBRANCH   1   9
TORSDOF 6
