REMARK  14 active torsions:
REMARK  status: ('A' for Active; 'I' for Inactive)
REMARK    1  A    between atoms: C_3  and  C_2 
REMARK    2  A    between atoms: C_7  and  C_2 
REMARK    3  A    between atoms: S_33  and  C_3 
REMARK    4  A    between atoms: C_8  and  C_4 
REMARK    5  A    between atoms: O_31  and  C_4 
REMARK    6  A    between atoms: C_14  and  C_7 
REMARK    7  A    between atoms: C_7  and  N_16 
REMARK    8  A    between atoms: C_10  and  O_26 
REMARK    9  A    between atoms: C_11  and  O_27 
REMARK   10  A    between atoms: N_17  and  C_12 
REMARK   11  A    between atoms: O_28  and  C_14 
REMARK   12  A    between atoms: C_15  and  N_25 
REMARK   13  A    between atoms: N_23  and  S_34 
REMARK   14  A    between atoms: S_34  and  O_31 
ROOT
HETATM    1  C   UNK N   1       4.979  10.753  -1.064  0.00  0.00     0.180 C 
HETATM    2  C   UNK N   1       6.053  10.081  -0.225  0.00  0.00     0.182 C 
HETATM    3  C   UNK N   1       7.066  11.200  -0.067  0.00  0.00     0.198 C 
HETATM    4  C   UNK N   1       6.274  12.444  -0.523  0.00  0.00     0.258 C 
HETATM    5  O   UNK N   1       4.909  12.070  -0.554  0.00  0.00    -0.354 OA
ENDROOT
BRANCH   1   6
HETATM    6  C   UNK N   1       3.626  10.042  -1.005  0.00  0.00     0.226 C 
BRANCH   6   7
HETATM    7  O   UNK N   1       3.789   8.647  -1.193  0.00  0.00    -0.257 OA
BRANCH   7   8
HETATM    8  S   UNK N   1       2.988   7.500  -0.085  0.00  0.00     0.363 S 
HETATM    9  O   UNK N   1       4.517   7.360  -0.119  0.00  0.00    -0.175 OA
HETATM   10  O   UNK N   1       3.580   7.211   1.304  0.00  0.00    -0.175 OA
BRANCH   8  11
HETATM   11  N   UNK N   1       2.538   8.891   0.915  0.00  0.00    -0.243 N 
HETATM   12  C   UNK N   1       1.348   9.383   1.081  0.00  0.00     0.149 C 
ATOM     13  HN  UNK N   1       3.297   9.356   1.414  1.00  0.00     0.182 HD
BRANCH  12  14
HETATM   14  C   UNK N   1       0.060   8.826   0.471  0.00  0.00     0.150 C 
BRANCH  14  15
HETATM   15  C   UNK N   1      -0.532   9.872  -0.470  0.00  0.00     0.043 C 
BRANCH  15  16
HETATM   16  C   UNK N   1      -1.868   9.440  -1.062  0.00  0.00     0.076 C 
BRANCH  16  17
HETATM   17  S   UNK N   1      -3.232  10.292  -0.220  0.00  0.00    -0.173 SA
HETATM   18  C   UNK N   1      -3.919   8.741   0.423  0.00  0.00     0.089 C 
ENDBRANCH  16  17
ENDBRANCH  15  16
ENDBRANCH  14  15
BRANCH  14  19
HETATM   19  N   UNK N   1       0.213   7.572  -0.247  0.00  0.00    -0.419 N 
HETATM   20  H   UNK N   1      -0.496   7.038  -0.750  0.00  0.00     0.150 HD
HETATM   21  H   UNK N   1       1.152   7.172  -0.247  0.00  0.00     0.150 HD
ENDBRANCH  14  19
ENDBRANCH  12  14
BRANCH  12  22
HETATM   22  O   UNK N   1       1.229  10.487   1.845  0.00  0.00    -0.347 OA
HETATM   23  H   UNK N   1       1.853  10.942   2.376  0.00  0.00     0.219 HD
ENDBRANCH  12  22
ENDBRANCH   8  11
ENDBRANCH   7   8
ENDBRANCH   6   7
ENDBRANCH   1   6
BRANCH   2  24
HETATM   24  O   UNK N   1       5.508   9.764   1.028  0.00  0.00    -0.390 OA
HETATM   25  H   UNK N   1       5.130   9.981   1.894  0.00  0.00     0.210 HD
ENDBRANCH   2  24
BRANCH   3  26
HETATM   26  O   UNK N   1       7.488  11.280   1.268  0.00  0.00    -0.388 OA
HETATM   27  H   UNK N   1       7.682  11.056   2.191  0.00  0.00     0.210 HD
ENDBRANCH   3  26
BRANCH   4  28
HETATM   28  N   UNK N   1       6.526  13.616   0.301  0.00  0.00    -0.321 N 
HETATM   29  C   UNK N   1       5.713  14.777   0.130  0.00  0.00     0.183 C 
HETATM   30  N   UNK N   1       6.386  15.867   0.177  0.00  0.00    -0.349 N 
HETATM   31  C   UNK N   1       7.735  15.513   0.315  0.00  0.00     0.097 C 
ATOM     32  HN  UNK N   1       6.011  16.814   0.124  1.00  0.00     0.166 HD
HETATM   33  C   UNK N   1       8.808  16.284   0.074  0.00  0.00     0.126 C 
HETATM   34  C   UNK N   1       7.887  14.072   0.566  0.00  0.00     0.242 C 
HETATM   35  N   UNK N   1      10.082  15.634  -0.081  0.00  0.00    -0.337 N 
HETATM   36  C   UNK N   1      10.142  14.352  -0.300  0.00  0.00     0.179 C 
ATOM     37  HN  UNK N   1      10.942  16.180  -0.019  1.00  0.00     0.168 HD
HETATM   38  N   UNK N   1       8.934  13.583  -0.300  0.00  0.00    -0.359 N 
HETATM   39  H   UNK N   1       8.825  12.776  -0.853  0.00  0.00     0.162 HD
BRANCH  33  40
HETATM   40  N   UNK N   1       8.674  17.660  -0.206  0.00  0.00    -0.384 N 
HETATM   41  H   UNK N   1       9.458  18.221  -0.402  0.00  0.00     0.157 HD
HETATM   42  H   UNK N   1       7.777  18.067  -0.206  0.00  0.00     0.157 HD
ENDBRANCH  33  40
ENDBRANCH   4  28
TORSDOF 14
