REMARK  10 active torsions:
REMARK  status: ('A' for Active; 'I' for Inactive)
REMARK    1  A    between atoms: C_6  and  C_4 
REMARK    2  A    between atoms: C_8  and  C_4 
REMARK    3  A    between atoms: C_14  and  C_6 
REMARK    4  A    between atoms: N_24  and  C_8 
REMARK       I    between atoms: N_29  and  C_11 
REMARK    5  A    between atoms: C_12  and  O_31 
REMARK    6  A    between atoms: C_17  and  C_14 
REMARK    7  A    between atoms: C_14  and  N_25 
REMARK    8  A    between atoms: C_15  and  C_18 
REMARK    9  A    between atoms: C_19  and  C_17 
REMARK   10  A    between atoms: C_18  and  O_33 
REMARK       I    between atoms: N_23  and  C_20 
REMARK       I    between atoms: N_24  and  C_20 
ROOT
HETATM    1  C   UNK N   1       2.081   3.126  -1.071  0.00  0.00     0.160 C 
ENDROOT
BRANCH   1   2
HETATM    2  C   UNK N   1       3.585   3.085  -1.438  0.00  0.00     0.035 C 
BRANCH   2   3
HETATM    3  C   UNK N   1       4.455   4.175  -0.820  0.00  0.00     0.023 C 
BRANCH   3   4
HETATM    4  C   UNK N   1       5.931   3.891  -1.036  0.00  0.00     0.138 C 
BRANCH   4   5
HETATM    5  N   UNK N   1       6.393   2.990  -0.012  0.00  0.00    -0.227 N 
HETATM    6  C   UNK N   1       7.740   2.950   0.424  0.00  0.00     0.665 C 
HETATM    7  N   UNK N   1       8.623   3.716  -0.103  0.00  0.00    -0.235 N 
HETATM    8  N   UNK N   1       8.108   2.073   1.468  0.00  0.00    -0.235 N 
HETATM    9  H   UNK N   1       9.471   3.424  -0.508  0.00  0.00     0.174 HD
ATOM     10  HN  UNK N   1       8.428   4.717  -0.103  1.00  0.00     0.174 HD
HETATM   11  H   UNK N   1       7.706   1.546   2.196  0.00  0.00     0.174 HD
HETATM   12  H   UNK N   1       9.084   1.949   1.468  0.00  0.00     0.174 HD
HETATM   13  H   UNK N   1       5.745   2.377   0.404  0.00  0.00     0.177 HD
ENDBRANCH   4   5
ENDBRANCH   3   4
ENDBRANCH   2   3
ENDBRANCH   1   2
BRANCH   1  14
HETATM   14  C   UNK N   1       1.571   2.217   0.036  0.00  0.00     0.205 C 
HETATM   15  O   UNK N   1       0.365   2.087   0.186  0.00  0.00    -0.288 OA
BRANCH  14  16
HETATM   16  C   UNK N   1       2.472   1.221   0.607  0.00  0.00     0.123 A 
HETATM   17  N   UNK N   1       2.399  -0.079   0.209  0.00  0.00    -0.346 N 
HETATM   18  C   UNK N   1       3.594  -0.731   0.394  0.00  0.00     0.050 A 
ATOM     19  HN  UNK N   1       1.562  -0.515  -0.179  1.00  0.00     0.167 HD
HETATM   20  C   UNK N   1       3.848  -2.035  -0.017  0.00  0.00     0.031 A 
HETATM   21  C   UNK N   1       4.615   0.043   0.939  0.00  0.00     0.033 A 
HETATM   22  C   UNK N   1       5.153  -2.540   0.132  0.00  0.00     0.002 A 
HETATM   23  C   UNK N   1       6.177  -1.740   0.687  0.00  0.00     0.002 A 
HETATM   24  C   UNK N   1       5.909  -0.426   1.099  0.00  0.00     0.021 A 
HETATM   25  S   UNK N   1       3.996   1.537   1.186  0.00  0.00    -0.067 SA
ENDBRANCH  14  16
ENDBRANCH   1  14
BRANCH   1  26
HETATM   26  N   UNK N   1       1.553   4.463  -0.989  0.00  0.00    -0.361 N 
HETATM   27  C   UNK N   1       1.733   5.321  -0.045  0.00  0.00     0.135 C 
ATOM     28  HN  UNK N   1       0.969   4.766  -1.768  1.00  0.00     0.162 HD
BRANCH  27  29
HETATM   29  C   UNK N   1       1.110   6.676  -0.227  0.00  0.00     0.164 C 
HETATM   30  C   UNK N   1       1.709   7.737   0.686  0.00  0.00     0.067 C 
HETATM   31  C   UNK N   1       0.595   8.765   0.741  0.00  0.00     0.138 C 
HETATM   32  C   UNK N   1      -0.655   7.911   0.846  0.00  0.00     0.158 C 
HETATM   33  N   UNK N   1      -0.307   6.737   0.085  0.00  0.00    -0.338 N 
HETATM   34  C   UNK N   1      -1.269   5.848  -0.319  0.00  0.00     0.216 C 
HETATM   35  C   UNK N   1      -2.701   6.041   0.057  0.00  0.00     0.117 C 
HETATM   36  O   UNK N   1      -0.978   4.868  -0.990  0.00  0.00    -0.274 OA
BRANCH  31  37
HETATM   37  O   UNK N   1       0.724   9.621   1.833  0.00  0.00    -0.394 OA
HETATM   38  H   UNK N   1       1.285   9.841   2.592  0.00  0.00     0.210 HD
ENDBRANCH  31  37
ENDBRANCH  27  29
BRANCH  27  39
HETATM   39  O   UNK N   1       2.499   5.035   1.031  0.00  0.00    -0.348 OA
HETATM   40  H   UNK N   1       2.594   4.476   1.777  0.00  0.00     0.219 HD
ENDBRANCH  27  39
ENDBRANCH   1  26
TORSDOF 10
