REMARK  1 active torsions:
REMARK  status: ('A' for Active; 'I' for Inactive)
REMARK    1  A    between atoms: C_2  and  C_4 
ROOT
HETATM    1  C   UNK N   1       0.580   1.177   0.000  0.00  0.00     0.082 A 
HETATM    2  N   UNK N   1       1.589   0.403  -0.000  0.00  0.00    -0.388 N 
ATOM      3  HN  UNK N   1       2.553   0.736  -0.000  1.00  0.00     0.159 HD
HETATM    4  C   UNK N   1       1.235  -0.984  -0.000  0.00  0.00     0.120 A 
HETATM    5  C   UNK N   1      -0.298  -0.992   0.000  0.00  0.00     0.026 A 
HETATM    6  C   UNK N   1      -0.726   0.478   0.000  0.00  0.00     0.065 A 
ENDROOT
BRANCH   1   7
HETATM    7  C   UNK N   1       0.717   2.644   0.000  0.00  0.00     0.222 C 
HETATM    8  O   UNK N   1      -0.379   3.424   0.000  0.00  0.00    -0.643 OA
HETATM    9  O   UNK N   1       1.825   3.156   0.000  0.00  0.00    -0.643 OA
ENDBRANCH   1   7
TORSDOF 1
