REMARK  5 active torsions:
REMARK  status: ('A' for Active; 'I' for Inactive)
REMARK    1  A    between atoms: C_4  and  O_8 
REMARK    2  A    between atoms: C_5  and  O_9 
REMARK    3  A    between atoms: C_7  and  C_6 
REMARK    4  A    between atoms: O_11  and  C_6 
REMARK    5  A    between atoms: C_7  and  O_12 
ROOT
HETATM    1  C   UNK N   1       1.742  -0.739   0.613  0.00  0.00     0.006 C 
HETATM    2  C   UNK N   1       1.857   0.600   0.662  0.00  0.00     0.020 C 
HETATM    3  C   UNK N   1      -0.188   0.811  -0.776  0.00  0.00     0.088 C 
HETATM    4  C   UNK N   1       0.509  -1.453   0.101  0.00  0.00     0.169 C 
HETATM    5  C   UNK N   1      -0.679  -0.510  -0.181  0.00  0.00     0.154 C 
HETATM    6  C   UNK N   1       0.759   1.534   0.207  0.00  0.00     0.162 C 
ENDROOT
BRANCH   6   7
HETATM    7  C   UNK N   1       1.301   2.779  -0.448  0.00  0.00     0.180 C 
HETATM    8  O   UNK N   1       0.532   3.658  -0.803  0.00  0.00    -0.648 OA
BRANCH   7   9
HETATM    9  O   UNK N   1       2.628   2.954  -0.615  0.00  0.00    -0.774 OA
HETATM   10  H   UNK N   1       3.194   2.216  -0.731  0.00  0.00     0.167 HD
ENDBRANCH   7   9
ENDBRANCH   6   7
BRANCH   6  11
HETATM   11  O   UNK N   1       0.052   1.934   1.344  0.00  0.00    -0.375 OA
HETATM   12  H   UNK N   1       0.047   2.498   2.133  0.00  0.00     0.211 HD
ENDBRANCH   6  11
BRANCH   5  13
HETATM   13  O   UNK N   1      -1.379  -0.252   1.000  0.00  0.00    -0.393 OA
HETATM   14  H   UNK N   1      -1.467   0.258   1.820  0.00  0.00     0.210 HD
ENDBRANCH   5  13
BRANCH   4  15
HETATM   15  O   UNK N   1       0.863  -2.127  -1.069  0.00  0.00    -0.389 OA
HETATM   16  H   UNK N   1       0.580  -2.574  -1.881  0.00  0.00     0.210 HD
ENDBRANCH   4  15
TORSDOF 5
