REMARK  6 active torsions:
REMARK  status: ('A' for Active; 'I' for Inactive)
REMARK    1  A    between atoms: C_3  and  C_1 
REMARK    2  A    between atoms: O_19  and  C_1 
REMARK    3  A    between atoms: C_5  and  O_20 
REMARK    4  A    between atoms: C_6  and  O_21 
REMARK    5  A    between atoms: N_12  and  C_8 
REMARK    6  A    between atoms: C_10  and  N_18 
ROOT
HETATM    1  C   UNK N   1       4.642   1.819   0.314  0.00  0.00     0.183 A 
HETATM    2  C   UNK N   1       2.219   3.059   0.134  0.00  0.00     0.065 A 
HETATM    3  C   UNK N   1       0.773   3.437   0.055  0.00  0.00     0.207 A 
HETATM    4  C   UNK N   1       3.376   3.827   0.223  0.00  0.00     0.112 A 
HETATM    5  C   UNK N   1       2.308   1.726   0.155  0.00  0.00     0.138 A 
HETATM    6  I   UNK N   1       0.331   4.650  -1.647  0.00  0.00    -0.055 I 
HETATM    7  N   UNK N   1       4.578   3.187   0.305  0.00  0.00    -0.338 N 
ATOM      8  HN  UNK N   1       5.438   3.733   0.360  1.00  0.00     0.168 HD
HETATM    9  N   UNK N   1       3.496   1.079   0.251  0.00  0.00    -0.337 N 
ATOM     10  HN  UNK N   1       3.533   0.060   0.275  1.00  0.00     0.168 HD
HETATM   11  N   UNK N   1       0.042   2.137  -0.033  0.00  0.00    -0.311 N 
HETATM   12  N   UNK N   1       1.040   1.163   0.088  0.00  0.00    -0.246 N 
HETATM   13  H   UNK N   1      -0.961   1.992  -0.154  0.00  0.00     0.182 HD
ENDROOT
BRANCH  12  14
HETATM   14  C   UNK N   1       0.707  -0.220   0.402  0.00  0.00     0.277 C 
HETATM   15  C   UNK N   1       1.451  -1.257  -0.420  0.00  0.00     0.200 C 
HETATM   16  C   UNK N   1       0.559  -2.478  -0.273  0.00  0.00     0.182 C 
HETATM   17  C   UNK N   1      -0.771  -1.866   0.199  0.00  0.00     0.179 C 
HETATM   18  O   UNK N   1      -0.652  -0.464   0.112  0.00  0.00    -0.352 OA
BRANCH  15  19
HETATM   19  O   UNK N   1       2.757  -1.497   0.020  0.00  0.00    -0.388 OA
HETATM   20  H   UNK N   1       3.066  -2.364   0.325  0.00  0.00     0.210 HD
ENDBRANCH  15  19
BRANCH  16  21
HETATM   21  O   UNK N   1       1.028  -3.367   0.701  0.00  0.00    -0.390 OA
HETATM   22  H   UNK N   1       0.657  -3.956   1.376  0.00  0.00     0.210 HD
ENDBRANCH  16  21
BRANCH  17  23
HETATM   23  C   UNK N   1      -1.961  -2.372  -0.603  0.00  0.00     0.198 C 
BRANCH  23  24
HETATM   24  O   UNK N   1      -2.147  -3.738  -0.375  0.00  0.00    -0.398 OA
HETATM   25  H   UNK N   1      -3.032  -4.101  -0.217  0.00  0.00     0.209 HD
ENDBRANCH  23  24
ENDBRANCH  17  23
ENDBRANCH  12  14
BRANCH   4  26
HETATM   26  N   UNK N   1       3.316   5.235   0.240  0.00  0.00    -0.385 N 
HETATM   27  H   UNK N   1       4.147   5.763   0.252  0.00  0.00     0.157 HD
HETATM   28  H   UNK N   1       2.443   5.691   0.240  0.00  0.00     0.157 HD
ENDBRANCH   4  26
TORSDOF 6
