REMARK  14 active torsions:
REMARK  status: ('A' for Active; 'I' for Inactive)
REMARK    1  A    between atoms: C_2  and  N_3 
REMARK    2  A    between atoms: C_2  and  C_4 
REMARK    3  A    between atoms: C_4  and  C_5 
REMARK    4  A    between atoms: C_4  and  N_13 
REMARK    5  A    between atoms: C_5  and  C_6 
REMARK    6  A    between atoms: C_6  and  C_7 
REMARK    7  A    between atoms: C_7  and  C_8 
REMARK    8  A    between atoms: C_8  and  C_9 
REMARK    9  A    between atoms: C_9  and  C_10 
REMARK   10  A    between atoms: C_10  and  O_11 
REMARK       I    between atoms: N_13  and  C_14 
REMARK   11  A    between atoms: C_14  and  O_16 
REMARK   12  A    between atoms: O_16  and  P_17 
REMARK   13  A    between atoms: P_17  and  O_18 
REMARK   14  A    between atoms: P_17  and  O_19 
ROOT
HETATM    1  C   UNK N   1      10.167  -3.694   0.978  0.00  0.00     0.108 C 
ENDROOT
BRANCH   1   2
HETATM    2  C   UNK N   1       9.891  -2.567  -0.043  0.00  0.00     0.092 C 
HETATM    3  C   UNK N   1       8.534  -1.934   0.215  0.00  0.00     0.033 C 
BRANCH   2   4
HETATM    4  N   UNK N   1      10.874  -1.507   0.102  0.00  0.00    -0.424 N 
HETATM    5  H   UNK N   1      11.863  -1.732   0.204  0.00  0.00     0.150 HD
HETATM    6  H   UNK N   1      10.572  -0.532   0.102  0.00  0.00     0.150 HD
ENDBRANCH   2   4
ENDBRANCH   1   2
BRANCH   1   7
HETATM    7  C   UNK N   1       8.988  -4.632   1.259  0.00  0.00     0.027 C 
BRANCH   7   8
HETATM    8  C   UNK N   1       8.605  -5.497   0.072  0.00  0.00     0.002 C 
BRANCH   8   9
HETATM    9  C   UNK N   1       7.100  -5.435  -0.126  0.00  0.00     0.001 C 
BRANCH   9  10
HETATM   10  C   UNK N   1       6.753  -4.230  -0.984  0.00  0.00     0.010 C 
BRANCH  10  11
HETATM   11  C   UNK N   1       5.248  -4.060  -1.106  0.00  0.00     0.110 C 
BRANCH  11  12
HETATM   12  C   UNK N   1       4.687  -3.321   0.067  0.00  0.00     0.139 C 
HETATM   13  O   UNK N   1       5.021  -2.167   0.285  0.00  0.00    -0.650 OA
BRANCH  12  14
HETATM   14  O   UNK N   1       3.789  -3.922   0.867  0.00  0.00    -0.776 OA
HETATM   15  H   UNK N   1       3.113  -3.589   1.425  0.00  0.00     0.167 HD
ENDBRANCH  12  14
ENDBRANCH  11  12
ENDBRANCH  10  11
ENDBRANCH   9  10
ENDBRANCH   8   9
ENDBRANCH   7   8
ENDBRANCH   1   7
BRANCH   1  16
HETATM   16  N   UNK N   1      11.417  -4.448   0.881  0.00  0.00    -0.330 N 
HETATM   17  C   UNK N   1      12.509  -4.214   0.099  0.00  0.00     0.369 C 
HETATM   18  O   UNK N   1      12.523  -3.309  -0.715  0.00  0.00    -0.238 OA
HETATM   19  H   UNK N   1      11.478  -5.238   1.465  0.00  0.00     0.165 HD
BRANCH  17  20
HETATM   20  O   UNK N   1      13.635  -4.961   0.326  0.00  0.00    -0.202 OA
BRANCH  20  21
HETATM   21  P   UNK N   1      15.299  -4.537  -0.013  0.00  0.00     0.399 P 
HETATM   22  O   UNK N   1      14.894  -3.376   0.940  0.00  0.00    -0.631 OA
BRANCH  21  23
HETATM   23  O   UNK N   1      15.568  -3.037  -0.844  0.00  0.00    -0.307 OA
HETATM   24  H   UNK N   1      16.369  -2.748  -1.308  0.00  0.00     0.222 HD
ENDBRANCH  21  23
BRANCH  21  25
HETATM   25  O   UNK N   1      14.609  -4.537  -1.607  0.00  0.00    -0.307 OA
HETATM   26  H   UNK N   1      14.417  -4.203  -2.498  0.00  0.00     0.222 HD
ENDBRANCH  21  25
ENDBRANCH  20  21
ENDBRANCH  17  20
ENDBRANCH   1  16
TORSDOF 14
