REMARK  11 active torsions:
REMARK  status: ('A' for Active; 'I' for Inactive)
REMARK    1  A    between atoms: C_3  and  C_2 
REMARK    2  A    between atoms: C_5  and  C_2 
REMARK    3  A    between atoms: O_13  and  C_3 
REMARK    4  A    between atoms: C_5  and  C_4 
REMARK    5  A    between atoms: C_5  and  O_7 
REMARK    6  A    between atoms: P_15  and  O_8 
REMARK    7  A    between atoms: P_15  and  O_9 
REMARK    8  A    between atoms: P_16  and  O_11 
REMARK    9  A    between atoms: P_16  and  O_13 
REMARK   10  A    between atoms: P_15  and  O_14 
REMARK   11  A    between atoms: P_16  and  O_14 
ROOT
HETATM    1  O   UNK N   1       0.146   0.353  -1.339  0.00  0.00    -0.631 OA
HETATM    2  P   UNK N   1       0.141  -0.222   0.102  0.00  0.00     0.401 P 
ENDROOT
BRANCH   2   3
HETATM    3  O   UNK N   1       0.542  -1.911  -0.013  0.00  0.00    -0.307 OA
HETATM    4  H   UNK N   1      -0.162  -2.575  -0.077  0.00  0.00     0.222 HD
ENDBRANCH   2   3
BRANCH   2   5
HETATM    5  O   UNK N   1      -1.477   0.035   0.691  0.00  0.00    -0.297 OA
BRANCH   5   6
HETATM    6  C   UNK N   1      -1.817  -1.112   1.406  0.00  0.00     0.183 C 
BRANCH   6   7
HETATM    7  C   UNK N   1      -3.303  -1.421   1.236  0.00  0.00     0.065 C 
BRANCH   7   8
HETATM    8  C   UNK N   1      -3.688  -1.876  -0.177  0.00  0.00     0.065 C 
HETATM    9  C   UNK N   1      -3.539  -0.735  -1.168  0.00  0.00     0.046 C 
BRANCH   8  10
HETATM   10  C   UNK N   1      -5.148  -2.310  -0.193  0.00  0.00     0.122 C 
HETATM   11 Br   UNK N   1      -5.489  -3.842   0.955  0.00  0.00    -0.093 Br
ENDBRANCH   8  10
BRANCH   8  12
HETATM   12  O   UNK N   1      -2.881  -2.941  -0.579  0.00  0.00    -0.389 OA
HETATM   13  H   UNK N   1      -3.241  -3.797  -0.859  0.00  0.00     0.210 HD
ENDBRANCH   8  12
ENDBRANCH   7   8
ENDBRANCH   6   7
ENDBRANCH   5   6
ENDBRANCH   2   5
BRANCH   2  14
HETATM   14  O   UNK N   1       1.261   0.681   1.098  0.00  0.00    -0.195 OA
BRANCH  14  15
HETATM   15  P   UNK N   1       2.740   0.933   0.205  0.00  0.00     0.399 P 
HETATM   16  O   UNK N   1       2.424   1.731  -1.088  0.00  0.00    -0.631 OA
BRANCH  15  17
HETATM   17  O   UNK N   1       3.816   1.934   1.127  0.00  0.00    -0.307 OA
HETATM   18  H   UNK N   1       4.602   1.693   1.643  0.00  0.00     0.222 HD
ENDBRANCH  15  17
BRANCH  15  19
HETATM   19  O   UNK N   1       3.528  -0.547  -0.243  0.00  0.00    -0.307 OA
HETATM   20  H   UNK N   1       3.032  -1.342  -0.494  0.00  0.00     0.222 HD
ENDBRANCH  15  19
ENDBRANCH  14  15
ENDBRANCH   2  14
TORSDOF 11
