REMARK  7 active torsions:
REMARK  status: ('A' for Active; 'I' for Inactive)
REMARK    1  A    between atoms: C_2  and  C_1 
REMARK    2  A    between atoms: O_12  and  C_1 
REMARK    3  A    between atoms: C_3  and  O_13 
REMARK    4  A    between atoms: C_4  and  O_14 
REMARK    5  A    between atoms: C_5  and  O_15 
REMARK    6  A    between atoms: O_17  and  C_7 
REMARK    7  A    between atoms: O_18  and  N_11 
ROOT
HETATM    1  C   UNK N   1       2.759  -0.726   0.217  0.00  0.00     0.180 C 
HETATM    2  C   UNK N   1       3.721   0.473   0.120  0.00  0.00     0.180 C 
HETATM    3  C   UNK N   1       2.952   1.643  -0.514  0.00  0.00     0.183 C 
HETATM    4  C   UNK N   1       1.678   1.939   0.295  0.00  0.00     0.215 C 
HETATM    5  C   UNK N   1       0.006   0.186  -0.671  0.00  0.00     0.310 A 
HETATM    6  C   UNK N   1      -1.379   0.683   0.955  0.00  0.00     0.249 A 
HETATM    7  C   UNK N   1       0.851   0.642   0.522  0.00  0.00     0.252 A 
HETATM    8  N   UNK N   1      -0.232   0.926   1.473  0.00  0.00    -0.312 N 
ATOM      9  HN  UNK N   1      -0.089   1.272   2.422  1.00  0.00     0.166 HD
HETATM   10  N   UNK N   1      -1.285   0.223  -0.349  0.00  0.00    -0.147 N 
HETATM   11  O   UNK N   1       0.413  -0.172  -1.765  0.00  0.00    -0.265 OA
HETATM   12  O   UNK N   1       1.651  -0.413   1.051  0.00  0.00    -0.340 OA
ENDROOT
BRANCH   4  13
HETATM   13  O   UNK N   1       2.038   2.471   1.538  0.00  0.00    -0.387 OA
HETATM   14  H   UNK N   1       2.482   2.439   2.399  0.00  0.00     0.210 HD
ENDBRANCH   4  13
BRANCH   3  15
HETATM   15  O   UNK N   1       3.763   2.780  -0.581  0.00  0.00    -0.390 OA
HETATM   16  H   UNK N   1       4.727   2.687  -0.627  0.00  0.00     0.210 HD
ENDBRANCH   3  15
BRANCH  10  17
HETATM   17  O   UNK N   1      -2.308  -0.129  -1.140  0.00  0.00    -0.277 OA
HETATM   18  H   UNK N   1      -2.900   0.384  -1.712  0.00  0.00     0.245 HD
ENDBRANCH  10  17
BRANCH   6  19
HETATM   19  O   UNK N   1      -2.539   0.859   1.615  0.00  0.00    -0.331 OA
HETATM   20  H   UNK N   1      -2.837   1.619   2.074  0.00  0.00     0.221 HD
ENDBRANCH   6  19
BRANCH   1  21
HETATM   21  C   UNK N   1       3.459  -1.953   0.789  0.00  0.00     0.198 C 
BRANCH  21  22
HETATM   22  O   UNK N   1       4.434  -2.418  -0.096  0.00  0.00    -0.398 OA
HETATM   23  H   UNK N   1       4.493  -3.166  -0.711  0.00  0.00     0.209 HD
ENDBRANCH  21  22
ENDBRANCH   1  21
BRANCH   2  24
HETATM   24  O   UNK N   1       4.189   0.815   1.395  0.00  0.00    -0.390 OA
HETATM   25  H   UNK N   1       4.556   0.653   2.278  0.00  0.00     0.210 HD
ENDBRANCH   2  24
TORSDOF 7
