REMARK  4 active torsions:
REMARK  status: ('A' for Active; 'I' for Inactive)
REMARK    1  A    between atoms: C_2  and  O_3 
REMARK    2  A    between atoms: C_2  and  C_4 
REMARK    3  A    between atoms: C_4  and  N_5 
REMARK    4  A    between atoms: C_16  and  N_17 
ROOT
HETATM    1  N   UNK N   1      -0.347   0.146   0.000  0.00  0.00    -0.325 N 
HETATM    2  C   UNK N   1      -1.067  -1.009  -0.000  0.00  0.00     0.185 A 
HETATM    3  N   UNK N   1      -0.251  -2.102  -0.000  0.00  0.00    -0.346 N 
ATOM      4  HN  UNK N   1      -0.521  -3.086  -0.000  1.00  0.00     0.167 HD
HETATM    5  C   UNK N   1       0.992  -1.585  -0.000  0.00  0.00     0.122 A 
HETATM    6  C   UNK N   1       0.926  -0.242   0.000  0.00  0.00     0.140 A 
HETATM    7  N   UNK N   1       2.027   0.548   0.000  0.00  0.00    -0.336 N 
ATOM      8  HN  UNK N   1       1.945   1.564   0.000  1.00  0.00     0.168 HD
HETATM    9  C   UNK N   1       3.251  -0.062   0.000  0.00  0.00     0.183 A 
HETATM   10  N   UNK N   1       3.345  -1.433  -0.000  0.00  0.00    -0.337 N 
ATOM     11  HN  UNK N   1       4.266  -1.872  -0.000  1.00  0.00     0.168 HD
HETATM   12  C   UNK N   1       2.225  -2.216  -0.000  0.00  0.00     0.131 A 
ENDROOT
BRANCH   1  13
HETATM   13  C   UNK N   1      -0.778   1.543   0.002  0.00  0.00     0.162 C 
BRANCH  13  14
HETATM   14  C   UNK N   1      -2.282   1.783  -0.006  0.00  0.00     0.132 C 
HETATM   15  C   UNK N   1      -2.825   3.195   0.002  0.00  0.00     0.041 C 
BRANCH  14  16
HETATM   16  O   UNK N   1      -3.195   0.729   0.003  0.00  0.00    -0.394 OA
HETATM   17  H   UNK N   1      -4.147   0.913   0.009  0.00  0.00     0.210 HD
ENDBRANCH  14  16
ENDBRANCH  13  14
ENDBRANCH   1  13
BRANCH  12  18
HETATM   18  N   UNK N   1       2.330  -3.621  -0.000  0.00  0.00    -0.383 N 
HETATM   19  H   UNK N   1       1.517  -4.176  -0.000  0.00  0.00     0.157 HD
HETATM   20  H   UNK N   1       3.218  -4.048  -0.000  0.00  0.00     0.157 HD
ENDBRANCH  12  18
TORSDOF 4
