REMARK  4 active torsions:
REMARK  status: ('A' for Active; 'I' for Inactive)
REMARK    1  A    between atoms: C_4  and  N_8 
REMARK    2  A    between atoms: C_5  and  C_6 
REMARK    3  A    between atoms: O_10  and  C_6 
REMARK    4  A    between atoms: O_11  and  N_8 
ROOT
HETATM    1  C   UNK N   1       0.928   3.151  -0.838  0.00  0.00     0.012 C 
HETATM    2  C   UNK N   1       2.122   0.969  -0.492  0.00  0.00     0.055 C 
HETATM    3  C   UNK N   1       0.983   1.848  -0.061  0.00  0.00     0.018 C 
HETATM    4  C   UNK N   1       1.699  -0.381   0.075  0.00  0.00     0.199 C 
HETATM    5  C   UNK N   1      -0.189   0.918  -0.335  0.00  0.00     0.181 C 
HETATM    6  N   UNK N   1       0.235  -0.379   0.182  0.00  0.00    -0.386 N 
HETATM    7  H   UNK N   1      -0.360  -1.125   0.542  0.00  0.00     0.156 HD
ENDROOT
BRANCH   4   8
HETATM    8  N   UNK N   1       2.127  -1.454  -0.818  0.00  0.00    -0.282 N 
HETATM    9  H   UNK N   1       1.805  -1.595  -1.776  0.00  0.00     0.189 HD
BRANCH   8  10
HETATM   10  O   UNK N   1       3.024  -2.232  -0.163  0.00  0.00    -0.293 OA
HETATM   11  H   UNK N   1       2.863  -3.065   0.306  0.00  0.00     0.244 HD
ENDBRANCH   8  10
ENDBRANCH   4   8
BRANCH   5  12
HETATM   12  C   UNK N   1      -1.499   1.341   0.277  0.00  0.00     0.163 C 
HETATM   13  O   UNK N   1      -1.601   2.403   0.872  0.00  0.00    -0.648 OA
BRANCH  12  14
HETATM   14  O   UNK N   1      -2.576   0.541   0.159  0.00  0.00    -0.775 OA
HETATM   15  H   UNK N   1      -3.433   0.911   0.077  0.00  0.00     0.167 HD
ENDBRANCH  12  14
ENDBRANCH   5  12
TORSDOF 4
