REMARK  13 active torsions:
REMARK  status: ('A' for Active; 'I' for Inactive)
REMARK    1  A    between atoms: C_2  and  N_1 
REMARK    2  A    between atoms: C_10  and  C_13 
REMARK    3  A    between atoms: C_11  and  O_14 
REMARK    4  A    between atoms: C_13  and  O_16 
REMARK    5  A    between atoms: O_16  and  P_17 
REMARK    6  A    between atoms: P_17  and  O_18 
REMARK    7  A    between atoms: P_17  and  O_19 
REMARK    8  A    between atoms: O_18  and  P_21 
REMARK    9  A    between atoms: P_21  and  O_22 
REMARK   10  A    between atoms: P_21  and  O_23 
REMARK   11  A    between atoms: O_22  and  P_25 
REMARK   12  A    between atoms: P_25  and  O_26 
REMARK   13  A    between atoms: P_25  and  O_27 
ROOT
HETATM    1  C   UNK N   1       0.742  -0.314  -0.694  0.00  0.00     0.215 C 
ENDROOT
BRANCH   1   2
HETATM    2  C   UNK N   1       0.758  -0.894   0.730  0.00  0.00     0.177 C 
HETATM    3  O   UNK N   1       1.602  -0.147   1.565  0.00  0.00    -0.356 OA
HETATM    4  C   UNK N   1       2.858  -0.792   1.537  0.00  0.00     0.235 C 
HETATM    5  C   UNK N   1       2.645  -2.262   1.190  0.00  0.00     0.088 C 
HETATM    6  C   UNK N   1       1.193  -2.342   0.837  0.00  0.00     0.153 C 
BRANCH   4   7
HETATM    7  N   UNK N   1       3.801  -0.053   0.667  0.00  0.00    -0.282 N 
HETATM    8  C   UNK N   1       4.516  -0.609  -0.391  0.00  0.00     0.331 A 
HETATM    9  N   UNK N   1       5.366   0.170  -1.129  0.00  0.00    -0.275 N 
HETATM   10  O   UNK N   1       4.410  -1.789  -0.676  0.00  0.00    -0.246 OA
HETATM   11  C   UNK N   1       5.529   1.497  -0.847  0.00  0.00     0.250 A 
HETATM   12  H   UNK N   1       5.868  -0.231  -1.874  0.00  0.00     0.173 HD
HETATM   13  O   UNK N   1       6.287   2.173  -1.516  0.00  0.00    -0.268 OA
HETATM   14  C   UNK N   1       4.830   2.069   0.206  0.00  0.00     0.092 A 
HETATM   15  C   UNK N   1       3.971   1.270   0.955  0.00  0.00     0.104 A 
ENDBRANCH   4   7
BRANCH   6  16
HETATM   16  O   UNK N   1       1.000  -3.052  -0.351  0.00  0.00    -0.393 OA
HETATM   17  H   UNK N   1       0.506  -3.183  -1.176  0.00  0.00     0.210 HD
ENDBRANCH   6  16
ENDBRANCH   1   2
BRANCH   1  18
HETATM   18  O   UNK N   1       0.438   1.059  -0.693  0.00  0.00    -0.294 OA
BRANCH  18  19
HETATM   19  P   UNK N   1      -1.248   1.228  -0.259  0.00  0.00     0.401 P 
HETATM   20  O   UNK N   1      -1.822   2.413  -1.082  0.00  0.00    -0.631 OA
BRANCH  19  21
HETATM   21  O   UNK N   1      -2.149  -0.229  -0.631  0.00  0.00    -0.195 OA
BRANCH  21  22
HETATM   22  P   UNK N   1      -3.859   0.105  -0.470  0.00  0.00     0.410 P 
HETATM   23  O   UNK N   1      -3.483  -0.134   1.017  0.00  0.00    -0.631 OA
BRANCH  22  24
HETATM   24  O   UNK N   1      -4.891  -1.202   0.047  0.00  0.00    -0.195 OA
BRANCH  24  25
HETATM   25  P   UNK N   1      -6.558  -0.673  -0.014  0.00  0.00     0.399 P 
HETATM   26  O   UNK N   1      -6.650   0.872  -0.146  0.00  0.00    -0.631 OA
BRANCH  25  27
HETATM   27  O   UNK N   1      -7.387  -1.369  -1.370  0.00  0.00    -0.307 OA
HETATM   28  H   UNK N   1      -7.956  -1.162  -2.128  0.00  0.00     0.222 HD
ENDBRANCH  25  27
BRANCH  25  29
HETATM   29  O   UNK N   1      -7.370  -1.093   1.462  0.00  0.00    -0.307 OA
HETATM   30  H   UNK N   1      -7.800  -0.818   2.287  0.00  0.00     0.222 HD
ENDBRANCH  25  29
ENDBRANCH  24  25
ENDBRANCH  22  24
BRANCH  22  31
HETATM   31  O   UNK N   1      -3.608  -1.329  -1.417  0.00  0.00    -0.307 OA
HETATM   32  H   UNK N   1      -4.231  -1.852  -1.946  0.00  0.00     0.222 HD
ENDBRANCH  22  31
ENDBRANCH  21  22
ENDBRANCH  19  21
BRANCH  19  33
HETATM   33  O   UNK N   1      -1.364   1.637   1.426  0.00  0.00    -0.307 OA
HETATM   34  H   UNK N   1      -1.198   1.807   2.366  0.00  0.00     0.222 HD
ENDBRANCH  19  33
ENDBRANCH  18  19
ENDBRANCH   1  18
TORSDOF 13
