REMARK  18 active torsions:
REMARK  status: ('A' for Active; 'I' for Inactive)
REMARK    1  A    between atoms: C_5  and  C_3 
REMARK    2  A    between atoms: O_33  and  C_3 
REMARK    3  A    between atoms: C_6  and  C_4 
REMARK    4  A    between atoms: S_40  and  C_4 
REMARK    5  A    between atoms: O_19  and  C_7 
REMARK    6  A    between atoms: C_8  and  O_20 
REMARK    7  A    between atoms: C_9  and  O_21 
REMARK    8  A    between atoms: C_10  and  O_22 
REMARK    9  A    between atoms: C_11  and  O_23 
REMARK   10  A    between atoms: C_13  and  N_18 
REMARK   11  A    between atoms: C_14  and  O_36 
REMARK   12  A    between atoms: P_38  and  O_26 
REMARK   13  A    between atoms: P_39  and  O_28 
REMARK   14  A    between atoms: S_40  and  O_30 
REMARK   15  A    between atoms: P_38  and  O_33 
REMARK   16  A    between atoms: P_39  and  O_36 
REMARK   17  A    between atoms: P_38  and  O_37 
REMARK   18  A    between atoms: P_39  and  O_37 
ROOT
HETATM    1  C   UNK N   1      11.265   5.218   0.248  0.00  0.00     0.171 C 
HETATM    2  C   UNK N   1      11.772   6.628  -0.153  0.00  0.00     0.179 C 
HETATM    3  C   UNK N   1      10.721   7.666   0.211  0.00  0.00     0.183 C 
HETATM    4  C   UNK N   1       9.403   7.281  -0.431  0.00  0.00     0.205 C 
HETATM    5  C   UNK N   1       9.012   5.867   0.030  0.00  0.00     0.303 C 
HETATM    6  O   UNK N   1       9.476   7.328  -1.829  0.00  0.00    -0.388 OA
HETATM    7  O   UNK N   1      10.010   4.934  -0.359  0.00  0.00    -0.349 OA
HETATM    8  H   UNK N   1       9.530   7.301  -2.797  0.00  0.00     0.210 HD
ENDROOT
BRANCH   3   9
HETATM    9  O   UNK N   1      11.113   8.940  -0.206  0.00  0.00    -0.390 OA
HETATM   10  H   UNK N   1      12.016   9.147  -0.495  0.00  0.00     0.210 HD
ENDBRANCH   3   9
BRANCH   5  11
HETATM   11  O   UNK N   1       7.810   5.514  -0.620  0.00  0.00    -0.263 OA
BRANCH  11  12
HETATM   12  P   UNK N   1       6.456   5.541   0.491  0.00  0.00     0.404 P 
HETATM   13  O   UNK N   1       6.795   4.599   1.678  0.00  0.00    -0.631 OA
BRANCH  12  14
HETATM   14  O   UNK N   1       5.066   4.814  -0.255  0.00  0.00    -0.307 OA
HETATM   15  H   UNK N   1       4.326   5.283  -0.672  0.00  0.00     0.222 HD
ENDBRANCH  12  14
BRANCH  12  16
HETATM   16  O   UNK N   1       6.031   7.109   1.177  0.00  0.00    -0.195 OA
BRANCH  16  17
HETATM   17  P   UNK N   1       6.189   8.393  -0.019  0.00  0.00     0.401 P 
HETATM   18  O   UNK N   1       5.261   9.530   0.502  0.00  0.00    -0.631 OA
BRANCH  17  19
HETATM   19  O   UNK N   1       6.909   8.752   1.521  0.00  0.00    -0.307 OA
HETATM   20  H   UNK N   1       7.284   8.505   2.380  0.00  0.00     0.222 HD
ENDBRANCH  17  19
BRANCH  17  21
HETATM   21  O   UNK N   1       4.707   7.545  -0.281  0.00  0.00    -0.294 OA
BRANCH  21  22
HETATM   22  C   UNK N   1       3.998   8.146  -1.318  0.00  0.00     0.215 C 
BRANCH  22  23
HETATM   23  C   UNK N   1       2.545   7.785  -1.098  0.00  0.00     0.180 C 
HETATM   24  C   UNK N   1       1.990   8.225   0.260  0.00  0.00     0.182 C 
HETATM   25  C   UNK N   1       0.784   7.321   0.386  0.00  0.00     0.198 C 
HETATM   26  C   UNK N   1       1.073   6.207  -0.647  0.00  0.00     0.263 C 
HETATM   27  O   UNK N   1       2.393   6.389  -1.112  0.00  0.00    -0.353 OA
BRANCH  24  28
HETATM   28  O   UNK N   1       2.864   7.888   1.302  0.00  0.00    -0.390 OA
HETATM   29  H   UNK N   1       2.964   7.247   2.024  0.00  0.00     0.210 HD
ENDBRANCH  24  28
BRANCH  25  30
HETATM   30  O   UNK N   1      -0.378   8.008   0.028  0.00  0.00    -0.388 OA
HETATM   31  H   UNK N   1      -0.368   8.945  -0.220  0.00  0.00     0.210 HD
ENDBRANCH  25  30
BRANCH  26  32
HETATM   32  N   UNK N   1       0.841   4.845  -0.134  0.00  0.00    -0.280 N 
HETATM   33  C   UNK N   1       1.863   3.937  -0.123  0.00  0.00     0.103 A 
HETATM   34  C   UNK N   1       1.642   2.622   0.282  0.00  0.00     0.073 A 
HETATM   35  C   UNK N   1       0.361   2.246   0.671  0.00  0.00     0.144 A 
HETATM   36  N   UNK N   1      -0.642   3.158   0.669  0.00  0.00    -0.289 N 
HETATM   37  C   UNK N   1      -0.420   4.449   0.272  0.00  0.00     0.330 A 
ATOM     38  HN  UNK N   1      -1.577   2.878   0.967  1.00  0.00     0.172 HD
HETATM   39  O   UNK N   1      -1.351   5.238   0.260  0.00  0.00    -0.246 OA
BRANCH  35  40
HETATM   40  O   UNK N   1       0.114   0.979   1.042  0.00  0.00    -0.346 OA
HETATM   41  H   UNK N   1      -0.738   0.687   1.301  0.00  0.00     0.219 HD
ENDBRANCH  35  40
ENDBRANCH  26  32
ENDBRANCH  22  23
ENDBRANCH  21  22
ENDBRANCH  17  21
ENDBRANCH  16  17
ENDBRANCH  12  16
ENDBRANCH  11  12
ENDBRANCH   5  11
BRANCH   2  42
HETATM   42  O   UNK N   1      12.036   6.671  -1.527  0.00  0.00    -0.390 OA
HETATM   43  H   UNK N   1      12.153   6.527  -2.479  0.00  0.00     0.210 HD
ENDBRANCH   2  42
BRANCH   1  44
HETATM   44  C   UNK N   1      12.238   4.126  -0.215  0.00  0.00     0.190 C 
BRANCH  44  45
HETATM   45  S   UNK N   1      13.999   4.500   0.090  0.00  0.00     0.096 S 
HETATM   46  O   UNK N   1      14.872   3.263  -0.157  0.00  0.00    -0.601 OA
HETATM   47  O   UNK N   1      14.319   4.808   1.559  0.00  0.00    -0.601 OA
BRANCH  45  48
HETATM   48  O   UNK N   1      14.754   5.738  -0.832  0.00  0.00    -0.296 OA
HETATM   49  H   UNK N   1      15.572   5.718  -1.352  0.00  0.00     0.232 HD
ENDBRANCH  45  48
ENDBRANCH  44  45
ENDBRANCH   1  44
TORSDOF 18
