REMARK  14 active torsions:
REMARK  status: ('A' for Active; 'I' for Inactive)
REMARK    1  A    between atoms: C_11  and  C_5 
REMARK    2  A    between atoms: N_22  and  C_5 
REMARK    3  A    between atoms: C_12  and  C_6 
REMARK    4  A    between atoms: O_35  and  C_6 
REMARK    5  A    between atoms: C_14  and  C_11 
REMARK    6  A    between atoms: C_11  and  O_24 
REMARK    7  A    between atoms: C_14  and  C_12 
REMARK    8  A    between atoms: C_12  and  O_25 
REMARK    9  A    between atoms: C_14  and  O_26 
REMARK   10  A    between atoms: O_27  and  C_16 
REMARK   11  A    between atoms: S_37  and  N_23 
REMARK   12  A    between atoms: P_36  and  O_29 
REMARK   13  A    between atoms: P_36  and  O_30 
REMARK   14  A    between atoms: P_36  and  O_35 
ROOT
HETATM    1  C   UNK N   1       2.452  -6.651   1.350  0.00  0.00     0.049 C 
HETATM    2  C   UNK N   1       0.055  -8.185   0.554  0.00  0.00     0.049 C 
HETATM    3  C   UNK N   1       1.082  -4.596   1.131  0.00  0.00     0.039 A 
HETATM    4  C   UNK N   1      -1.181  -6.024   0.437  0.00  0.00     0.040 A 
HETATM    5  C   UNK N   1       1.150  -5.979   1.065  0.00  0.00    -0.054 A 
HETATM    6  C   UNK N   1       0.013  -6.702   0.696  0.00  0.00    -0.054 A 
HETATM    7  C   UNK N   1      -0.101  -3.897   0.812  0.00  0.00     0.065 A 
HETATM    8  C   UNK N   1      -1.268  -4.612   0.490  0.00  0.00     0.081 A 
HETATM    9  C   UNK N   1      -2.451  -2.538   0.176  0.00  0.00     0.148 A 
HETATM   10  C   UNK N   1      -1.236  -1.850   0.470  0.00  0.00     0.145 A 
HETATM   11  C   UNK N   1      -3.582  -1.700  -0.134  0.00  0.00     0.176 A 
HETATM   12  C   UNK N   1      -2.274   0.260   0.138  0.00  0.00     0.327 A 
HETATM   13  N   UNK N   1      -1.184  -0.488   0.437  0.00  0.00    -0.292 N 
ATOM     14  HN  UNK N   1      -0.302  -0.020   0.642  1.00  0.00     0.172 HD
HETATM   15  N   UNK N   1      -3.453  -0.348  -0.140  0.00  0.00    -0.287 N 
ATOM     16  HN  UNK N   1      -4.266   0.226  -0.361  1.00  0.00     0.172 HD
HETATM   17  N   UNK N   1      -0.101  -2.536   0.763  0.00  0.00    -0.327 N 
HETATM   18  N   UNK N   1      -2.451  -3.959   0.184  0.00  0.00    -0.211 N 
HETATM   19  O   UNK N   1      -2.192   1.475   0.117  0.00  0.00    -0.247 OA
ENDROOT
BRANCH  17  20
HETATM   20  C   UNK N   1       1.158  -1.798   0.911  0.00  0.00     0.165 C 
BRANCH  20  21
HETATM   21  C   UNK N   1       1.930  -1.867  -0.424  0.00  0.00     0.167 C 
BRANCH  21  22
HETATM   22  C   UNK N   1       3.309  -1.207  -0.314  0.00  0.00     0.179 C 
BRANCH  22  23
HETATM   23  C   UNK N   1       4.339  -1.749  -1.343  0.00  0.00     0.173 C 
BRANCH  23  24
HETATM   24  C   UNK N   1       5.080  -2.993  -0.811  0.00  0.00     0.214 C 
BRANCH  24  25
HETATM   25  O   UNK N   1       5.757  -2.718   0.399  0.00  0.00    -0.294 OA
BRANCH  25  26
HETATM   26  P   UNK N   1       7.198  -1.813  -0.010  0.00  0.00     0.390 P 
HETATM   27  O   UNK N   1       6.400  -0.797   0.853  0.00  0.00    -0.632 OA
BRANCH  26  28
HETATM   28  O   UNK N   1       8.345  -1.309   1.189  0.00  0.00    -0.307 OA
HETATM   29  H   UNK N   1       8.910  -1.723   1.860  0.00  0.00     0.222 HD
ENDBRANCH  26  28
BRANCH  26  30
HETATM   30  O   UNK N   1       7.654  -3.163   0.978  0.00  0.00    -0.307 OA
HETATM   31  H   UNK N   1       7.128  -3.761   1.532  0.00  0.00     0.222 HD
ENDBRANCH  26  30
ENDBRANCH  25  26
ENDBRANCH  24  25
ENDBRANCH  23  24
BRANCH  23  32
HETATM   32  O   UNK N   1       3.743  -2.040  -2.574  0.00  0.00    -0.391 OA
HETATM   33  H   UNK N   1       3.361  -1.784  -3.428  0.00  0.00     0.210 HD
ENDBRANCH  23  32
ENDBRANCH  22  23
BRANCH  22  34
HETATM   34  O   UNK N   1       3.155   0.171  -0.484  0.00  0.00    -0.390 OA
HETATM   35  H   UNK N   1       3.930   0.742  -0.602  0.00  0.00     0.210 HD
ENDBRANCH  22  34
ENDBRANCH  21  22
BRANCH  21  36
HETATM   36  O   UNK N   1       2.069  -3.190  -0.845  0.00  0.00    -0.391 OA
HETATM   37  H   UNK N   1       1.320  -3.733  -1.138  0.00  0.00     0.210 HD
ENDBRANCH  21  36
ENDBRANCH  20  21
ENDBRANCH  17  20
BRANCH  18  38
HETATM   38  S   UNK N   1      -3.822  -5.119  -0.200  0.00  0.00     0.216 S 
HETATM   39  O   UNK N   1      -5.242  -4.547  -0.228  0.00  0.00    -0.577 OA
HETATM   40  O   UNK N   1      -4.169  -4.281   1.262  0.00  0.00    -0.577 OA
HETATM   41  O   UNK N   1      -3.777  -4.253  -1.467  0.00  0.00    -0.577 OA
ENDBRANCH  18  38
BRANCH  11  42
HETATM   42  O   UNK N   1      -4.788  -2.183  -0.430  0.00  0.00    -0.344 OA
HETATM   43  H   UNK N   1      -5.506  -1.619  -0.638  0.00  0.00     0.219 HD
ENDBRANCH  11  42
TORSDOF 14
