REMARK  7 active torsions:
REMARK  status: ('A' for Active; 'I' for Inactive)
REMARK    1  A    between atoms: O_1  and  P_2 
REMARK    2  A    between atoms: P_2  and  O_3 
REMARK    3  A    between atoms: P_2  and  C_5 
REMARK    4  A    between atoms: C_5  and  C_6 
REMARK    5  A    between atoms: C_5  and  P_12 
REMARK    6  A    between atoms: P_12  and  O_13 
REMARK    7  A    between atoms: P_12  and  O_14 
ROOT
HETATM    1  C   UNK N   1       0.685   1.985  -0.752  0.00  0.00     0.241 C 
ENDROOT
BRANCH   1   2
HETATM    2  P   UNK N   1      -0.834   2.991  -0.330  0.00  0.00     0.256 P 
HETATM    3  O   UNK N   1      -0.726   4.395  -0.982  0.00  0.00    -0.653 OA
BRANCH   2   4
HETATM    4  O   UNK N   1      -1.079   3.334   1.354  0.00  0.00    -0.328 OA
HETATM    5  H   UNK N   1      -0.982   3.549   2.295  0.00  0.00     0.220 HD
ENDBRANCH   2   4
BRANCH   2   6
HETATM    6  O   UNK N   1      -2.332   2.371  -0.951  0.00  0.00    -0.328 OA
HETATM    7  H   UNK N   1      -3.050   2.923  -1.299  0.00  0.00     0.220 HD
ENDBRANCH   2   6
ENDBRANCH   1   2
BRANCH   1   8
HETATM    8  C   UNK N   1       0.557   0.544  -0.308  0.00  0.00    -0.031 A 
HETATM    9  C   UNK N   1       1.528  -0.071   0.506  0.00  0.00     0.009 A 
HETATM   10  C   UNK N   1       1.413  -1.421   0.849  0.00  0.00     0.001 A 
HETATM   11  C   UNK N   1       0.330  -2.171   0.388  0.00  0.00     0.000 A 
HETATM   12  C   UNK N   1      -0.640  -1.571  -0.420  0.00  0.00     0.001 A 
HETATM   13  C   UNK N   1      -0.520  -0.223  -0.772  0.00  0.00     0.009 A 
ENDBRANCH   1   8
BRANCH   1  14
HETATM   14  P   UNK N   1       2.201   2.864  -0.081  0.00  0.00     0.256 P 
HETATM   15  O   UNK N   1       2.116   2.998   1.463  0.00  0.00    -0.653 OA
BRANCH  14  16
HETATM   16  O   UNK N   1       2.407   4.496  -0.632  0.00  0.00    -0.328 OA
HETATM   17  H   UNK N   1       3.255   4.853  -0.940  0.00  0.00     0.220 HD
ENDBRANCH  14  16
BRANCH  14  18
HETATM   18  O   UNK N   1       3.709   2.047  -0.349  0.00  0.00    -0.328 OA
HETATM   19  H   UNK N   1       3.735   1.089  -0.499  0.00  0.00     0.220 HD
ENDBRANCH  14  18
ENDBRANCH   1  14
TORSDOF 7
