REMARK  10 active torsions:
REMARK  status: ('A' for Active; 'I' for Inactive)
REMARK    1  A    between atoms: C_3  and  C_1 
REMARK    2  A    between atoms: O_24  and  C_1 
REMARK    3  A    between atoms: C_5  and  O_17 
REMARK    4  A    between atoms: C_6  and  O_18 
REMARK    5  A    between atoms: O_19  and  C_8 
REMARK    6  A    between atoms: C_9  and  N_16 
REMARK    7  A    between atoms: O_20  and  C_10 
REMARK    8  A    between atoms: P_26  and  O_21 
REMARK    9  A    between atoms: P_26  and  O_22 
REMARK   10  A    between atoms: P_26  and  O_24 
ROOT
HETATM    1  C   UNK N   1      -1.562  -4.095  -0.304  0.00  0.00     0.180 C 
HETATM    2  C   UNK N   1      -0.225  -4.623   0.187  0.00  0.00     0.182 C 
HETATM    3  C   UNK N   1       0.718  -3.452  -0.037  0.00  0.00     0.198 C 
HETATM    4  C   UNK N   1      -0.273  -2.331  -0.398  0.00  0.00     0.262 C 
HETATM    5  O   UNK N   1      -1.541  -2.734   0.083  0.00  0.00    -0.353 OA
ENDROOT
BRANCH   4   6
HETATM    6  N   UNK N   1       0.098  -0.965  -0.002  0.00  0.00    -0.297 N 
HETATM    7  C   UNK N   1      -0.764   0.077   0.138  0.00  0.00     0.188 A 
HETATM    8  N   UNK N   1      -0.100   1.260   0.284  0.00  0.00    -0.346 N 
HETATM    9  C   UNK N   1       1.199   0.925   0.197  0.00  0.00     0.129 A 
HETATM   10  H   UNK N   1      -0.484   2.155   0.423  0.00  0.00     0.167 HD
HETATM   11  C   UNK N   1       1.320  -0.406   0.026  0.00  0.00     0.145 A 
HETATM   12  C   UNK N   1       2.328   1.729   0.211  0.00  0.00     0.174 A 
HETATM   13  N   UNK N   1       2.520  -1.011  -0.131  0.00  0.00    -0.306 N 
HETATM   14  C   UNK N   1       3.647  -0.236  -0.088  0.00  0.00     0.224 A 
ATOM     15  HN  UNK N   1       2.584  -2.019  -0.278  1.00  0.00     0.171 HD
HETATM   16  N   UNK N   1       3.546   1.126   0.075  0.00  0.00    -0.301 N 
ATOM     17  HN  UNK N   1       4.393   1.694   0.094  1.00  0.00     0.171 HD
BRANCH  14  18
HETATM   18  O   UNK N   1       4.856  -0.807  -0.207  0.00  0.00    -0.332 OA
HETATM   19  H   UNK N   1       4.932  -1.737  -0.291  0.00  0.00     0.221 HD
ENDBRANCH  14  18
BRANCH  12  20
HETATM   20  O   UNK N   1       2.234   3.064   0.333  0.00  0.00    -0.344 OA
HETATM   21  H   UNK N   1       3.007   3.586   0.418  0.00  0.00     0.219 HD
ENDBRANCH  12  20
ENDBRANCH   4   6
BRANCH   3  22
HETATM   22  O   UNK N   1       1.403  -3.197   1.156  0.00  0.00    -0.388 OA
HETATM   23  H   UNK N   1       1.793  -3.519   1.984  0.00  0.00     0.210 HD
ENDBRANCH   3  22
BRANCH   2  24
HETATM   24  O   UNK N   1       0.179  -5.798  -0.449  0.00  0.00    -0.390 OA
HETATM   25  H   UNK N   1      -0.387  -6.450  -0.890  0.00  0.00     0.210 HD
ENDBRANCH   2  24
BRANCH   1  26
HETATM   26  C   UNK N   1      -2.695  -4.895   0.335  0.00  0.00     0.215 C 
BRANCH  26  27
HETATM   27  O   UNK N   1      -3.866  -4.139   0.501  0.00  0.00    -0.294 OA
BRANCH  27  28
HETATM   28  P   UNK N   1      -5.137  -4.879  -0.448  0.00  0.00     0.390 P 
HETATM   29  O   UNK N   1      -5.092  -5.964   0.666  0.00  0.00    -0.632 OA
BRANCH  28  30
HETATM   30  O   UNK N   1      -6.793  -4.907   0.073  0.00  0.00    -0.307 OA
HETATM   31  H   UNK N   1      -7.270  -4.114   0.363  0.00  0.00     0.222 HD
ENDBRANCH  28  30
BRANCH  28  32
HETATM   32  O   UNK N   1      -5.653  -3.407   0.318  0.00  0.00    -0.307 OA
HETATM   33  H   UNK N   1      -5.086  -2.747   0.745  0.00  0.00     0.222 HD
ENDBRANCH  28  32
ENDBRANCH  27  28
ENDBRANCH  26  27
ENDBRANCH   1  26
TORSDOF 10
