REMARK WARNING: 32 MAX_TORS EXCEEDED!!!
REMARK  34 active torsions:
REMARK  status: ('A' for Active; 'I' for Inactive)
REMARK    1  A    between atoms: P_1  and  O_4 
REMARK    2  A    between atoms: P_1  and  O_8 
REMARK    3  A    between atoms: P_1  and  O_9 
REMARK    4  A    between atoms: C_24  and  O_4 
REMARK    5  A    between atoms: C_28  and  O_5 
REMARK    6  A    between atoms: C_29  and  O_6 
REMARK    7  A    between atoms: C_36  and  O_10 
REMARK    8  A    between atoms: C_41  and  O_11 
REMARK    9  A    between atoms: C_58  and  O_13 
REMARK   10  A    between atoms: C_60  and  O_14 
REMARK   11  A    between atoms: O_16  and  C_63 
REMARK   12  A    between atoms: N_19  and  C_55 
REMARK       I    between atoms: N_19  and  C_59 
REMARK   13  A    between atoms: N_20  and  C_61 
REMARK   14  A    between atoms: C_25  and  C_28 
REMARK   15  A    between atoms: C_27  and  C_34 
REMARK   16  A    between atoms: C_28  and  C_33 
REMARK   17  A    between atoms: C_33  and  C_36 
REMARK   18  A    between atoms: C_34  and  C_37 
REMARK   19  A    between atoms: C_36  and  C_38 
REMARK   20  A    between atoms: C_37  and  C_40 
REMARK   21  A    between atoms: C_38  and  C_41 
REMARK   22  A    between atoms: C_40  and  C_42 
REMARK   23  A    between atoms: C_41  and  C_44 
REMARK   24  A    between atoms: C_44  and  C_47 
REMARK   25  A    between atoms: C_46  and  C_49 
REMARK   26  A    between atoms: C_49  and  C_52 
REMARK   27  A    between atoms: C_50  and  C_51 
REMARK   28  A    between atoms: C_52  and  C_55 
REMARK   29  A    between atoms: C_56  and  C_62 
REMARK   30  A    between atoms: C_58  and  C_59 
REMARK   31  A    between atoms: C_58  and  C_60 
REMARK   32  A    between atoms: C_60  and  C_61 
REMARK   33  A    between atoms: C_61  and  C_63 
REMARK   34  A    between atoms: C_64  and  C_67 
ROOT
HETATM    1  N   UNK N   1      14.569   0.256  -0.039  0.00  0.00    -0.192 NA
HETATM    2  C   UNK N   1      12.974  -2.798   0.020  0.00  0.00    -0.052 C 
HETATM    3  C   UNK N   1      14.219  -2.328  -0.114  0.00  0.00     0.100 C 
HETATM    4  C   UNK N   1      12.716  -4.269  -0.048  0.00  0.00     0.049 C 
HETATM    5  C   UNK N   1      14.454  -0.895  -0.078  0.00  0.00     0.088 C 
ENDROOT
BRANCH   2   6
HETATM    6  C   UNK N   1      11.898  -1.826   0.257  0.00  0.00     0.007 C 
HETATM    7  C   UNK N   1      10.599  -1.998   0.169  0.00  0.00     0.001 C 
BRANCH   7   8
HETATM    8  C   UNK N   1       9.875  -3.200  -0.252  0.00  0.00     0.007 C 
HETATM    9  C   UNK N   1       8.634  -3.026  -0.707  0.00  0.00    -0.056 C 
HETATM   10  C   UNK N   1       7.804  -4.190  -1.136  0.00  0.00     0.049 C 
BRANCH   9  11
HETATM   11  C   UNK N   1       8.042  -1.684  -0.728  0.00  0.00    -0.059 C 
HETATM   12  C   UNK N   1       7.830  -1.078   0.463  0.00  0.00    -0.013 C 
HETATM   13  C   UNK N   1       7.595  -1.107  -2.043  0.00  0.00     0.048 C 
BRANCH  12  14
HETATM   14  C   UNK N   1       6.957   0.123   0.653  0.00  0.00     0.034 C 
HETATM   15  C   UNK N   1       7.318   1.272  -0.264  0.00  0.00     0.017 C 
BRANCH  14  16
HETATM   16  C   UNK N   1       5.507  -0.344   0.506  0.00  0.00     0.131 C 
BRANCH  16  17
HETATM   17  O   UNK N   1       5.422  -1.278  -0.535  0.00  0.00    -0.394 OA
HETATM   18  H   UNK N   1       4.832  -1.550  -1.255  0.00  0.00     0.210 HD
ENDBRANCH  16  17
BRANCH  16  19
HETATM   19  C   UNK N   1       5.044  -0.949   1.841  0.00  0.00     0.040 C 
HETATM   20  C   UNK N   1       4.804   0.219   2.786  0.00  0.00     0.015 C 
BRANCH  19  21
HETATM   21  C   UNK N   1       3.764  -1.803   1.873  0.00  0.00     0.126 C 
BRANCH  21  22
HETATM   22  O   UNK N   1       3.788  -2.742   2.903  0.00  0.00    -0.395 OA
HETATM   23  H   UNK N   1       3.231  -3.084   3.620  0.00  0.00     0.210 HD
ENDBRANCH  21  22
BRANCH  21  24
HETATM   24  C   UNK N   1       3.194  -2.364   0.570  0.00  0.00     0.067 C 
BRANCH  24  25
HETATM   25  C   UNK N   1       2.919  -1.201  -0.423  0.00  0.00     0.154 C 
BRANCH  25  26
HETATM   26  O   UNK N   1       2.426  -1.587  -1.699  0.00  0.00    -0.388 OA
HETATM   27  C   UNK N   1       1.445  -2.589  -1.553  0.00  0.00     0.202 C 
ENDBRANCH  25  26
BRANCH  25  28
HETATM   28  C   UNK N   1       2.268   0.039   0.219  0.00  0.00     0.184 C 
HETATM   29  O   UNK N   1       0.948  -0.124  -0.071  0.00  0.00    -0.344 OA
HETATM   30  C   UNK N   1       0.389   1.089  -0.446  0.00  0.00     0.176 C 
HETATM   31  O   UNK N   1      -0.449   0.833  -1.558  0.00  0.00    -0.348 OA
HETATM   32  C   UNK N   1       1.509   2.024  -0.911  0.00  0.00     0.038 C 
HETATM   33  C   UNK N   1      -0.332   1.570   0.848  0.00  0.00     0.101 C 
HETATM   34  C   UNK N   1      -1.592   0.146  -1.160  0.00  0.00     0.134 C 
HETATM   35  C   UNK N   1      -2.496   1.162  -0.459  0.00  0.00     0.040 C 
HETATM   36  C   UNK N   1      -1.773   1.988   0.632  0.00  0.00     0.129 C 
HETATM   37  C   UNK N   1      -3.155   2.037  -1.515  0.00  0.00     0.015 C 
HETATM   38  C   UNK N   1       2.651   1.488  -0.095  0.00  0.00     0.178 C 
HETATM   39  C   UNK N   1       1.162   3.483  -0.620  0.00  0.00     0.023 C 
HETATM   40  C   UNK N   1       1.818   1.875  -2.399  0.00  0.00     0.023 C 
BRANCH  34  41
HETATM   41  C   UNK N   1      -1.305  -1.263  -0.541  0.00  0.00     0.059 C 
BRANCH  41  42
HETATM   42  C   UNK N   1      -1.143  -1.249   0.978  0.00  0.00    -0.022 C 
BRANCH  42  43
HETATM   43  C   UNK N   1      -2.213  -1.346   1.756  0.00  0.00     0.027 C 
BRANCH  43  44
HETATM   44  C   UNK N   1      -3.437  -1.640   1.060  0.00  0.00     0.056 A 
HETATM   45  N   UNK N   1      -3.645  -2.850   0.549  0.00  0.00    -0.338 N 
HETATM   46  C   UNK N   1      -4.594  -2.658  -0.370  0.00  0.00     0.127 A 
ATOM     47  HN  UNK N   1      -3.184  -3.724   0.801  1.00  0.00     0.168 HD
HETATM   48  O   UNK N   1      -4.941  -1.395  -0.453  0.00  0.00    -0.307 OA
HETATM   49  C   UNK N   1      -4.226  -0.724   0.407  0.00  0.00     0.173 A 
BRANCH  46  50
HETATM   50  C   UNK N   1      -5.551  -3.736  -0.657  0.00  0.00     0.058 C 
HETATM   51  C   UNK N   1      -4.787  -4.998  -1.024  0.00  0.00     0.018 C 
BRANCH  50  52
HETATM   52  C   UNK N   1      -6.337  -4.003   0.663  0.00  0.00     0.032 C 
BRANCH  52  53
HETATM   53  C   UNK N   1      -6.433  -2.826   1.689  0.00  0.00     0.123 C 
BRANCH  53  54
HETATM   54  N   UNK N   1      -6.943  -1.686   0.984  0.00  0.00    -0.359 N 
HETATM   55  C   UNK N   1      -8.240  -1.604   0.706  0.00  0.00     0.249 C 
HETATM   56  O   UNK N   1      -9.050  -2.161   1.433  0.00  0.00    -0.271 OA
HETATM   57  H   UNK N   1      -6.333  -0.966   0.705  0.00  0.00     0.162 HD
BRANCH  55  58
HETATM   58  C   UNK N   1      -8.618  -1.163  -0.677  0.00  0.00     0.240 C 
BRANCH  58  59
HETATM   59  O   UNK N   1      -8.375   0.190  -0.923  0.00  0.00    -0.383 OA
HETATM   60  H   UNK N   1      -7.476   0.513  -1.093  0.00  0.00     0.210 HD
ENDBRANCH  58  59
BRANCH  58  61
HETATM   61  C   UNK N   1     -10.011  -1.628  -1.088  0.00  0.00     0.191 C 
BRANCH  61  62
HETATM   62  O   UNK N   1     -10.043  -3.028  -1.005  0.00  0.00    -0.390 OA
HETATM   63  H   UNK N   1     -10.892  -3.492  -0.947  0.00  0.00     0.210 HD
ENDBRANCH  61  62
BRANCH  61  64
HETATM   64  C   UNK N   1     -11.104  -1.024  -0.200  0.00  0.00     0.277 C 
BRANCH  64  65
HETATM   65  N   UNK N   1     -11.070   0.450  -0.300  0.00  0.00     0.089 N 
HETATM   66  C   UNK N   1     -12.375   1.087  -0.403  0.00  0.00     0.310 C 
HETATM   67  C   UNK N   1     -10.452   0.969   0.911  0.00  0.00     0.310 C 
ENDBRANCH  64  65
BRANCH  64  68
HETATM   68  C   UNK N   1     -12.443  -1.671  -0.562  0.00  0.00     0.205 C 
BRANCH  68  69
HETATM   69  O   UNK N   1     -13.339  -1.531   0.497  0.00  0.00    -0.394 OA
HETATM   70  C   UNK N   1     -14.222  -2.598   0.343  0.00  0.00     0.201 C 
ENDBRANCH  68  69
ENDBRANCH  64  68
ENDBRANCH  61  64
ENDBRANCH  58  61
ENDBRANCH  55  58
ENDBRANCH  53  54
ENDBRANCH  52  53
ENDBRANCH  50  52
ENDBRANCH  46  50
ENDBRANCH  43  44
ENDBRANCH  42  43
ENDBRANCH  41  42
ENDBRANCH  34  41
BRANCH  36  71
HETATM   71  O   UNK N   1      -1.814   3.360   0.391  0.00  0.00    -0.395 OA
HETATM   72  H   UNK N   1      -1.000   3.862   0.223  0.00  0.00     0.210 HD
ENDBRANCH  36  71
BRANCH  38  73
HETATM   73  O   UNK N   1       3.970   1.707  -0.546  0.00  0.00    -0.288 OA
BRANCH  73  74
HETATM   74  P   UNK N   1       4.350   3.402  -0.304  0.00  0.00     0.391 P 
HETATM   75  O   UNK N   1       3.630   3.947   0.963  0.00  0.00    -0.632 OA
BRANCH  74  76
HETATM   76  O   UNK N   1       6.037   3.782  -0.162  0.00  0.00    -0.307 OA
HETATM   77  H   UNK N   1       6.693   3.072  -0.082  0.00  0.00     0.222 HD
ENDBRANCH  74  76
BRANCH  74  78
HETATM   78  O   UNK N   1       3.730   4.283  -1.655  0.00  0.00    -0.307 OA
HETATM   79  H   UNK N   1       3.984   4.831  -2.413  0.00  0.00     0.222 HD
ENDBRANCH  74  78
ENDBRANCH  73  74
ENDBRANCH  38  73
ENDBRANCH  25  28
ENDBRANCH  24  25
ENDBRANCH  21  24
ENDBRANCH  19  21
ENDBRANCH  16  19
ENDBRANCH  14  16
ENDBRANCH  12  14
ENDBRANCH   9  11
ENDBRANCH   7   8
ENDBRANCH   2   6
TORSDOF 34
