REMARK  6 active torsions:
REMARK  status: ('A' for Active; 'I' for Inactive)
REMARK    1  A    between atoms: N_1  and  C_2 
REMARK    2  A    between atoms: C_2  and  C_3 
REMARK    3  A    between atoms: C_3  and  C_4 
REMARK    4  A    between atoms: C_4  and  C_5 
REMARK    5  A    between atoms: C_5  and  O_6 
REMARK    6  A    between atoms: O_6  and  B_7 
ROOT
HETATM    1  C   UNK N   1      -1.054  -2.679   0.000  0.00  0.00     0.026 C 
ENDROOT
BRANCH   1   2
HETATM    2  C   UNK N   1      -2.252  -3.607  -0.000  0.00  0.00     0.029 C 
BRANCH   2   3
HETATM    3  C   UNK N   1      -3.531  -2.796   0.000  0.00  0.00     0.230 C 
BRANCH   3   4
HETATM    4  N   UNK N   1      -4.673  -3.692  -0.000  0.00  0.00    -0.079 N 
HETATM    5  H   UNK N   1      -5.619  -3.312  -0.000  0.00  0.00     0.274 HD
HETATM    6  H   UNK N   1      -4.528  -4.702  -0.000  0.00  0.00     0.274 HD
HETATM    7  H   UNK N   1      -5.475  -4.322  -0.000  0.00  0.00     0.274 HD
ENDBRANCH   3   4
ENDBRANCH   2   3
ENDBRANCH   1   2
BRANCH   1   8
HETATM    8  C   UNK N   1       0.215  -3.506  -0.000  0.00  0.00     0.148 C 
BRANCH   8   9
HETATM    9  O   UNK N   1       1.332  -2.666   0.000  0.00  0.00    -0.400 OA
BRANCH   9  10
HETATM   10  B   UNK N   1       2.536  -3.518  -0.000  0.00  0.00     0.678 B 
HETATM   11  O   UNK N   1       3.856  -2.920  -0.000  0.00  0.00    -0.398 OA
HETATM   12  C   UNK N   1       4.681  -4.048   0.000  0.00  0.00     0.172 A 
HETATM   13  C   UNK N   1       3.826  -5.316  -0.000  0.00  0.00     0.172 A 
HETATM   14  O   UNK N   1       2.472  -4.972   0.000  0.00  0.00    -0.398 OA
ENDBRANCH   9  10
ENDBRANCH   8   9
ENDBRANCH   1   8
TORSDOF 6
