REMARK  3 active torsions:
REMARK  status: ('A' for Active; 'I' for Inactive)
REMARK    1  A    between atoms: C_19  and  C_22 
REMARK    2  A    between atoms: O_26  and  C_21 
REMARK    3  A    between atoms: C_22  and  O_27 
ROOT
HETATM    1  C   UNK N   1       5.569  -2.979  -1.630  0.00  0.00     0.014 C 
HETATM    2  C   UNK N   1       6.056   6.192  -0.101  0.00  0.00     0.043 C 
HETATM    3  C   UNK N   1       8.247   0.586  -0.013  0.00  0.00    -0.004 C 
HETATM    4  C   UNK N   1       8.427   1.904   0.185  0.00  0.00    -0.026 C 
HETATM    5  C   UNK N   1       6.906  -0.040  -0.151  0.00  0.00    -0.004 C 
HETATM    6  C   UNK N   1       7.283   2.850   0.368  0.00  0.00     0.031 C 
HETATM    7  C   UNK N   1       6.778  -1.380  -0.207  0.00  0.00    -0.023 C 
HETATM    8  C   UNK N   1       7.237   3.968  -0.672  0.00  0.00     0.038 C 
HETATM    9  C   UNK N   1       4.237  -1.173  -0.575  0.00  0.00     0.010 C 
HETATM   10  C   UNK N   1       3.722  -0.784   0.797  0.00  0.00     0.033 C 
HETATM   11  C   UNK N   1       4.791   4.086  -0.538  0.00  0.00     0.084 C 
HETATM   12  C   UNK N   1       3.487   1.772   0.820  0.00  0.00     0.065 C 
HETATM   13  C   UNK N   1       1.061   2.384   1.459  0.00  0.00     0.103 C 
HETATM   14  C   UNK N   1       5.455  -2.100  -0.401  0.00  0.00     0.004 C 
HETATM   15  C   UNK N   1       5.966   4.743  -0.467  0.00  0.00    -0.078 C 
HETATM   16  C   UNK N   1       2.803   0.428   0.926  0.00  0.00     0.127 C 
HETATM   17  C   UNK N   1       2.475   2.913   1.097  0.00  0.00     0.140 C 
HETATM   18  C   UNK N   1       3.447   4.663  -0.273  0.00  0.00     0.283 C 
HETATM   19  C   UNK N   1       0.608   1.116   0.661  0.00  0.00     0.185 C 
HETATM   20  O   UNK N   1       3.272   5.874  -0.341  0.00  0.00    -0.260 OA
HETATM   21  O   UNK N   1       2.401   3.866   0.080  0.00  0.00    -0.312 OA
HETATM   22  O   UNK N   1       1.702   0.444   0.031  0.00  0.00    -0.348 OA
ENDROOT
BRANCH  19  23
HETATM   23  C   UNK N   1      -0.483   1.513  -0.367  0.00  0.00     0.156 C 
HETATM   24  C   UNK N   1      -1.800   1.819   0.368  0.00  0.00     0.113 C 
HETATM   25  S   UNK N   1      -2.497   3.393  -0.215  0.00  0.00    -0.085 SA
HETATM   26  C   UNK N   1      -0.972   3.657  -1.087  0.00  0.00     0.176 C 
HETATM   27  N   UNK N   1      -0.127   2.696  -1.110  0.00  0.00    -0.355 N 
ATOM     28  HN  UNK N   1       0.750   2.764  -1.626  1.00  0.00     0.162 HD
BRANCH  26  29
HETATM   29  O   UNK N   1      -0.722   4.821  -1.712  0.00  0.00    -0.341 OA
HETATM   30  H   UNK N   1       0.068   5.075  -2.148  0.00  0.00     0.220 HD
ENDBRANCH  26  29
ENDBRANCH  19  23
BRANCH  19  31
HETATM   31  O   UNK N   1       0.032   0.208   1.558  0.00  0.00    -0.363 OA
HETATM   32  H   UNK N   1      -0.712   0.239   2.180  0.00  0.00     0.213 HD
ENDBRANCH  19  31
TORSDOF 3
