REMARK  4 active torsions:
REMARK  status: ('A' for Active; 'I' for Inactive)
REMARK    1  A    between atoms: C_2  and  O_3 
REMARK    2  A    between atoms: O_3  and  C_4 
REMARK    3  A    between atoms: C_4  and  C_5 
REMARK    4  A    between atoms: C_5  and  O_6 
ROOT
HETATM    1  C   UNK N   1       2.170   1.315  -0.000  0.00  0.00     0.193 C 
ENDROOT
BRANCH   1   2
HETATM    2  O   UNK N   1       1.061   0.473   0.000  0.00  0.00    -0.389 OA
BRANCH   2   3
HETATM    3  C   UNK N   1      -0.026   1.345   0.000  0.00  0.00     0.163 C 
HETATM    4  C   UNK N   1      -1.310   0.546  -0.000  0.00  0.00     0.033 C 
ENDBRANCH   2   3
ENDBRANCH   1   2
BRANCH   1   5
HETATM    5  C   UNK N   1       3.433   0.486   0.000  0.00  0.00     0.190 C 
BRANCH   5   6
HETATM    6  O   UNK N   1       4.535   1.339   0.000  0.00  0.00    -0.399 OA
HETATM    7  H   UNK N   1       5.433   0.972  -0.000  0.00  0.00     0.209 HD
ENDBRANCH   5   6
ENDBRANCH   1   5
TORSDOF 4
