REMARK WARNING: 32 MAX_TORS EXCEEDED!!!
REMARK  43 active torsions:
REMARK  status: ('A' for Active; 'I' for Inactive)
REMARK    1  A    between atoms: C_17  and  C_11 
REMARK    2  A    between atoms: C_19  and  C_11 
REMARK    3  A    between atoms: C_18  and  C_12 
REMARK    4  A    between atoms: C_20  and  C_12 
REMARK    5  A    between atoms: C_21  and  C_13 
REMARK    6  A    between atoms: C_23  and  C_13 
REMARK    7  A    between atoms: C_22  and  C_14 
REMARK    8  A    between atoms: C_24  and  C_14 
REMARK    9  A    between atoms: C_25  and  C_15 
REMARK   10  A    between atoms: C_27  and  C_15 
REMARK   11  A    between atoms: C_26  and  C_16 
REMARK   12  A    between atoms: C_28  and  C_16 
REMARK   13  A    between atoms: C_37  and  C_17 
REMARK   14  A    between atoms: C_38  and  C_18 
REMARK   15  A    between atoms: C_39  and  C_19 
REMARK   16  A    between atoms: C_40  and  C_20 
REMARK   17  A    between atoms: C_39  and  C_21 
REMARK   18  A    between atoms: C_40  and  C_22 
REMARK   19  A    between atoms: C_41  and  C_23 
REMARK   20  A    between atoms: C_42  and  C_24 
REMARK   21  A    between atoms: C_41  and  C_25 
REMARK   22  A    between atoms: C_42  and  C_26 
REMARK   23  A    between atoms: C_43  and  C_27 
REMARK   24  A    between atoms: C_44  and  C_28 
REMARK   25  A    between atoms: C_31  and  C_29 
REMARK   26  A    between atoms: C_43  and  C_29 
REMARK   27  A    between atoms: C_32  and  C_30 
REMARK   28  A    between atoms: C_44  and  C_30 
REMARK   29  A    between atoms: O_53  and  C_31 
REMARK   30  A    between atoms: O_54  and  C_32 
REMARK   31  A    between atoms: C_45  and  C_33 
REMARK   32  A    between atoms: O_55  and  C_33 
REMARK   33  A    between atoms: C_45  and  C_34 
REMARK   34  A    between atoms: O_56  and  C_34 
REMARK   35  A    between atoms: C_46  and  C_35 
REMARK   36  A    between atoms: O_53  and  C_35 
REMARK   37  A    between atoms: C_46  and  C_36 
REMARK   38  A    between atoms: O_57  and  C_36 
REMARK   39  A    between atoms: C_46  and  O_54 
REMARK   40  A    between atoms: P_59  and  O_51 
REMARK   41  A    between atoms: P_58  and  O_55 
REMARK   42  A    between atoms: P_59  and  O_56 
REMARK   43  A    between atoms: P_59  and  O_57 
ROOT
HETATM    1  C   UNK N   1      25.086 -10.905  -0.083  0.00  0.00     0.166 C 
HETATM    2  O   UNK N   1      24.872 -11.018   1.294  0.00  0.00    -0.391 OA
HETATM    3  H   UNK N   1      24.731 -10.928   2.249  0.00  0.00     0.210 HD
ENDROOT
BRANCH   1   4
HETATM    4  C   UNK N   1      24.598 -12.151  -0.824  0.00  0.00     0.216 C 
BRANCH   4   5
HETATM    5  O   UNK N   1      23.789 -12.966  -0.019  0.00  0.00    -0.280 OA
BRANCH   5   6
HETATM    6  P   UNK N   1      22.131 -12.496  -0.290  0.00  0.00     0.422 P 
HETATM    7  O   UNK N   1      21.912 -11.473  -1.678  0.00  0.00    -0.617 OA
HETATM    8  O   UNK N   1      21.099 -13.888  -0.378  0.00  0.00    -0.617 OA
HETATM    9  O   UNK N   1      21.680 -11.684   0.953  0.00  0.00    -0.617 OA
ENDBRANCH   5   6
ENDBRANCH   4   5
ENDBRANCH   1   4
BRANCH   1  10
HETATM   10  C   UNK N   1      24.355  -9.692  -0.629  0.00  0.00     0.214 C 
BRANCH  10  11
HETATM   11  O   UNK N   1      24.753  -8.539   0.047  0.00  0.00    -0.294 OA
BRANCH  11  12
HETATM   12  P   UNK N   1      23.286  -7.867   0.691  0.00  0.00     0.393 P 
HETATM   13  O   UNK N   1      22.810  -8.802   1.837  0.00  0.00    -0.631 OA
BRANCH  12  14
HETATM   14  O   UNK N   1      22.046  -7.818  -0.526  0.00  0.00    -0.307 OA
HETATM   15  H   UNK N   1      21.725  -7.205  -1.205  0.00  0.00     0.222 HD
ENDBRANCH  12  14
BRANCH  12  16
HETATM   16  O   UNK N   1      23.616  -6.298   1.373  0.00  0.00    -0.294 OA
BRANCH  16  17
HETATM   17  C   UNK N   1      22.430  -5.869   1.974  0.00  0.00     0.214 C 
BRANCH  17  18
HETATM   18  C   UNK N   1      21.792  -4.678   1.232  0.00  0.00     0.169 C 
BRANCH  18  19
HETATM   19  C   UNK N   1      21.534  -5.000  -0.241  0.00  0.00     0.201 C 
BRANCH  19  20
HETATM   20  O   UNK N   1      20.400  -4.322  -0.692  0.00  0.00    -0.389 OA
BRANCH  20  21
HETATM   21  C   UNK N   1      19.442  -5.328  -0.839  0.00  0.00     0.168 C 
BRANCH  21  22
HETATM   22  C   UNK N   1      18.738  -5.617   0.486  0.00  0.00     0.030 C 
BRANCH  22  23
HETATM   23  C   UNK N   1      17.734  -4.530   0.862  0.00  0.00    -0.017 C 
HETATM   24  C   UNK N   1      18.319  -3.597   1.904  0.00  0.00     0.010 C 
BRANCH  23  25
HETATM   25  C   UNK N   1      16.473  -5.189   1.417  0.00  0.00     0.004 C 
BRANCH  25  26
HETATM   26  C   UNK N   1      15.928  -6.304   0.508  0.00  0.00     0.001 C 
BRANCH  26  27
HETATM   27  C   UNK N   1      15.928  -5.913  -0.973  0.00  0.00     0.004 C 
BRANCH  27  28
HETATM   28  C   UNK N   1      14.843  -4.900  -1.319  0.00  0.00    -0.019 C 
HETATM   29  C   UNK N   1      15.324  -4.085  -2.500  0.00  0.00     0.010 C 
BRANCH  28  30
HETATM   30  C   UNK N   1      13.533  -5.586  -1.717  0.00  0.00     0.004 C 
BRANCH  30  31
HETATM   31  C   UNK N   1      12.984  -6.591  -0.701  0.00  0.00     0.001 C 
BRANCH  31  32
HETATM   32  C   UNK N   1      12.925  -6.045   0.724  0.00  0.00     0.004 C 
BRANCH  32  33
HETATM   33  C   UNK N   1      11.967  -4.876   0.915  0.00  0.00    -0.019 C 
HETATM   34  C   UNK N   1      12.236  -4.291   2.284  0.00  0.00     0.010 C 
BRANCH  33  35
HETATM   35  C   UNK N   1      10.517  -5.336   0.877  0.00  0.00     0.004 C 
BRANCH  35  36
HETATM   36  C   UNK N   1      10.050  -5.674  -0.531  0.00  0.00     0.001 C 
BRANCH  36  37
HETATM   37  C   UNK N   1       8.663  -6.302  -0.499  0.00  0.00     0.004 C 
BRANCH  37  38
HETATM   38  C   UNK N   1       7.627  -5.381   0.134  0.00  0.00    -0.023 C 
HETATM   39  C   UNK N   1       6.311  -6.118   0.254  0.00  0.00     0.009 C 
HETATM   40  C   UNK N   1       7.429  -4.129  -0.700  0.00  0.00     0.009 C 
ENDBRANCH  37  38
ENDBRANCH  36  37
ENDBRANCH  35  36
ENDBRANCH  33  35
ENDBRANCH  32  33
ENDBRANCH  31  32
ENDBRANCH  30  31
ENDBRANCH  28  30
ENDBRANCH  27  28
ENDBRANCH  26  27
ENDBRANCH  25  26
ENDBRANCH  23  25
ENDBRANCH  22  23
ENDBRANCH  21  22
ENDBRANCH  20  21
ENDBRANCH  19  20
ENDBRANCH  18  19
BRANCH  18  41
HETATM   41  O   UNK N   1      22.438  -3.429   1.383  0.00  0.00    -0.382 OA
BRANCH  41  42
HETATM   42  C   UNK N   1      23.814  -3.549   1.125  0.00  0.00     0.168 C 
BRANCH  42  43
HETATM   43  C   UNK N   1      24.122  -3.313  -0.347  0.00  0.00     0.030 C 
BRANCH  43  44
HETATM   44  C   UNK N   1      25.155  -4.314  -0.849  0.00  0.00    -0.017 C 
HETATM   45  C   UNK N   1      25.443  -4.029  -2.307  0.00  0.00     0.010 C 
BRANCH  44  46
HETATM   46  C   UNK N   1      26.456  -4.176  -0.062  0.00  0.00     0.004 C 
BRANCH  46  47
HETATM   47  C   UNK N   1      26.654  -5.317   0.930  0.00  0.00     0.001 C 
BRANCH  47  48
HETATM   48  C   UNK N   1      27.051  -6.587   0.177  0.00  0.00     0.004 C 
BRANCH  48  49
HETATM   49  C   UNK N   1      28.542  -6.642  -0.131  0.00  0.00    -0.019 C 
HETATM   50  C   UNK N   1      28.843  -7.933  -0.864  0.00  0.00     0.010 C 
BRANCH  49  51
HETATM   51  C   UNK N   1      28.965  -5.446  -0.994  0.00  0.00     0.004 C 
BRANCH  51  52
HETATM   52  C   UNK N   1      30.472  -5.245  -1.065  0.00  0.00     0.001 C 
BRANCH  52  53
HETATM   53  C   UNK N   1      31.005  -4.926   0.324  0.00  0.00     0.004 C 
BRANCH  53  54
HETATM   54  C   UNK N   1      31.905  -6.045   0.837  0.00  0.00    -0.019 C 
HETATM   55  C   UNK N   1      31.554  -6.318   2.284  0.00  0.00     0.010 C 
BRANCH  54  56
HETATM   56  C   UNK N   1      33.358  -5.609   0.780  0.00  0.00     0.004 C 
BRANCH  56  57
HETATM   57  C   UNK N   1      33.854  -5.435  -0.648  0.00  0.00     0.001 C 
BRANCH  57  58
HETATM   58  C   UNK N   1      35.237  -4.798  -0.650  0.00  0.00     0.004 C 
BRANCH  58  59
HETATM   59  C   UNK N   1      36.261  -5.644   0.098  0.00  0.00    -0.023 C 
HETATM   60  C   UNK N   1      37.570  -4.890   0.182  0.00  0.00     0.009 C 
HETATM   61  C   UNK N   1      36.487  -6.969  -0.606  0.00  0.00     0.009 C 
ENDBRANCH  58  59
ENDBRANCH  57  58
ENDBRANCH  56  57
ENDBRANCH  54  56
ENDBRANCH  53  54
ENDBRANCH  52  53
ENDBRANCH  51  52
ENDBRANCH  49  51
ENDBRANCH  48  49
ENDBRANCH  47  48
ENDBRANCH  46  47
ENDBRANCH  44  46
ENDBRANCH  43  44
ENDBRANCH  42  43
ENDBRANCH  41  42
ENDBRANCH  18  41
ENDBRANCH  17  18
ENDBRANCH  16  17
ENDBRANCH  12  16
ENDBRANCH  11  12
ENDBRANCH  10  11
ENDBRANCH   1  10
TORSDOF 43
