REMARK WARNING: 32 MAX_TORS EXCEEDED!!!
REMARK  34 active torsions:
REMARK  status: ('A' for Active; 'I' for Inactive)
REMARK    1  A    between atoms: C_7  and  C_6 
REMARK    2  A    between atoms: C_18  and  C_6 
REMARK    3  A    between atoms: N_32  and  C_7 
REMARK    4  A    between atoms: C_9  and  C_8 
REMARK    5  A    between atoms: N_30  and  C_8 
REMARK    6  A    between atoms: S_63  and  C_9 
REMARK    7  A    between atoms: C_16  and  C_10 
REMARK    8  A    between atoms: C_19  and  C_10 
REMARK    9  A    between atoms: C_16  and  C_11 
REMARK   10  A    between atoms: N_41  and  C_11 
REMARK   11  A    between atoms: C_17  and  C_12 
REMARK   12  A    between atoms: O_55  and  C_12 
REMARK   13  A    between atoms: C_28  and  C_13 
REMARK   14  A    between atoms: O_56  and  C_13 
REMARK   15  A    between atoms: C_16  and  O_42 
REMARK   16  A    between atoms: N_30  and  C_18 
REMARK   17  A    between atoms: O_43  and  C_18 
REMARK   18  A    between atoms: S_63  and  C_19 
REMARK   19  A    between atoms: C_21  and  O_45 
REMARK   20  A    between atoms: C_22  and  O_58 
REMARK   21  A    between atoms: C_26  and  C_23 
REMARK   22  A    between atoms: C_28  and  C_23 
REMARK   23  A    between atoms: C_23  and  O_46 
REMARK   24  A    between atoms: N_29  and  C_24 
REMARK   25  A    between atoms: N_32  and  C_26 
REMARK   26  A    between atoms: O_47  and  C_26 
REMARK   27  A    between atoms: C_27  and  N_40 
REMARK   28  A    between atoms: P_60  and  O_49 
REMARK   29  A    between atoms: P_61  and  O_51 
REMARK   30  A    between atoms: P_61  and  O_55 
REMARK   31  A    between atoms: P_62  and  O_56 
REMARK   32  A    between atoms: P_60  and  O_58 
REMARK   33  A    between atoms: P_61  and  O_59 
REMARK   34  A    between atoms: P_62  and  O_59 
ROOT
HETATM    1  O   UNK N   1     -10.767  11.377  -0.085  0.00  0.00    -0.632 OA
HETATM    2  O   UNK N   1     -11.227  10.128   2.183  0.00  0.00    -0.307 OA
HETATM    3  P   UNK N   1     -11.356  10.048   0.453  0.00  0.00     0.391 P 
HETATM    4  H   UNK N   1     -11.152  10.088   3.149  0.00  0.00     0.222 HD
ENDROOT
BRANCH   3   5
HETATM    5  O   UNK N   1     -13.007  10.025  -0.080  0.00  0.00    -0.307 OA
HETATM    6  H   UNK N   1     -13.479  10.818  -0.378  0.00  0.00     0.222 HD
ENDBRANCH   3   5
BRANCH   3   7
HETATM    7  O   UNK N   1     -10.393   8.756  -0.238  0.00  0.00    -0.286 OA
BRANCH   7   8
HETATM    8  C   UNK N   1     -10.734   7.532   0.385  0.00  0.00     0.197 C 
HETATM    9  C   UNK N   1      -9.638   6.468   0.278  0.00  0.00     0.180 C 
HETATM   10  O   UNK N   1     -10.258   5.192   0.330  0.00  0.00    -0.353 OA
HETATM   11  C   UNK N   1     -11.643   5.452   0.428  0.00  0.00     0.262 C 
HETATM   12  C   UNK N   1     -11.872   6.789  -0.266  0.00  0.00     0.199 C 
BRANCH   9  13
HETATM   13  C   UNK N   1      -8.903   6.587  -1.042  0.00  0.00     0.215 C 
BRANCH  13  14
HETATM   14  O   UNK N   1      -7.537   6.643  -0.802  0.00  0.00    -0.294 OA
BRANCH  14  15
HETATM   15  P   UNK N   1      -6.954   8.198  -1.279  0.00  0.00     0.402 P 
HETATM   16  O   UNK N   1      -7.981   8.638  -2.371  0.00  0.00    -0.631 OA
BRANCH  15  17
HETATM   17  O   UNK N   1      -5.469   7.569  -1.926  0.00  0.00    -0.307 OA
HETATM   18  H   UNK N   1      -5.359   6.676  -2.286  0.00  0.00     0.222 HD
ENDBRANCH  15  17
BRANCH  15  19
HETATM   19  O   UNK N   1      -7.103   8.931   0.306  0.00  0.00    -0.188 OA
BRANCH  19  20
HETATM   20  P   UNK N   1      -7.021  10.665   0.228  0.00  0.00     0.417 P 
HETATM   21  O   UNK N   1      -8.017  11.167  -0.857  0.00  0.00    -0.624 OA
HETATM   22  O   UNK N   1      -5.427  11.195  -0.198  0.00  0.00    -0.624 OA
BRANCH  20  23
HETATM   23  O   UNK N   1      -7.488  11.299   1.799  0.00  0.00    -0.289 OA
BRANCH  23  24
HETATM   24  C   UNK N   1      -8.447  12.283   1.551  0.00  0.00     0.193 C 
BRANCH  24  25
HETATM   25  C   UNK N   1      -8.104  13.652   2.149  0.00  0.00     0.008 C 
HETATM   26  C   UNK N   1      -8.777  13.761   3.508  0.00  0.00     0.020 C 
HETATM   27  C   UNK N   1      -6.603  13.831   2.376  0.00  0.00     0.020 C 
BRANCH  25  28
HETATM   28  C   UNK N   1      -8.650  14.754   1.201  0.00  0.00     0.202 C 
BRANCH  28  29
HETATM   29  C   UNK N   1      -7.981  14.823  -0.159  0.00  0.00     0.141 C 
BRANCH  29  30
HETATM   30  N   UNK N   1      -7.011  14.027  -0.464  0.00  0.00    -0.372 N 
ATOM     31  HN  UNK N   1      -6.734  13.309   0.205  1.00  0.00     0.161 HD
BRANCH  30  32
HETATM   32  C   UNK N   1      -6.308  14.118  -1.718  0.00  0.00     0.129 C 
BRANCH  32  33
HETATM   33  C   UNK N   1      -5.233  15.189  -1.604  0.00  0.00     0.103 C 
BRANCH  33  34
HETATM   34  C   UNK N   1      -3.872  14.581  -1.638  0.00  0.00     0.112 C 
BRANCH  34  35
HETATM   35  N   UNK N   1      -3.522  13.730  -0.733  0.00  0.00    -0.374 N 
ATOM     36  HN  UNK N   1      -4.188  13.498   0.003  1.00  0.00     0.161 HD
BRANCH  35  37
HETATM   37  C   UNK N   1      -2.224  13.093  -0.720  0.00  0.00     0.132 C 
BRANCH  37  38
HETATM   38  C   UNK N   1      -1.109  14.117  -0.573  0.00  0.00     0.102 C 
BRANCH  38  39
HETATM   39  S   UNK N   1      -1.099  14.859   1.086  0.00  0.00    -0.091 SA
BRANCH  39  40
HETATM   40  C   UNK N   1       0.058  13.640   1.719  0.00  0.00     0.188 C 
HETATM   41  O   UNK N   1      -0.367  12.665   2.315  0.00  0.00    -0.285 OA
BRANCH  40  42
HETATM   42  C   UNK N   1       1.540  13.823   1.559  0.00  0.00     0.124 C 
BRANCH  42  43
HETATM   43  C   UNK N   1       1.983  13.878   0.096  0.00  0.00     0.152 C 
BRANCH  43  44
HETATM   44  C   UNK N   1       3.501  14.106  -0.012  0.00  0.00     0.268 C 
BRANCH  44  45
HETATM   45  N   UNK N   1       4.359  12.919   0.121  0.00  0.00    -0.076 N 
HETATM   46  C   UNK N   1       4.349  12.149  -1.113  0.00  0.00     0.271 C 
HETATM   47  C   UNK N   1       5.717  13.380   0.339  0.00  0.00     0.271 C 
HETATM   48  C   UNK N   1       3.995  12.059   1.237  0.00  0.00     0.271 C 
ENDBRANCH  44  45
ENDBRANCH  43  44
BRANCH  43  49
HETATM   49  O   UNK N   1       1.595  12.720  -0.584  0.00  0.00    -0.393 OA
HETATM   50  H   UNK N   1       0.765  12.552  -1.056  0.00  0.00     0.210 HD
ENDBRANCH  43  49
ENDBRANCH  42  43
ENDBRANCH  40  42
ENDBRANCH  39  40
ENDBRANCH  38  39
ENDBRANCH  37  38
ENDBRANCH  35  37
ENDBRANCH  34  35
BRANCH  34  51
HETATM   51  O   UNK N   1      -3.017  14.943  -2.618  0.00  0.00    -0.350 OA
HETATM   52  H   UNK N   1      -2.503  14.555  -3.298  0.00  0.00     0.219 HD
ENDBRANCH  34  51
ENDBRANCH  33  34
ENDBRANCH  32  33
ENDBRANCH  30  32
ENDBRANCH  29  30
BRANCH  29  53
HETATM   53  O   UNK N   1      -8.393  15.758  -1.042  0.00  0.00    -0.348 OA
HETATM   54  H   UNK N   1      -7.974  16.330  -1.654  0.00  0.00     0.219 HD
ENDBRANCH  29  53
ENDBRANCH  28  29
BRANCH  28  55
HETATM   55  O   UNK N   1     -10.026  14.579   1.014  0.00  0.00    -0.387 OA
HETATM   56  H   UNK N   1     -10.608  15.344   0.884  0.00  0.00     0.210 HD
ENDBRANCH  28  55
ENDBRANCH  25  28
ENDBRANCH  24  25
ENDBRANCH  23  24
ENDBRANCH  20  23
ENDBRANCH  19  20
ENDBRANCH  15  19
ENDBRANCH  14  15
ENDBRANCH  13  14
ENDBRANCH   9  13
BRANCH  11  57
HETATM   57  N   UNK N   1     -12.451   4.320  -0.042  0.00  0.00    -0.297 N 
HETATM   58  C   UNK N   1     -12.007   3.060  -0.285  0.00  0.00     0.188 A 
HETATM   59  N   UNK N   1     -13.044   2.200  -0.499  0.00  0.00    -0.346 N 
HETATM   60  C   UNK N   1     -14.141   2.966  -0.384  0.00  0.00     0.122 A 
ATOM     61  HN  UNK N   1     -12.997   1.201  -0.702  1.00  0.00     0.167 HD
HETATM   62  C   UNK N   1     -15.485   2.620  -0.443  0.00  0.00     0.131 A 
HETATM   63  C   UNK N   1     -13.789   4.241  -0.126  0.00  0.00     0.142 A 
HETATM   64  N   UNK N   1     -16.411   3.608  -0.276  0.00  0.00    -0.337 N 
HETATM   65  C   UNK N   1     -16.025   4.906  -0.043  0.00  0.00     0.183 A 
ATOM     66  HN  UNK N   1     -17.404   3.380  -0.326  1.00  0.00     0.168 HD
HETATM   67  N   UNK N   1     -14.698   5.224   0.056  0.00  0.00    -0.336 N 
ATOM     68  HN  UNK N   1     -14.402   6.178   0.263  1.00  0.00     0.168 HD
BRANCH  62  69
HETATM   69  N   UNK N   1     -15.887   1.282  -0.630  0.00  0.00    -0.383 N 
HETATM   70  H   UNK N   1     -16.837   1.058  -0.760  0.00  0.00     0.157 HD
HETATM   71  H   UNK N   1     -15.213   0.565  -0.630  0.00  0.00     0.157 HD
ENDBRANCH  62  69
ENDBRANCH  11  57
BRANCH  12  72
HETATM   72  O   UNK N   1     -13.103   7.355   0.061  0.00  0.00    -0.388 OA
HETATM   73  H   UNK N   1     -13.190   8.294   0.288  0.00  0.00     0.210 HD
ENDBRANCH  12  72
ENDBRANCH   7   8
ENDBRANCH   3   7
TORSDOF 34
