REMARK  9 active torsions:
REMARK  status: ('A' for Active; 'I' for Inactive)
REMARK    1  A    between atoms: C_2  and  C_3 
REMARK    2  A    between atoms: C_4  and  C_5 
REMARK    3  A    between atoms: C_5  and  C_7 
REMARK    4  A    between atoms: C_11  and  O_12 
REMARK    5  A    between atoms: C_20  and  S_23 
REMARK    6  A    between atoms: S_23  and  N_26 
REMARK    7  A    between atoms: N_26  and  C_27 
REMARK    8  A    between atoms: C_30  and  S_33 
REMARK    9  A    between atoms: S_33  and  N_34 
ROOT
HETATM    1  C   UNK N   1      -1.550  -0.272   0.410  0.00  0.00     0.068 A 
HETATM    2  C   UNK N   1      -0.663  -1.302   0.016  0.00  0.00     0.058 A 
HETATM    3  C   UNK N   1       0.550  -0.655  -0.166  0.00  0.00     0.015 A 
HETATM    4  C   UNK N   1       0.332   0.674   0.092  0.00  0.00     0.088 A 
HETATM    5  O   UNK N   1      -0.912   0.876   0.431  0.00  0.00    -0.313 OA
HETATM    6  C   UNK N   1       1.323   1.628   0.014  0.00  0.00     0.063 A 
HETATM    7  C   UNK N   1       2.605   1.212  -0.353  0.00  0.00     0.082 A 
HETATM    8  C   UNK N   1       2.861  -0.157  -0.625  0.00  0.00     0.026 A 
HETATM    9  C   UNK N   1       1.821  -1.111  -0.535  0.00  0.00     0.017 A 
ENDROOT
BRANCH   7  10
HETATM   10  S   UNK N   1       3.910   2.429  -0.410  0.00  0.00     0.263 S 
HETATM   11  O   UNK N   1       4.710   2.412  -1.722  0.00  0.00    -0.200 OA
HETATM   12  O   UNK N   1       3.395   3.875  -0.353  0.00  0.00    -0.200 OA
BRANCH  10  13
HETATM   13  N   UNK N   1       5.089   2.311   0.885  0.00  0.00    -0.281 N 
HETATM   14  H   UNK N   1       5.082   2.942   1.640  0.00  0.00     0.179 HD
BRANCH  13  15
HETATM   15  C   UNK N   1       6.043   1.283   0.804  0.00  0.00     0.042 A 
HETATM   16  C   UNK N   1       7.029   1.341  -0.183  0.00  0.00     0.031 A 
HETATM   17  C   UNK N   1       7.809   0.221  -0.455  0.00  0.00     0.027 A 
HETATM   18  C   UNK N   1       7.602  -0.962   0.254  0.00  0.00     0.079 A 
HETATM   19  C   UNK N   1       6.634  -1.017   1.263  0.00  0.00     0.027 A 
HETATM   20  C   UNK N   1       5.857   0.110   1.543  0.00  0.00     0.031 A 
BRANCH  18  21
HETATM   21  S   UNK N   1       8.296  -2.471  -0.387  0.00  0.00     0.256 S 
HETATM   22  O   UNK N   1       7.226  -3.046  -1.322  0.00  0.00    -0.201 OA
HETATM   23  O   UNK N   1       9.454  -2.286  -1.380  0.00  0.00    -0.201 OA
BRANCH  21  24
HETATM   24  N   UNK N   1       8.696  -3.851   0.636  0.00  0.00    -0.324 N 
HETATM   25  H   UNK N   1       8.120  -4.451   1.227  0.00  0.00     0.169 HD
HETATM   26  H   UNK N   1       9.686  -4.095   0.636  0.00  0.00     0.169 HD
ENDBRANCH  21  24
ENDBRANCH  18  21
ENDBRANCH  13  15
ENDBRANCH  10  13
ENDBRANCH   7  10
BRANCH   2  27
HETATM   27  C   UNK N   1      -0.916  -2.775  -0.120  0.00  0.00     0.195 C 
HETATM   28  O   UNK N   1       0.040  -3.540  -0.104  0.00  0.00    -0.287 OA
BRANCH  27  29
HETATM   29  C   UNK N   1      -2.286  -3.347  -0.229  0.00  0.00     0.018 A 
HETATM   30  C   UNK N   1      -2.556  -4.653   0.205  0.00  0.00     0.037 A 
HETATM   31  C   UNK N   1      -3.868  -5.148   0.181  0.00  0.00     0.046 A 
HETATM   32 Br   UNK N   1      -4.220  -6.902   0.850  0.00  0.00    -0.048 Br
HETATM   33  C   UNK N   1      -4.915  -4.344  -0.300  0.00  0.00     0.100 A 
HETATM   34  C   UNK N   1      -4.636  -3.061  -0.781  0.00  0.00     0.046 A 
HETATM   35 Br   UNK N   1      -6.019  -1.923  -1.448  0.00  0.00    -0.048 Br
HETATM   36  C   UNK N   1      -3.333  -2.580  -0.746  0.00  0.00     0.037 A 
BRANCH  33  37
HETATM   37  O   UNK N   1      -6.179  -4.802  -0.299  0.00  0.00    -0.358 OA
HETATM   38  H   UNK N   1      -6.896  -4.199  -0.298  0.00  0.00     0.217 HD
ENDBRANCH  33  37
ENDBRANCH  27  29
ENDBRANCH   2  27
BRANCH   1  39
HETATM   39  C   UNK N   1      -2.977  -0.384   0.846  0.00  0.00     0.061 C 
HETATM   40  C   UNK N   1      -3.613   0.974   1.075  0.00  0.00     0.012 C 
ENDBRANCH   1  39
TORSDOF 9
