REMARK  19 active torsions:
REMARK  status: ('A' for Active; 'I' for Inactive)
REMARK    1  A    between atoms: S_2  and  C_3 
REMARK    2  A    between atoms: C_3  and  N_4 
REMARK    3  A    between atoms: N_5  and  C_7 
REMARK    4  A    between atoms: C_7  and  C_8 
REMARK    5  A    between atoms: C_8  and  C_9 
REMARK    6  A    between atoms: C_9  and  C_10 
REMARK    7  A    between atoms: C_10  and  C_11 
REMARK    8  A    between atoms: C_11  and  C_12 
REMARK    9  A    between atoms: C_12  and  C_13 
REMARK   10  A    between atoms: C_13  and  C_14 
REMARK   11  A    between atoms: C_14  and  C_15 
REMARK   12  A    between atoms: C_15  and  C_16 
REMARK   13  A    between atoms: C_16  and  C_17 
REMARK   14  A    between atoms: C_17  and  C_18 
REMARK   15  A    between atoms: C_18  and  C_19 
REMARK   16  A    between atoms: C_19  and  C_20 
REMARK   17  A    between atoms: C_20  and  N_21 
REMARK   18  A    between atoms: C_23  and  N_24 
REMARK   19  A    between atoms: C_23  and  S_25 
ROOT
HETATM    1  C   UNK N   1      10.735   5.162   0.000  0.00  0.00     0.000 C 
ENDROOT
BRANCH   1   2
HETATM    2  C   UNK N   1       9.707   4.057   0.000  0.00  0.00     0.000 C 
BRANCH   2   3
HETATM    3  C   UNK N   1       8.343   4.686  -0.000  0.00  0.00     0.000 C 
BRANCH   3   4
HETATM    4  C   UNK N   1       7.269   3.627   0.000  0.00  0.00     0.000 C 
BRANCH   4   5
HETATM    5  C   UNK N   1       5.968   4.382  -0.000  0.00  0.00     0.002 C 
BRANCH   5   6
HETATM    6  C   UNK N   1       4.765   3.475   0.000  0.00  0.00     0.020 C 
BRANCH   6   7
HETATM    7  C   UNK N   1       3.583   4.412   0.000  0.00  0.00     0.121 C 
BRANCH   7   8
HETATM    8  N   UNK N   1       2.336   3.697   0.000  0.00  0.00    -0.371 N 
HETATM    9  C   UNK N   1       1.216   4.330   0.000  0.00  0.00     0.133 C 
ATOM     10  HN  UNK N   1       2.340   2.677   0.000  1.00  0.00     0.161 HD
BRANCH   9  11
HETATM   11  S   UNK N   1      -0.321   3.390  -0.000  0.00  0.00    -0.099 SA
HETATM   12  C   UNK N   1      -1.439   4.827   0.000  0.00  0.00     0.099 C 
ENDBRANCH   9  11
BRANCH   9  13
HETATM   13  N   UNK N   1       1.194   5.750  -0.000  0.00  0.00    -0.380 N 
HETATM   14  H   UNK N   1       2.038   6.256  -0.000  0.00  0.00     0.158 HD
HETATM   15  H   UNK N   1       0.333   6.229  -0.000  0.00  0.00     0.158 HD
ENDBRANCH   9  13
ENDBRANCH   7   8
ENDBRANCH   6   7
ENDBRANCH   5   6
ENDBRANCH   4   5
ENDBRANCH   3   4
ENDBRANCH   2   3
ENDBRANCH   1   2
BRANCH   1  16
HETATM   16  C   UNK N   1      12.087   4.511   0.000  0.00  0.00     0.000 C 
BRANCH  16  17
HETATM   17  C   UNK N   1      13.192   5.536   0.000  0.00  0.00     0.000 C 
BRANCH  17  18
HETATM   18  C   UNK N   1      14.461   4.729  -0.000  0.00  0.00     0.000 C 
BRANCH  18  19
HETATM   19  C   UNK N   1      15.705   5.576   0.000  0.00  0.00     0.000 C 
BRANCH  19  20
HETATM   20  C   UNK N   1      16.833   4.577   0.000  0.00  0.00     0.002 C 
BRANCH  20  21
HETATM   21  C   UNK N   1      18.189   5.229   0.000  0.00  0.00     0.020 C 
BRANCH  21  22
HETATM   22  C   UNK N   1      19.189   4.096   0.000  0.00  0.00     0.121 C 
BRANCH  22  23
HETATM   23  N   UNK N   1      20.531   4.609   0.000  0.00  0.00    -0.371 N 
HETATM   24  C   UNK N   1      21.553   3.825   0.000  0.00  0.00     0.133 C 
ATOM     25  HN  UNK N   1      20.679   5.619   0.000  1.00  0.00     0.161 HD
BRANCH  24  26
HETATM   26  N   UNK N   1      21.382   2.418  -0.000  0.00  0.00    -0.380 N 
HETATM   27  H   UNK N   1      20.477   2.032  -0.000  0.00  0.00     0.158 HD
HETATM   28  H   UNK N   1      22.170   1.826  -0.000  0.00  0.00     0.158 HD
ENDBRANCH  24  26
BRANCH  24  29
HETATM   29  S   UNK N   1      23.229   4.493  -0.000  0.00  0.00    -0.099 SA
HETATM   30  C   UNK N   1      22.769   6.254   0.000  0.00  0.00     0.099 C 
ENDBRANCH  24  29
ENDBRANCH  22  23
ENDBRANCH  21  22
ENDBRANCH  20  21
ENDBRANCH  19  20
ENDBRANCH  18  19
ENDBRANCH  17  18
ENDBRANCH  16  17
ENDBRANCH   1  16
TORSDOF 19
