REMARK  2 active torsions:
REMARK  status: ('A' for Active; 'I' for Inactive)
REMARK    1  A    between atoms: O_1  and  S_2 
REMARK    2  A    between atoms: S_2  and  C_5 
ROOT
HETATM    1  C   UNK N   1      -2.038  -3.536  -0.000  0.00  0.00     0.073 A 
HETATM    2  C   UNK N   1      -3.374  -3.070  -0.023  0.00  0.00     0.027 A 
HETATM    3  C   UNK N   1      -3.642  -1.683   0.032  0.00  0.00     0.032 A 
HETATM    4  C   UNK N   1      -2.552  -0.810   0.099  0.00  0.00     0.046 A 
HETATM    5  N   UNK N   1      -2.578   0.603   0.065  0.00  0.00    -0.322 N 
HETATM    6  C   UNK N   1      -1.290   1.019   0.067  0.00  0.00     0.259 A 
HETATM    7  O   UNK N   1      -0.967   2.197   0.017  0.00  0.00    -0.267 OA
HETATM    8  C   UNK N   1      -0.365  -0.128   0.132  0.00  0.00     0.075 A 
HETATM    9  C   UNK N   1      -1.261  -1.279   0.141  0.00  0.00     0.010 A 
HETATM   10  C   UNK N   1      -0.986  -2.630   0.086  0.00  0.00     0.040 A 
HETATM   11  C   UNK N   1       0.987  -0.125   0.138  0.00  0.00     0.101 A 
HETATM   12  N   UNK N   1       1.774   1.051   0.022  0.00  0.00    -0.351 N 
HETATM   13  C   UNK N   1       3.126   0.628  -0.014  0.00  0.00     0.047 A 
HETATM   14  C   UNK N   1       4.251   1.433  -0.165  0.00  0.00     0.030 A 
HETATM   15  C   UNK N   1       5.513   0.807  -0.186  0.00  0.00     0.002 A 
HETATM   16  C   UNK N   1       5.623  -0.595  -0.052  0.00  0.00     0.001 A 
HETATM   17  C   UNK N   1       4.472  -1.385   0.097  0.00  0.00     0.018 A 
HETATM   18  C   UNK N   1       3.239  -0.740   0.108  0.00  0.00     0.043 A 
HETATM   19  C   UNK N   1       1.907  -1.281   0.221  0.00  0.00     0.212 A 
HETATM   20  O   UNK N   1       1.638  -2.460   0.379  0.00  0.00    -0.285 OA
HETATM   21  H   UNK N   1      -3.379   1.175   0.043  0.00  0.00     0.169 HD
HETATM   22  H   UNK N   1       1.445   1.978  -0.024  0.00  0.00     0.166 HD
ENDROOT
BRANCH   1  23
HETATM   23  S   UNK N   1      -1.618  -5.254  -0.240  0.00  0.00     0.129 S 
HETATM   24  O   UNK N   1      -0.438  -5.331  -1.222  0.00  0.00    -0.598 OA
HETATM   25  O   UNK N   1      -2.682  -6.037  -1.022  0.00  0.00    -0.598 OA
BRANCH  23  26
HETATM   26  O   UNK N   1      -1.133  -6.244   1.075  0.00  0.00    -0.292 OA
HETATM   27  H   UNK N   1      -1.480  -6.761   1.819  0.00  0.00     0.232 HD
ENDBRANCH  23  26
ENDBRANCH   1  23
TORSDOF 2
