REMARK  9 active torsions:
REMARK  status: ('A' for Active; 'I' for Inactive)
REMARK    1  A    between atoms: C_5  and  C_3 
REMARK    2  A    between atoms: O_18  and  C_3 
REMARK    3  A    between atoms: C_6  and  C_4 
REMARK    4  A    between atoms: O_19  and  C_4 
REMARK    5  A    between atoms: C_7  and  O_20 
REMARK    6  A    between atoms: C_8  and  O_21 
REMARK    7  A    between atoms: C_11  and  O_24 
REMARK    8  A    between atoms: C_12  and  O_26 
REMARK    9  A    between atoms: C_14  and  O_26 
ROOT
HETATM    1  C   UNK N   1      -2.437   1.027  -0.957  0.00  0.00     0.106 A 
HETATM    2  C   UNK N   1      -1.586   0.016  -0.524  0.00  0.00     0.110 A 
HETATM    3  C   UNK N   1       0.648   0.060   0.744  0.00  0.00     0.146 C 
HETATM    4  C   UNK N   1       1.569   2.375  -0.068  0.00  0.00     0.185 C 
HETATM    5  C   UNK N   1       0.250   2.881   0.550  0.00  0.00     0.217 C 
HETATM    6  C   UNK N   1       1.938   0.893   0.356  0.00  0.00     0.181 C 
HETATM    7  C   UNK N   1      -0.780   1.919   0.060  0.00  0.00     0.115 A 
HETATM    8  N   UNK N   1      -1.912   2.222  -0.600  0.00  0.00    -0.352 N 
ATOM      9  HN  UNK N   1      -2.292   3.149  -0.790  1.00  0.00     0.166 HD
HETATM   10  N   UNK N   1      -0.557   0.605   0.107  0.00  0.00    -0.334 N 
HETATM   11  O   UNK N   1       1.436   2.435  -1.463  0.00  0.00    -0.390 OA
HETATM   12  O   UNK N   1       0.328   2.847   1.945  0.00  0.00    -0.385 OA
HETATM   13  H   UNK N   1       1.426   2.535  -2.427  0.00  0.00     0.210 HD
HETATM   14  H   UNK N   1       0.335   2.789   2.913  0.00  0.00     0.210 HD
ENDROOT
BRANCH   6  15
HETATM   15  O   UNK N   1       2.663   0.229  -0.673  0.00  0.00    -0.348 OA
BRANCH  15  16
HETATM   16  C   UNK N   1       4.037   0.598  -0.801  0.00  0.00     0.292 C 
HETATM   17  C   UNK N   1       4.997   0.021   0.295  0.00  0.00     0.204 C 
HETATM   18  C   UNK N   1       6.396   0.542  -0.069  0.00  0.00     0.183 C 
HETATM   19  C   UNK N   1       6.424   2.086  -0.028  0.00  0.00     0.180 C 
HETATM   20  C   UNK N   1       4.994   2.676  -0.161  0.00  0.00     0.179 C 
HETATM   21  O   UNK N   1       4.216   1.983  -1.122  0.00  0.00    -0.348 OA
BRANCH  17  22
HETATM   22  O   UNK N   1       4.973  -1.376   0.266  0.00  0.00    -0.388 OA
HETATM   23  H   UNK N   1       4.125  -1.847   0.246  0.00  0.00     0.210 HD
ENDBRANCH  17  22
BRANCH  18  24
HETATM   24  O   UNK N   1       7.389   0.015   0.761  0.00  0.00    -0.390 OA
HETATM   25  H   UNK N   1       7.417  -0.765   1.337  0.00  0.00     0.210 HD
ENDBRANCH  18  24
BRANCH  19  26
HETATM   26  O   UNK N   1       7.271   2.552  -1.038  0.00  0.00    -0.390 OA
HETATM   27  H   UNK N   1       7.845   2.205  -1.739  0.00  0.00     0.210 HD
ENDBRANCH  19  26
BRANCH  20  28
HETATM   28  C   UNK N   1       5.014   4.163  -0.512  0.00  0.00     0.198 C 
BRANCH  28  29
HETATM   29  O   UNK N   1       5.696   4.898   0.459  0.00  0.00    -0.398 OA
HETATM   30  H   UNK N   1       6.375   4.742   1.134  0.00  0.00     0.209 HD
ENDBRANCH  28  29
ENDBRANCH  20  28
ENDBRANCH  15  16
ENDBRANCH   6  15
BRANCH   3  31
HETATM   31  C   UNK N   1       0.775  -1.460   0.604  0.00  0.00     0.192 C 
BRANCH  31  32
HETATM   32  O   UNK N   1       0.823  -1.836  -0.741  0.00  0.00    -0.399 OA
HETATM   33  H   UNK N   1       0.614  -1.995  -1.675  0.00  0.00     0.209 HD
ENDBRANCH  31  32
ENDBRANCH   3  31
TORSDOF 9
