REMARK  4 active torsions:
REMARK  status: ('A' for Active; 'I' for Inactive)
REMARK    1  A    between atoms: C_2  and  C_1 
REMARK    2  A    between atoms: O_9  and  C_1 
REMARK    3  A    between atoms: C_4  and  O_10 
REMARK    4  A    between atoms: C_5  and  O_11 
ROOT
HETATM    1  C   UNK N   1       1.876   0.569   0.023  0.00  0.00     0.179 C 
HETATM    2  C   UNK N   1      -0.510  -1.009   0.220  0.00  0.00     0.261 C 
HETATM    3  C   UNK N   1       0.506   1.273   0.168  0.00  0.00     0.180 C 
HETATM    4  C   UNK N   1      -0.576   0.372  -0.439  0.00  0.00     0.188 C 
HETATM    5  C   UNK N   1       0.918  -1.565   0.103  0.00  0.00     0.344 C 
HETATM    6  F   UNK N   1      -1.409  -1.872  -0.384  0.00  0.00    -0.241 F 
HETATM    7  F   UNK N   1       1.255  -1.829  -1.217  0.00  0.00    -0.216 F 
HETATM    8  O   UNK N   1       1.856  -0.682   0.697  0.00  0.00    -0.344 OA
ENDROOT
BRANCH   1   9
HETATM    9  C   UNK N   1       3.000   1.403   0.633  0.00  0.00     0.198 C 
BRANCH   9  10
HETATM   10  O   UNK N   1       3.239   2.551  -0.126  0.00  0.00    -0.398 OA
HETATM   11  H   UNK N   1       4.012   2.807  -0.652  0.00  0.00     0.209 HD
ENDBRANCH   9  10
ENDBRANCH   1   9
BRANCH   3  12
HETATM   12  O   UNK N   1       0.507   2.507  -0.490  0.00  0.00    -0.390 OA
HETATM   13  H   UNK N   1       1.248   2.934  -0.947  0.00  0.00     0.210 HD
ENDBRANCH   3  12
BRANCH   4  14
HETATM   14  O   UNK N   1      -1.841   0.934  -0.246  0.00  0.00    -0.390 OA
HETATM   15  H   UNK N   1      -1.941   1.890  -0.111  0.00  0.00     0.210 HD
ENDBRANCH   4  14
TORSDOF 4
