REMARK  16 active torsions:
REMARK  status: ('A' for Active; 'I' for Inactive)
REMARK    1  A    between atoms: C_25  and  C_19 
REMARK    2  A    between atoms: C_26  and  C_19 
REMARK    3  A    between atoms: C_26  and  C_20 
REMARK    4  A    between atoms: C_27  and  C_20 
REMARK    5  A    between atoms: C_27  and  C_22 
REMARK    6  A    between atoms: N_49  and  C_22 
REMARK    7  A    between atoms: C_26  and  C_34 
REMARK    8  A    between atoms: C_27  and  O_51 
REMARK    9  A    between atoms: C_36  and  C_28 
REMARK   10  A    between atoms: C_29  and  C_35 
REMARK   11  A    between atoms: C_30  and  O_52 
REMARK   12  A    between atoms: C_31  and  N_43 
REMARK   13  A    between atoms: N_48  and  C_33 
REMARK   14  A    between atoms: C_34  and  O_53 
REMARK   15  A    between atoms: O_54  and  C_35 
REMARK       I    between atoms: N_50  and  C_36 
REMARK   16  A    between atoms: N_45  and  C_37 
ROOT
HETATM    1  C   UNK N   1       2.820   5.687  -1.463  0.00  0.00     0.137 C 
HETATM    2  C   UNK N   1       3.722   6.088  -0.294  0.00  0.00     0.145 C 
HETATM    3  C   UNK N   1       2.070   7.779   0.389  0.00  0.00     0.159 C 
HETATM    4  C   UNK N   1       1.181   7.390  -0.786  0.00  0.00     0.172 C 
HETATM    5  C   UNK N   1       4.439   8.388   0.127  0.00  0.00     0.271 C 
HETATM    6  N   UNK N   1       1.411   5.965  -1.157  0.00  0.00    -0.396 N 
HETATM    7  N   UNK N   1       3.443   7.447   0.098  0.00  0.00    -0.343 N 
HETATM    8  O   UNK N   1       4.165   9.574   0.231  0.00  0.00    -0.266 OA
ENDROOT
BRANCH   6   9
HETATM    9  C   UNK N   1       0.753   4.879  -0.392  0.00  0.00     0.149 C 
BRANCH   9  10
HETATM   10  C   UNK N   1       1.218   4.595   1.054  0.00  0.00     0.136 C 
BRANCH  10  11
HETATM   11  C   UNK N   1       2.642   3.993   1.164  0.00  0.00     0.046 C 
BRANCH  11  12
HETATM   12  C   UNK N   1       2.840   2.654   0.448  0.00  0.00     0.067 C 
BRANCH  12  13
HETATM   13  C   UNK N   1       2.351   1.520   1.362  0.00  0.00     0.051 C 
BRANCH  13  14
HETATM   14  C   UNK N   1       1.981   0.284   0.597  0.00  0.00    -0.057 A 
HETATM   15  C   UNK N   1       2.938  -0.436  -0.131  0.00  0.00     0.007 A 
HETATM   16  C   UNK N   1       2.572  -1.568  -0.857  0.00  0.00     0.001 A 
HETATM   17  C   UNK N   1       1.242  -1.993  -0.857  0.00  0.00     0.000 A 
HETATM   18  C   UNK N   1       0.283  -1.285  -0.126  0.00  0.00     0.001 A 
HETATM   19  C   UNK N   1       0.652  -0.147   0.599  0.00  0.00     0.007 A 
ENDBRANCH  13  14
ENDBRANCH  12  13
BRANCH  12  20
HETATM   20  C   UNK N   1       4.272   2.466  -0.044  0.00  0.00     0.116 C 
HETATM   21  N   UNK N   1       4.961   1.434   0.324  0.00  0.00    -0.367 N 
ATOM     22  HN  UNK N   1       4.584   0.869   1.085  1.00  0.00     0.161 HD
BRANCH  21  23
HETATM   23  C   UNK N   1       6.229   1.010  -0.257  0.00  0.00     0.115 C 
HETATM   24  C   UNK N   1       6.702  -0.306   0.351  0.00  0.00     0.007 C 
HETATM   25  C   UNK N   1       6.752  -0.264   1.877  0.00  0.00     0.012 C 
HETATM   26  C   UNK N   1       8.124  -0.428  -0.181  0.00  0.00     0.009 C 
HETATM   27  C   UNK N   1       8.600   1.006  -0.440  0.00  0.00     0.034 C 
HETATM   28  C   UNK N   1       7.437   1.908  -0.050  0.00  0.00     0.141 C 
BRANCH  28  29
HETATM   29  O   UNK N   1       7.405   3.035  -0.870  0.00  0.00    -0.394 OA
HETATM   30  H   UNK N   1       8.073   3.446  -1.440  0.00  0.00     0.210 HD
ENDBRANCH  28  29
ENDBRANCH  21  23
BRANCH  20  31
HETATM   31  O   UNK N   1       4.761   3.321  -0.964  0.00  0.00    -0.349 OA
HETATM   32  H   UNK N   1       5.446   3.323  -1.603  0.00  0.00     0.219 HD
ENDBRANCH  20  31
ENDBRANCH  12  20
ENDBRANCH  11  12
ENDBRANCH  10  11
BRANCH  10  33
HETATM   33  O   UNK N   1       0.305   3.712   1.633  0.00  0.00    -0.394 OA
HETATM   34  H   UNK N   1      -0.543   3.955   2.035  0.00  0.00     0.210 HD
ENDBRANCH  10  33
ENDBRANCH   9  10
ENDBRANCH   6   9
BRANCH   4  35
HETATM   35  C   UNK N   1      -0.288   7.743  -0.541  0.00  0.00     0.136 C 
HETATM   36  N   UNK N   1      -0.705   8.945  -0.261  0.00  0.00    -0.365 N 
ATOM     37  HN  UNK N   1      -1.716   9.045  -0.180  1.00  0.00     0.162 HD
BRANCH  36  38
HETATM   38  C   UNK N   1       0.058  10.172  -0.046  0.00  0.00     0.021 C 
HETATM   39  C   UNK N   1       0.795  10.149   1.281  0.00  0.00     0.037 C 
HETATM   40  C   UNK N   1      -0.925  11.319   0.038  0.00  0.00     0.037 C 
HETATM   41  C   UNK N   1       1.008  10.476  -1.192  0.00  0.00     0.037 C 
ENDBRANCH  36  38
BRANCH  35  42
HETATM   42  O   UNK N   1      -1.217   6.776  -0.669  0.00  0.00    -0.348 OA
HETATM   43  H   UNK N   1      -2.123   7.000  -0.758  0.00  0.00     0.219 HD
ENDBRANCH  35  42
ENDBRANCH   4  35
BRANCH   5  44
HETATM   44  C   UNK N   1       5.858   7.960   0.068  0.00  0.00     0.117 A 
HETATM   45  C   UNK N   1       6.887   8.759  -0.447  0.00  0.00     0.125 A 
HETATM   46  N   UNK N   1       8.153   8.248  -0.518  0.00  0.00    -0.347 N 
HETATM   47  C   UNK N   1       8.441   6.992  -0.059  0.00  0.00     0.142 A 
ATOM     48  HN  UNK N   1       8.899   8.815  -0.921  1.00  0.00     0.167 HD
HETATM   49  C   UNK N   1       7.422   6.259   0.573  0.00  0.00     0.148 A 
HETATM   50 Cl   UNK N   1       7.712   4.776   1.451  0.00  0.00    -0.060 Cl
HETATM   51  N   UNK N   1       6.175   6.758   0.598  0.00  0.00    -0.338 N 
ATOM     52  HN  UNK N   1       5.436   6.206   1.035  1.00  0.00     0.167 HD
BRANCH  47  53
HETATM   53  N   UNK N   1       9.736   6.428  -0.258  0.00  0.00    -0.361 N 
HETATM   54  C   UNK N   1      10.920   7.244  -0.336  0.00  0.00     0.154 C 
HETATM   55  C   UNK N   1      11.982   6.595   0.565  0.00  0.00     0.291 C 
HETATM   56  N   UNK N   1      12.190   5.191   0.181  0.00  0.00     0.087 N 
HETATM   57  C   UNK N   1      13.154   4.615   1.099  0.00  0.00     0.310 C 
HETATM   58  C   UNK N   1      10.950   4.438   0.356  0.00  0.00     0.291 C 
HETATM   59  C   UNK N   1       9.880   5.018  -0.549  0.00  0.00     0.154 C 
ENDBRANCH  47  53
ENDBRANCH   5  44
TORSDOF 16
