REMARK  13 active torsions:
REMARK  status: ('A' for Active; 'I' for Inactive)
REMARK    1  A    between atoms: C_2  and  C_1 
REMARK    2  A    between atoms: C_8  and  C_1 
REMARK    3  A    between atoms: C_9  and  C_2 
REMARK    4  A    between atoms: C_4  and  C_3 
REMARK    5  A    between atoms: C_7  and  C_3 
REMARK    6  A    between atoms: N_11  and  C_4 
REMARK    7  A    between atoms: C_7  and  C_5 
REMARK    8  A    between atoms: C_10  and  C_5 
REMARK    9  A    between atoms: C_8  and  C_6 
REMARK   10  A    between atoms: N_12  and  C_6 
REMARK   11  A    between atoms: C_8  and  C_7 
REMARK   12  A    between atoms: O_14  and  C_9 
REMARK   13  A    between atoms: O_16  and  C_10 
ROOT
HETATM    1  C   UNK N   1       1.625  -3.408   0.309  0.00  0.00     0.002 C 
ENDROOT
BRANCH   1   2
HETATM    2  C   UNK N   1       2.622  -4.506   0.703  0.00  0.00     0.024 C 
BRANCH   2   3
HETATM    3  C   UNK N   1       3.140  -5.311  -0.480  0.00  0.00     0.111 C 
BRANCH   3   4
HETATM    4  N   UNK N   1       4.133  -6.262  -0.016  0.00  0.00    -0.430 N 
HETATM    5  H   UNK N   1       3.903  -7.201   0.310  0.00  0.00     0.149 HD
HETATM    6  H   UNK N   1       5.112  -5.977  -0.016  0.00  0.00     0.149 HD
ENDBRANCH   3   4
ENDBRANCH   2   3
ENDBRANCH   1   2
BRANCH   1   7
HETATM    7  C   UNK N   1       2.346  -2.427  -0.634  0.00  0.00     0.115 C 
BRANCH   7   8
HETATM    8  C   UNK N   1       2.259  -0.987  -0.219  0.00  0.00     0.139 C 
HETATM    9  O   UNK N   1       1.183  -0.415  -0.182  0.00  0.00    -0.650 OA
BRANCH   8  10
HETATM   10  O   UNK N   1       3.384  -0.311   0.078  0.00  0.00    -0.776 OA
HETATM   11  H   UNK N   1       4.183  -0.754   0.284  0.00  0.00     0.167 HD
ENDBRANCH   8  10
ENDBRANCH   7   8
ENDBRANCH   1   7
BRANCH   1  12
HETATM   12  C   UNK N   1       0.328  -3.974  -0.346  0.00  0.00     0.008 C 
BRANCH  12  13
HETATM   13  C   UNK N   1      -0.669  -2.865  -0.700  0.00  0.00     0.017 C 
BRANCH  13  14
HETATM   14  C   UNK N   1      -1.138  -2.063   0.510  0.00  0.00     0.110 C 
BRANCH  14  15
HETATM   15  C   UNK N   1      -2.161  -1.063   0.093  0.00  0.00     0.139 C 
HETATM   16  O   UNK N   1      -3.277  -1.429  -0.237  0.00  0.00    -0.650 OA
BRANCH  15  17
HETATM   17  O   UNK N   1      -1.856   0.248   0.087  0.00  0.00    -0.776 OA
HETATM   18  H   UNK N   1      -0.959   0.520   0.083  0.00  0.00     0.167 HD
ENDBRANCH  15  17
ENDBRANCH  14  15
ENDBRANCH  13  14
ENDBRANCH  12  13
BRANCH  12  19
HETATM   19  C   UNK N   1      -0.402  -4.996   0.537  0.00  0.00     0.116 C 
BRANCH  19  20
HETATM   20  N   UNK N   1       0.277  -6.282   0.541  0.00  0.00    -0.430 N 
HETATM   21  H   UNK N   1      -0.265  -7.145   0.544  0.00  0.00     0.149 HD
HETATM   22  H   UNK N   1       1.297  -6.320   0.541  0.00  0.00     0.149 HD
ENDBRANCH  19  20
ENDBRANCH  12  19
ENDBRANCH   1  12
TORSDOF 13
