REMARK  6 active torsions:
REMARK  status: ('A' for Active; 'I' for Inactive)
REMARK    1  A    between atoms: C_11  and  C_6 
REMARK    2  A    between atoms: O_17  and  C_6 
REMARK    3  A    between atoms: O_22  and  C_8 
REMARK    4  A    between atoms: C_13  and  O_19 
REMARK    5  A    between atoms: C_14  and  O_20 
REMARK    6  A    between atoms: C_16  and  O_22 
ROOT
HETATM    1  C   UNK N   1      -1.097  -3.140   0.348  0.00  0.00     0.179 C 
HETATM    2  C   UNK N   1      -0.100  -4.218  -0.181  0.00  0.00     0.180 C 
HETATM    3  C   UNK N   1       1.233  -3.595  -0.631  0.00  0.00     0.183 C 
HETATM    4  C   UNK N   1       1.441  -2.264   0.052  0.00  0.00     0.205 C 
HETATM    5  C   UNK N   1       0.255  -1.320  -0.381  0.00  0.00     0.298 C 
HETATM    6  O   UNK N   1       1.501  -2.417   1.442  0.00  0.00    -0.388 OA
HETATM    7  O   UNK N   1      -1.040  -1.932  -0.387  0.00  0.00    -0.348 OA
HETATM    8  H   UNK N   1       1.429  -2.506   2.406  0.00  0.00     0.210 HD
ENDROOT
BRANCH   3   9
HETATM    9  O   UNK N   1       2.312  -4.458  -0.412  0.00  0.00    -0.390 OA
HETATM   10  H   UNK N   1       2.168  -5.405  -0.260  0.00  0.00     0.210 HD
ENDBRANCH   3   9
BRANCH   5  11
HETATM   11  O   UNK N   1       0.226  -0.089   0.287  0.00  0.00    -0.318 OA
BRANCH  11  12
HETATM   12  C   UNK N   1       1.300   0.737   0.230  0.00  0.00     0.074 A 
HETATM   13  C   UNK N   1       1.230   1.947  -0.475  0.00  0.00     0.038 A 
HETATM   14  C   UNK N   1       2.413   2.635  -0.792  0.00  0.00     0.017 A 
HETATM   15  C   UNK N   1       3.660   2.092  -0.430  0.00  0.00     0.004 A 
HETATM   16  C   UNK N   1       4.878   2.647  -0.849  0.00  0.00    -0.043 A 
HETATM   17  C   UNK N   1       3.704   0.919   0.349  0.00  0.00     0.092 A 
HETATM   18  C   UNK N   1       4.928   3.866  -1.705  0.00  0.00     0.049 C 
HETATM   19  C   UNK N   1       6.070   2.007  -0.502  0.00  0.00     0.090 A 
HETATM   20  C   UNK N   1       6.024   0.841   0.271  0.00  0.00     0.288 A 
HETATM   21  O   UNK N   1       7.051   0.262   0.560  0.00  0.00    -0.260 OA
HETATM   22  O   UNK N   1       4.857   0.352   0.670  0.00  0.00    -0.275 OA
HETATM   23  C   UNK N   1       2.532   0.284   0.690  0.00  0.00     0.075 A 
ENDBRANCH  11  12
ENDBRANCH   5  11
BRANCH   2  24
HETATM   24  O   UNK N   1       0.120  -5.149   0.840  0.00  0.00    -0.390 OA
HETATM   25  H   UNK N   1      -0.362  -5.604   1.549  0.00  0.00     0.210 HD
ENDBRANCH   2  24
BRANCH   1  26
HETATM   26  C   UNK N   1      -2.524  -3.674   0.318  0.00  0.00     0.198 C 
BRANCH  26  27
HETATM   27  O   UNK N   1      -2.653  -4.799   1.134  0.00  0.00    -0.398 OA
HETATM   28  H   UNK N   1      -3.375  -5.113   1.701  0.00  0.00     0.209 HD
ENDBRANCH  26  27
ENDBRANCH   1  26
TORSDOF 6
