REMARK  27 active torsions:
REMARK  status: ('A' for Active; 'I' for Inactive)
REMARK    1  A    between atoms: C_1  and  N_38 
REMARK    2  A    between atoms: C_3  and  O_6 
REMARK    3  A    between atoms: C_4  and  C_32 
REMARK    4  A    between atoms: C_5  and  O_33 
REMARK    5  A    between atoms: N_9  and  C_7 
REMARK    6  A    between atoms: C_7  and  C_8 
REMARK    7  A    between atoms: C_8  and  S_51 
REMARK       I    between atoms: C_10  and  N_9 
REMARK    8  A    between atoms: C_13  and  C_10 
REMARK    9  A    between atoms: C_12  and  N_14 
REMARK   10  A    between atoms: C_13  and  C_12 
REMARK       I    between atoms: C_16  and  N_14 
REMARK   11  A    between atoms: C_16  and  C_21 
REMARK   12  A    between atoms: C_19  and  C_17 
REMARK   13  A    between atoms: C_17  and  O_23 
REMARK   14  A    between atoms: C_21  and  C_19 
REMARK   15  A    between atoms: C_21  and  O_22 
REMARK   16  A    between atoms: O_23  and  P_30 
REMARK   17  A    between atoms: P_30  and  O_24 
REMARK   18  A    between atoms: O_24  and  P_31 
REMARK   19  A    between atoms: P_31  and  O_25 
REMARK   20  A    between atoms: C_32  and  O_25 
REMARK   21  A    between atoms: P_30  and  O_27 
REMARK   22  A    between atoms: P_31  and  O_29 
REMARK   23  A    between atoms: O_33  and  P_36 
REMARK   24  A    between atoms: P_36  and  O_35 
REMARK   25  A    between atoms: N_50  and  C_46 
REMARK   26  A    between atoms: S_51  and  C_54 
REMARK   27  A    between atoms: C_54  and  C_52 
ROOT
HETATM    1  O   UNK N   1      23.283  -5.538   0.182  0.00  0.00    -0.307 OA
HETATM    2  P   UNK N   1      23.357  -5.728   1.904  0.00  0.00     0.391 P 
HETATM    3  O   UNK N   1      24.674  -6.252   1.273  0.00  0.00    -0.632 OA
HETATM    4  H   UNK N   1      23.355  -5.449  -0.782  0.00  0.00     0.222 HD
ENDROOT
BRANCH   2   5
HETATM    5  O   UNK N   1      23.070  -4.033   1.431  0.00  0.00    -0.286 OA
BRANCH   5   6
HETATM    6  C   UNK N   1      24.048  -3.023   1.627  0.00  0.00     0.197 C 
HETATM    7  C   UNK N   1      25.417  -3.287   1.073  0.00  0.00     0.199 C 
HETATM    8  C   UNK N   1      25.907  -1.841   1.154  0.00  0.00     0.262 C 
HETATM    9  O   UNK N   1      24.867  -0.988   0.731  0.00  0.00    -0.353 OA
HETATM   10  C   UNK N   1      23.731  -1.807   0.774  0.00  0.00     0.180 C 
BRANCH   7  11
HETATM   11  O   UNK N   1      25.312  -3.697  -0.267  0.00  0.00    -0.388 OA
HETATM   12  H   UNK N   1      25.031  -3.776  -1.192  0.00  0.00     0.210 HD
ENDBRANCH   7  11
BRANCH   8  13
HETATM   13  N   UNK N   1      27.166  -1.554   0.463  0.00  0.00    -0.297 N 
HETATM   14  C   UNK N   1      28.057  -2.384  -0.105  0.00  0.00     0.142 A 
HETATM   15  C   UNK N   1      29.102  -1.667  -0.559  0.00  0.00     0.122 A 
HETATM   16  N   UNK N   1      28.004  -3.733  -0.208  0.00  0.00    -0.336 N 
HETATM   17  C   UNK N   1      30.174  -2.306  -1.160  0.00  0.00     0.131 A 
HETATM   18  N   UNK N   1      28.911  -0.362  -0.303  0.00  0.00    -0.346 N 
HETATM   19  N   UNK N   1      30.128  -3.666  -1.278  0.00  0.00    -0.337 N 
HETATM   20  C   UNK N   1      29.051  -4.378  -0.809  0.00  0.00     0.183 A 
ATOM     21  HN  UNK N   1      30.903  -4.159  -1.719  1.00  0.00     0.168 HD
HETATM   22  C   UNK N   1      27.709  -0.317   0.337  0.00  0.00     0.188 A 
ATOM     23  HN  UNK N   1      29.526   0.418  -0.535  1.00  0.00     0.167 HD
ATOM     24  HN  UNK N   1      27.206  -4.255   0.154  1.00  0.00     0.168 HD
BRANCH  17  25
HETATM   25  N   UNK N   1      31.292  -1.582  -1.621  0.00  0.00    -0.383 N 
HETATM   26  H   UNK N   1      32.120  -2.005  -1.943  0.00  0.00     0.157 HD
HETATM   27  H   UNK N   1      31.242  -0.599  -1.621  0.00  0.00     0.157 HD
ENDBRANCH  17  25
ENDBRANCH   8  13
BRANCH  10  28
HETATM   28  C   UNK N   1      22.466  -1.070   1.141  0.00  0.00     0.215 C 
BRANCH  28  29
HETATM   29  O   UNK N   1      21.508  -1.365   0.161  0.00  0.00    -0.294 OA
BRANCH  29  30
HETATM   30  P   UNK N   1      20.565  -2.664   0.825  0.00  0.00     0.401 P 
HETATM   31  O   UNK N   1      19.555  -1.516   0.623  0.00  0.00    -0.631 OA
BRANCH  30  32
HETATM   32  O   UNK N   1      19.427  -3.671  -0.118  0.00  0.00    -0.195 OA
BRANCH  32  33
HETATM   33  P   UNK N   1      18.739  -2.996  -1.610  0.00  0.00     0.401 P 
HETATM   34  O   UNK N   1      19.563  -1.779  -2.117  0.00  0.00    -0.631 OA
BRANCH  33  35
HETATM   35  O   UNK N   1      17.087  -2.502  -1.382  0.00  0.00    -0.296 OA
BRANCH  35  36
HETATM   36  C   UNK N   1      17.130  -1.696  -0.242  0.00  0.00     0.192 C 
BRANCH  36  37
HETATM   37  C   UNK N   1      15.812  -1.026   0.079  0.00  0.00     0.009 C 
HETATM   38  C   UNK N   1      15.281  -0.364  -1.184  0.00  0.00     0.020 C 
HETATM   39  C   UNK N   1      16.116   0.064   1.087  0.00  0.00     0.020 C 
BRANCH  37  40
HETATM   40  C   UNK N   1      14.785  -1.972   0.740  0.00  0.00     0.219 C 
BRANCH  40  41
HETATM   41  C   UNK N   1      14.855  -3.445   0.435  0.00  0.00     0.247 C 
HETATM   42  N   UNK N   1      15.915  -4.165   0.889  0.00  0.00    -0.358 N 
HETATM   43  H   UNK N   1      16.655  -3.688   1.328  0.00  0.00     0.162 HD
HETATM   44  O   UNK N   1      13.925  -4.000  -0.133  0.00  0.00    -0.271 OA
BRANCH  42  45
HETATM   45  C   UNK N   1      15.999  -5.600   0.754  0.00  0.00     0.132 C 
BRANCH  45  46
HETATM   46  C   UNK N   1      16.080  -5.997  -0.709  0.00  0.00     0.122 C 
BRANCH  46  47
HETATM   47  C   UNK N   1      15.628  -7.416  -0.898  0.00  0.00     0.219 C 
HETATM   48  N   UNK N   1      16.327  -8.471  -0.401  0.00  0.00    -0.360 N 
HETATM   49  H   UNK N   1      15.989  -9.379  -0.576  0.00  0.00     0.162 HD
HETATM   50  O   UNK N   1      14.609  -7.624  -1.535  0.00  0.00    -0.274 OA
BRANCH  48  51
HETATM   51  C   UNK N   1      17.540  -8.329   0.370  0.00  0.00     0.133 C 
BRANCH  51  52
HETATM   52  C   UNK N   1      18.622  -7.665  -0.458  0.00  0.00     0.102 C 
BRANCH  52  53
HETATM   53  S   UNK N   1      19.850  -6.924   0.647  0.00  0.00    -0.091 SA
BRANCH  53  54
HETATM   54  C   UNK N   1      21.176  -7.840  -0.121  0.00  0.00     0.185 C 
HETATM   55  O   UNK N   1      21.681  -8.782   0.471  0.00  0.00    -0.286 OA
BRANCH  54  56
HETATM   56  C   UNK N   1      21.658  -7.423  -1.481  0.00  0.00     0.086 C 
HETATM   57  C   UNK N   1      22.818  -8.266  -1.981  0.00  0.00     0.013 C 
ENDBRANCH  54  56
ENDBRANCH  53  54
ENDBRANCH  52  53
ENDBRANCH  51  52
ENDBRANCH  48  51
ENDBRANCH  46  47
ENDBRANCH  45  46
ENDBRANCH  42  45
ENDBRANCH  40  41
BRANCH  40  58
HETATM   58  O   UNK N   1      13.484  -1.473   0.618  0.00  0.00    -0.385 OA
HETATM   59  H   UNK N   1      13.332  -0.519   0.533  0.00  0.00     0.210 HD
ENDBRANCH  40  58
ENDBRANCH  37  40
ENDBRANCH  36  37
ENDBRANCH  35  36
ENDBRANCH  33  35
BRANCH  33  60
HETATM   60  O   UNK N   1      18.815  -4.191  -2.868  0.00  0.00    -0.307 OA
HETATM   61  H   UNK N   1      18.258  -4.561  -3.571  0.00  0.00     0.222 HD
ENDBRANCH  33  60
ENDBRANCH  32  33
ENDBRANCH  30  32
BRANCH  30  62
HETATM   62  O   UNK N   1      21.399  -3.108  -0.640  0.00  0.00    -0.307 OA
HETATM   63  H   UNK N   1      21.417  -3.634  -1.455  0.00  0.00     0.222 HD
ENDBRANCH  30  62
ENDBRANCH  29  30
ENDBRANCH  28  29
ENDBRANCH  10  28
ENDBRANCH   5   6
ENDBRANCH   2   5
BRANCH   2  64
HETATM   64  O   UNK N   1      24.585  -5.095   2.962  0.00  0.00    -0.307 OA
HETATM   65  H   UNK N   1      25.233  -5.512   3.552  0.00  0.00     0.222 HD
ENDBRANCH   2  64
TORSDOF 27
