REMARK  6 active torsions:
REMARK  status: ('A' for Active; 'I' for Inactive)
REMARK    1  A    between atoms: C_5  and  C_2 
REMARK    2  A    between atoms: O_17  and  C_2 
REMARK    3  A    between atoms: C_10  and  C_4 
REMARK    4  A    between atoms: C_8  and  O_18 
REMARK    5  A    between atoms: C_9  and  O_19 
REMARK    6  A    between atoms: O_20  and  C_11 
ROOT
HETATM    1  C   UNK N   1       0.833  -0.423   0.270  0.00  0.00     0.101 A 
HETATM    2  C   UNK N   1       5.218   0.398  -0.158  0.00  0.00     0.183 A 
HETATM    3  C   UNK N   1       1.577   0.707  -0.077  0.00  0.00     0.018 A 
HETATM    4  C   UNK N   1       2.887   0.316  -0.034  0.00  0.00     0.074 A 
HETATM    5  C   UNK N   1       2.918  -0.987   0.320  0.00  0.00     0.111 A 
HETATM    6  C   UNK N   1       4.136  -1.641   0.436  0.00  0.00     0.170 A 
HETATM    7  N   UNK N   1       1.674  -1.467   0.511  0.00  0.00    -0.360 N 
HETATM    8  N   UNK N   1       4.012   1.030  -0.278  0.00  0.00    -0.350 N 
ATOM      9  HN  UNK N   1       3.960   2.014  -0.545  1.00  0.00     0.166 HD
HETATM   10  N   UNK N   1       5.276  -0.927   0.194  0.00  0.00    -0.331 N 
ATOM     11  HN  UNK N   1       6.183  -1.386   0.277  1.00  0.00     0.168 HD
HETATM   12  H   UNK N   1       1.425  -2.383   0.772  0.00  0.00     0.165 HD
ENDROOT
BRANCH   3  13
HETATM   13  C   UNK N   1       1.105   2.083  -0.456  0.00  0.00     0.190 C 
HETATM   14  C   UNK N   1      -0.400   2.385  -0.382  0.00  0.00     0.183 C 
HETATM   15  C   UNK N   1      -0.396   3.889  -0.099  0.00  0.00     0.180 C 
HETATM   16  C   UNK N   1       1.086   4.244  -0.156  0.00  0.00     0.177 C 
HETATM   17  O   UNK N   1       1.739   3.086   0.305  0.00  0.00    -0.368 OA
BRANCH  14  18
HETATM   18  O   UNK N   1      -0.997   1.733   0.703  0.00  0.00    -0.390 OA
HETATM   19  H   UNK N   1      -1.595   1.866   1.456  0.00  0.00     0.210 HD
ENDBRANCH  14  18
BRANCH  15  20
HETATM   20  O   UNK N   1      -1.155   4.624  -1.012  0.00  0.00    -0.390 OA
HETATM   21  H   UNK N   1      -0.976   5.336  -1.646  0.00  0.00     0.210 HD
ENDBRANCH  15  20
BRANCH  16  22
HETATM   22  C   UNK N   1       1.454   5.458   0.686  0.00  0.00     0.198 C 
BRANCH  22  23
HETATM   23  O   UNK N   1       0.933   6.620   0.115  0.00  0.00    -0.398 OA
HETATM   24  H   UNK N   1       1.451   7.337  -0.282  0.00  0.00     0.209 HD
ENDBRANCH  22  23
ENDBRANCH  16  22
ENDBRANCH   3  13
BRANCH   6  25
HETATM   25  O   UNK N   1       4.202  -2.939   0.777  0.00  0.00    -0.344 OA
HETATM   26  H   UNK N   1       3.441  -3.431   1.014  0.00  0.00     0.219 HD
ENDBRANCH   6  25
TORSDOF 6
