REMARK  6 active torsions:
REMARK  status: ('A' for Active; 'I' for Inactive)
REMARK    1  A    between atoms: N_2  and  C_5 
REMARK    2  A    between atoms: C_5  and  C_6 
REMARK    3  A    between atoms: C_6  and  O_7 
REMARK    4  A    between atoms: C_6  and  C_8 
REMARK    5  A    between atoms: C_8  and  C_9 
REMARK    6  A    between atoms: C_9  and  O_10 
ROOT
HETATM    1  C   UNK N   1       4.017   1.614   0.052  0.00  0.00     0.154 C 
ENDROOT
BRANCH   1   2
HETATM    2  C   UNK N   1       2.725   1.974  -0.689  0.00  0.00     0.268 C 
BRANCH   2   3
HETATM    3  N   UNK N   1       1.488   1.635   0.027  0.00  0.00    -0.076 N 
HETATM    4  C   UNK N   1       0.385   1.762  -0.908  0.00  0.00     0.271 C 
HETATM    5  C   UNK N   1       1.477   0.275   0.545  0.00  0.00     0.271 C 
HETATM    6  C   UNK N   1       1.267   2.570   1.118  0.00  0.00     0.271 C 
ENDBRANCH   2   3
ENDBRANCH   1   2
BRANCH   1   7
HETATM    7  O   UNK N   1       4.258   0.247  -0.104  0.00  0.00    -0.393 OA
HETATM    8  H   UNK N   1       3.520  -0.373  -0.212  0.00  0.00     0.210 HD
ENDBRANCH   1   7
BRANCH   1   9
HETATM    9  C   UNK N   1       5.164   2.412  -0.566  0.00  0.00     0.143 C 
BRANCH   9  10
HETATM   10  C   UNK N   1       6.515   2.128   0.033  0.00  0.00     0.141 C 
HETATM   11  O   UNK N   1       6.766   1.042   0.534  0.00  0.00    -0.650 OA
BRANCH  10  12
HETATM   12  O   UNK N   1       7.481   3.061  -0.043  0.00  0.00    -0.776 OA
HETATM   13  H   UNK N   1       8.380   2.804  -0.095  0.00  0.00     0.167 HD
ENDBRANCH  10  12
ENDBRANCH   9  10
ENDBRANCH   1   9
TORSDOF 6
