REMARK  0 active torsions:
REMARK  status: ('A' for Active; 'I' for Inactive)
ROOT
HETATM    1  C   UNK N   1       4.145   0.806  -0.000  0.00  0.00     0.002 A 
HETATM    2  C   UNK N   1       4.159   2.222   0.000  0.00  0.00     0.002 A 
HETATM    3  C   UNK N   1       2.924   0.104  -0.000  0.00  0.00     0.032 A 
HETATM    4  C   UNK N   1       2.952   2.947   0.000  0.00  0.00     0.032 A 
HETATM    5  C   UNK N   1      -0.256   1.556   0.000  0.00  0.00     0.181 A 
HETATM    6  C   UNK N   1       1.758   0.858  -0.000  0.00  0.00     0.060 A 
HETATM    7  C   UNK N   1       1.769   2.215   0.000  0.00  0.00     0.060 A 
HETATM    8  N   UNK N   1       0.492   0.421  -0.000  0.00  0.00    -0.351 N 
ATOM      9  HN  UNK N   1       0.163  -0.545  -0.000  1.00  0.00     0.166 HD
HETATM   10  N   UNK N   1       0.515   2.677   0.000  0.00  0.00    -0.351 N 
HETATM   11  H   UNK N   1       0.216   3.615   0.000  0.00  0.00     0.166 HD
ENDROOT
TORSDOF 0
