REMARK  2 active torsions:
REMARK  status: ('A' for Active; 'I' for Inactive)
REMARK    1  A    between atoms: O_1  and  P_2 
REMARK    2  A    between atoms: P_2  and  O_3 
ROOT
HETATM    1  P   UNK N   1       1.252  -0.000   0.000  0.00  0.00     0.403 P 
HETATM    2  O   UNK N   1       2.989  -0.000   0.000  0.00  0.00    -0.624 OA
HETATM    3  O   UNK N   1      -0.298  -0.000   0.000  0.00  0.00    -0.624 OA
ENDROOT
BRANCH   1   4
HETATM    4  O   UNK N   1       1.363  -1.732   0.000  0.00  0.00    -0.300 OA
HETATM    5  H   UNK N   1       0.556  -2.270   0.000  0.00  0.00     0.223 HD
ENDBRANCH   1   4
BRANCH   1   6
HETATM    6  O   UNK N   1       1.363   1.732   0.000  0.00  0.00    -0.300 OA
HETATM    7  H   UNK N   1       2.233   2.162   0.000  0.00  0.00     0.223 HD
ENDBRANCH   1   6
TORSDOF 2
