REMARK  13 active torsions:
REMARK  status: ('A' for Active; 'I' for Inactive)
REMARK    1  A    between atoms: C_3  and  C_2 
REMARK    2  A    between atoms: C_4  and  C_3 
REMARK    3  A    between atoms: C_6  and  C_5 
REMARK    4  A    between atoms: C_8  and  C_7 
REMARK    5  A    between atoms: C_9  and  C_8 
REMARK    6  A    between atoms: C_10  and  C_9 
REMARK    7  A    between atoms: C_11  and  C_10 
REMARK    8  A    between atoms: C_12  and  C_11 
REMARK    9  A    between atoms: C_13  and  C_12 
REMARK   10  A    between atoms: C_14  and  C_13 
REMARK   11  A    between atoms: C_15  and  C_14 
REMARK   12  A    between atoms: C_16  and  C_15 
REMARK   13  A    between atoms: O_17  and  C_16 
ROOT
HETATM    1  C   UNK N   1       5.220   1.622   0.921  0.00  0.00     0.004 C 
ENDROOT
BRANCH   1   2
HETATM    2  C   UNK N   1       4.190   1.473  -0.192  0.00  0.00     0.027 C 
BRANCH   2   3
HETATM    3  C   UNK N   1       3.126   2.527  -0.096  0.00  0.00    -0.027 C 
HETATM    4  C   UNK N   1       3.446   3.826  -0.132  0.00  0.00    -0.004 C 
BRANCH   4   5
HETATM    5  C   UNK N   1       2.420   4.890  -0.059  0.00  0.00    -0.004 C 
HETATM    6  C   UNK N   1       2.746   6.193  -0.041  0.00  0.00    -0.027 C 
BRANCH   6   7
HETATM    7  C   UNK N   1       4.179   6.648  -0.079  0.00  0.00     0.027 C 
BRANCH   7   8
HETATM    8  C   UNK N   1       4.299   8.155   0.003  0.00  0.00    -0.001 C 
HETATM    9  C   UNK N   1       5.767   8.528   0.053  0.00  0.00     0.005 C 
ENDBRANCH   7   8
ENDBRANCH   6   7
ENDBRANCH   4   5
ENDBRANCH   2   3
ENDBRANCH   1   2
BRANCH   1  10
HETATM   10  C   UNK N   1       6.625   1.706   0.341  0.00  0.00     0.000 C 
BRANCH  10  11
HETATM   11  C   UNK N   1       6.818   3.003  -0.434  0.00  0.00     0.000 C 
BRANCH  11  12
HETATM   12  C   UNK N   1       8.262   3.166  -0.859  0.00  0.00     0.000 C 
BRANCH  12  13
HETATM   13  C   UNK N   1       9.103   3.550   0.342  0.00  0.00     0.000 C 
BRANCH  13  14
HETATM   14  C   UNK N   1      10.387   2.752   0.325  0.00  0.00     0.002 C 
BRANCH  14  15
HETATM   15  C   UNK N   1      11.550   3.663   0.006  0.00  0.00     0.026 C 
BRANCH  15  16
HETATM   16  C   UNK N   1      12.830   2.856   0.043  0.00  0.00     0.164 C 
BRANCH  16  17
HETATM   17  O   UNK N   1      13.921   3.710  -0.100  0.00  0.00    -0.401 OA
HETATM   18  H   UNK N   1      14.816   3.350  -0.200  0.00  0.00     0.209 HD
ENDBRANCH  16  17
ENDBRANCH  15  16
ENDBRANCH  14  15
ENDBRANCH  13  14
ENDBRANCH  12  13
ENDBRANCH  11  12
ENDBRANCH  10  11
ENDBRANCH   1  10
TORSDOF 13
