REMARK  14 active torsions:
REMARK  status: ('A' for Active; 'I' for Inactive)
REMARK    1  A    between atoms: O_1  and  C_2 
REMARK    2  A    between atoms: C_2  and  C_3 
REMARK    3  A    between atoms: C_3  and  C_4 
REMARK    4  A    between atoms: C_3  and  O_9 
REMARK    5  A    between atoms: C_4  and  C_5 
REMARK    6  A    between atoms: C_4  and  O_10 
REMARK    7  A    between atoms: C_5  and  C_6 
REMARK    8  A    between atoms: C_5  and  O_11 
REMARK    9  A    between atoms: C_6  and  C_7 
REMARK   10  A    between atoms: C_6  and  O_12 
REMARK   11  A    between atoms: C_7  and  O_8 
REMARK   12  A    between atoms: O_8  and  P_13 
REMARK   13  A    between atoms: P_13  and  O_14 
REMARK   14  A    between atoms: P_13  and  O_16 
ROOT
HETATM    1  C   UNK N   1      11.847 -10.776  -0.426  0.00  0.00     0.180 C 
ENDROOT
BRANCH   1   2
HETATM    2  C   UNK N   1      10.519 -10.451   0.287  0.00  0.00     0.180 C 
BRANCH   2   3
HETATM    3  C   UNK N   1       9.359 -11.328  -0.225  0.00  0.00     0.173 C 
BRANCH   3   4
HETATM    4  C   UNK N   1       8.035 -10.963   0.434  0.00  0.00     0.198 C 
BRANCH   4   5
HETATM    5  O   UNK N   1       7.543  -9.767  -0.086  0.00  0.00    -0.398 OA
HETATM    6  H   UNK N   1       8.092  -9.054  -0.448  0.00  0.00     0.209 HD
ENDBRANCH   4   5
ENDBRANCH   3   4
BRANCH   3   7
HETATM    7  O   UNK N   1       9.611 -12.673   0.042  0.00  0.00    -0.391 OA
HETATM    8  H   UNK N   1       8.889 -13.293   0.228  0.00  0.00     0.210 HD
ENDBRANCH   3   7
ENDBRANCH   2   3
BRANCH   2   9
HETATM    9  O   UNK N   1      10.204  -9.105   0.099  0.00  0.00    -0.390 OA
HETATM   10  H   UNK N   1      10.905  -8.447  -0.033  0.00  0.00     0.210 HD
ENDBRANCH   2   9
ENDBRANCH   1   2
BRANCH   1  11
HETATM   11  C   UNK N   1      13.017  -9.949   0.120  0.00  0.00     0.173 C 
BRANCH  11  12
HETATM   12  C   UNK N   1      14.313 -10.379  -0.546  0.00  0.00     0.214 C 
BRANCH  12  13
HETATM   13  O   UNK N   1      15.356 -10.309   0.381  0.00  0.00    -0.294 OA
BRANCH  13  14
HETATM   14  P   UNK N   1      16.784 -10.008  -0.559  0.00  0.00     0.390 P 
HETATM   15  O   UNK N   1      16.863  -8.915   0.540  0.00  0.00    -0.632 OA
BRANCH  14  16
HETATM   16  O   UNK N   1      18.350 -10.276   0.140  0.00  0.00    -0.307 OA
HETATM   17  H   UNK N   1      18.658 -11.109   0.531  0.00  0.00     0.222 HD
ENDBRANCH  14  16
BRANCH  14  18
HETATM   18  O   UNK N   1      16.883 -11.588   0.158  0.00  0.00    -0.307 OA
HETATM   19  H   UNK N   1      16.147 -12.077   0.559  0.00  0.00     0.222 HD
ENDBRANCH  14  18
ENDBRANCH  13  14
ENDBRANCH  12  13
ENDBRANCH  11  12
BRANCH  11  20
HETATM   20  O   UNK N   1      12.825  -8.585  -0.099  0.00  0.00    -0.391 OA
HETATM   21  H   UNK N   1      13.579  -7.995  -0.252  0.00  0.00     0.210 HD
ENDBRANCH  11  20
ENDBRANCH   1  11
BRANCH   1  22
HETATM   22  O   UNK N   1      12.154 -12.129  -0.260  0.00  0.00    -0.390 OA
HETATM   23  H   UNK N   1      11.447 -12.783  -0.145  0.00  0.00     0.210 HD
ENDBRANCH   1  22
TORSDOF 14
