REMARK  2 active torsions:
REMARK  status: ('A' for Active; 'I' for Inactive)
REMARK    1  A    between atoms: O_1  and  C_2 
REMARK    2  A    between atoms: C_2  and  C_3 
ROOT
HETATM    1  C   UNK N   1       0.676  -1.050  -0.000  0.00  0.00    -0.035 A 
HETATM    2  C   UNK N   1      -0.544  -0.368   0.000  0.00  0.00     0.011 A 
HETATM    3  C   UNK N   1      -0.571   1.028   0.000  0.00  0.00     0.019 A 
HETATM    4  C   UNK N   1       0.626   1.751   0.000  0.00  0.00     0.011 A 
HETATM    5 Br   UNK N   1       0.582   3.655  -0.000  0.00  0.00    -0.051 Br
HETATM    6  C   UNK N   1       1.850   1.076  -0.000  0.00  0.00     0.019 A 
HETATM    7  C   UNK N   1       1.877  -0.321  -0.000  0.00  0.00     0.011 A 
ENDROOT
BRANCH   1   8
HETATM    8  C   UNK N   1       0.670  -2.547  -0.000  0.00  0.00     0.202 C 
BRANCH   8   9
HETATM    9  O   UNK N   1       1.964  -3.071   0.000  0.00  0.00    -0.396 OA
HETATM   10  H   UNK N   1       2.099  -4.032   0.000  0.00  0.00     0.209 HD
ENDBRANCH   8   9
ENDBRANCH   1   8
TORSDOF 2
