REMARK  7 active torsions:
REMARK  status: ('A' for Active; 'I' for Inactive)
REMARK       I    between atoms: C_2  and  N_4 
REMARK    1  A    between atoms: C_5  and  N_4 
REMARK    2  A    between atoms: C_5  and  C_6 
REMARK    3  A    between atoms: C_5  and  C_13 
REMARK    4  A    between atoms: C_6  and  C_7 
REMARK    5  A    between atoms: C_7  and  C_8 
REMARK    6  A    between atoms: C_8  and  N_9 
REMARK       I    between atoms: N_9  and  C_10 
REMARK       I    between atoms: C_10  and  N_11 
REMARK    7  A    between atoms: C_13  and  O_14 
ROOT
HETATM    1  C   UNK N   1       4.116   2.087   0.553  0.00  0.00     0.182 C 
ENDROOT
BRANCH   1   2
HETATM    2  N   UNK N   1       2.872   1.544   0.040  0.00  0.00    -0.347 N 
HETATM    3  C   UNK N   1       1.640   1.971   0.415  0.00  0.00     0.214 C 
HETATM    4  C   UNK N   1       0.433   1.301  -0.142  0.00  0.00     0.117 C 
HETATM    5  O   UNK N   1       1.508   2.895   1.204  0.00  0.00    -0.274 OA
HETATM    6  H   UNK N   1       2.925   0.819  -0.623  0.00  0.00     0.163 HD
ENDBRANCH   1   2
BRANCH   1   7
HETATM    7  C   UNK N   1       5.252   1.254  -0.044  0.00  0.00     0.038 C 
BRANCH   7   8
HETATM    8  C   UNK N   1       6.636   1.682   0.410  0.00  0.00     0.022 C 
BRANCH   8   9
HETATM    9  C   UNK N   1       7.317   2.421  -0.731  0.00  0.00     0.124 C 
BRANCH   9  10
HETATM   10  N   UNK N   1       8.590   2.951  -0.306  0.00  0.00    -0.343 N 
HETATM   11  C   UNK N   1       9.661   2.162  -0.051  0.00  0.00     0.313 C 
HETATM   12  N   UNK N   1      10.819   2.718   0.345  0.00  0.00    -0.352 N 
HETATM   13  O   UNK N   1       9.585   0.947  -0.180  0.00  0.00    -0.248 OA
HETATM   14  H   UNK N   1      11.596   2.186   0.635  0.00  0.00     0.160 HD
HETATM   15  H   UNK N   1      10.894   3.699   0.345  0.00  0.00     0.160 HD
HETATM   16  H   UNK N   1       8.683   3.925  -0.197  0.00  0.00     0.164 HD
ENDBRANCH   9  10
ENDBRANCH   8   9
ENDBRANCH   7   8
ENDBRANCH   1   7
BRANCH   1  17
HETATM   17  C   UNK N   1       4.280   3.564   0.249  0.00  0.00     0.163 C 
HETATM   18  O   UNK N   1       3.474   4.155  -0.451  0.00  0.00    -0.648 OA
BRANCH  17  19
HETATM   19  O   UNK N   1       5.312   4.246   0.784  0.00  0.00    -0.775 OA
HETATM   20  H   UNK N   1       6.082   3.861   1.156  0.00  0.00     0.167 HD
ENDBRANCH  17  19
ENDBRANCH   1  17
TORSDOF 7
