REMARK  3 active torsions:
REMARK  status: ('A' for Active; 'I' for Inactive)
REMARK    1  A    between atoms: O_1  and  C_2 
REMARK    2  A    between atoms: C_2  and  C_3 
REMARK    3  A    between atoms: C_3  and  C_4 
ROOT
HETATM    1  C   UNK N   1       0.856   1.324  -0.000  0.00  0.00    -0.056 A 
HETATM    2  C   UNK N   1       2.104   0.691  -0.000  0.00  0.00     0.007 A 
HETATM    3  C   UNK N   1       2.189  -0.704   0.000  0.00  0.00     0.001 A 
HETATM    4  C   UNK N   1       1.023  -1.476   0.000  0.00  0.00     0.000 A 
HETATM    5  C   UNK N   1      -0.226  -0.853  -0.000  0.00  0.00     0.001 A 
HETATM    6  C   UNK N   1      -0.312   0.542  -0.000  0.00  0.00     0.007 A 
ENDROOT
BRANCH   1   7
HETATM    7  C   UNK N   1       0.809   2.827  -0.000  0.00  0.00     0.064 C 
BRANCH   7   8
HETATM    8  C   UNK N   1      -0.602   3.401   0.000  0.00  0.00     0.168 C 
BRANCH   8   9
HETATM    9  O   UNK N   1      -0.540   4.792  -0.000  0.00  0.00    -0.401 OA
HETATM   10  H   UNK N   1       0.321   5.240  -0.000  0.00  0.00     0.209 HD
ENDBRANCH   8   9
ENDBRANCH   7   8
ENDBRANCH   1   7
TORSDOF 3
