REMARK  8 active torsions:
REMARK  status: ('A' for Active; 'I' for Inactive)
REMARK    1  A    between atoms: C_2  and  O_3 
REMARK    2  A    between atoms: C_2  and  C_8 
REMARK    3  A    between atoms: O_3  and  P_4 
REMARK    4  A    between atoms: P_4  and  O_5 
REMARK    5  A    between atoms: P_4  and  O_6 
REMARK    6  A    between atoms: C_8  and  N_9 
REMARK    7  A    between atoms: C_8  and  C_10 
REMARK    8  A    between atoms: C_10  and  O_11 
ROOT
HETATM    1  C   UNK N   1       4.173  -0.067  -0.114  0.00  0.00     0.043 C 
HETATM    2  C   UNK N   1       4.166   1.403  -0.536  0.00  0.00     0.162 C 
ENDROOT
BRANCH   2   3
HETATM    3  O   UNK N   1       2.871   1.903  -0.823  0.00  0.00    -0.289 OA
BRANCH   3   4
HETATM    4  P   UNK N   1       1.855   1.831   0.605  0.00  0.00     0.391 P 
HETATM    5  O   UNK N   1       1.500   3.243   0.066  0.00  0.00    -0.632 OA
BRANCH   4   6
HETATM    6  O   UNK N   1       0.126   1.735   0.487  0.00  0.00    -0.307 OA
HETATM    7  H   UNK N   1      -0.404   2.545   0.421  0.00  0.00     0.222 HD
ENDBRANCH   4   6
BRANCH   4   8
HETATM    8  O   UNK N   1       1.330   0.657  -0.564  0.00  0.00    -0.307 OA
HETATM    9  H   UNK N   1       0.615   0.583  -1.216  0.00  0.00     0.222 HD
ENDBRANCH   4   8
ENDBRANCH   3   4
ENDBRANCH   2   3
BRANCH   2  10
HETATM   10  C   UNK N   1       5.032   2.321   0.343  0.00  0.00     0.202 C 
BRANCH  10  11
HETATM   11  N   UNK N   1       4.878   3.703  -0.089  0.00  0.00    -0.416 N 
HETATM   12  H   UNK N   1       5.662   4.281  -0.392  0.00  0.00     0.150 HD
HETATM   13  H   UNK N   1       3.943   4.112  -0.089  0.00  0.00     0.150 HD
ENDBRANCH  10  11
BRANCH  10  14
HETATM   14  C   UNK N   1       6.488   1.923   0.265  0.00  0.00     0.165 C 
HETATM   15  O   UNK N   1       6.842   0.818   0.648  0.00  0.00    -0.648 OA
BRANCH  14  16
HETATM   16  O   UNK N   1       7.408   2.779  -0.222  0.00  0.00    -0.775 OA
HETATM   17  H   UNK N   1       8.243   2.523  -0.561  0.00  0.00     0.167 HD
ENDBRANCH  14  16
ENDBRANCH  10  14
ENDBRANCH   2  10
TORSDOF 8
