REMARK  7 active torsions:
REMARK  status: ('A' for Active; 'I' for Inactive)
REMARK    1  A    between atoms: C_6  and  C_3 
REMARK    2  A    between atoms: O_19  and  C_3 
REMARK    3  A    between atoms: C_5  and  O_13 
REMARK    4  A    between atoms: C_7  and  N_12 
REMARK    5  A    between atoms: P_21  and  O_16 
REMARK    6  A    between atoms: P_21  and  O_17 
REMARK    7  A    between atoms: P_21  and  O_19 
ROOT
HETATM    1  C   UNK N   1      -0.108   2.287   0.760  0.00  0.00     0.088 C 
HETATM    2  C   UNK N   1      -0.967   3.387   0.236  0.00  0.00     0.153 C 
HETATM    3  C   UNK N   1      -2.088   2.591  -0.438  0.00  0.00     0.177 C 
HETATM    4  C   UNK N   1      -0.178   1.366  -0.447  0.00  0.00     0.235 C 
HETATM    5  O   UNK N   1      -1.528   1.362  -0.874  0.00  0.00    -0.356 OA
ENDROOT
BRANCH   4   6
HETATM    6  N   UNK N   1       0.343   0.020  -0.146  0.00  0.00    -0.281 N 
HETATM    7  C   UNK N   1      -0.479  -1.069  -0.210  0.00  0.00     0.122 A 
HETATM    8  C   UNK N   1       0.017  -2.353   0.023  0.00  0.00     0.090 A 
HETATM    9  C   UNK N   1       1.374  -2.510   0.311  0.00  0.00     0.267 A 
HETATM   10  I   UNK N   1      -1.285  -4.014  -0.076  0.00  0.00    -0.037 I 
HETATM   11  N   UNK N   1       2.183  -1.411   0.373  0.00  0.00    -0.274 N 
HETATM   12  O   UNK N   1       1.843  -3.617   0.505  0.00  0.00    -0.267 OA
HETATM   13  C   UNK N   1       1.685  -0.156   0.150  0.00  0.00     0.331 A 
HETATM   14  H   UNK N   1       3.139  -1.523   0.580  0.00  0.00     0.173 HD
HETATM   15  O   UNK N   1       2.440   0.802   0.195  0.00  0.00    -0.246 OA
ENDBRANCH   4   6
BRANCH   2  16
HETATM   16  O   UNK N   1      -1.400   4.264   1.233  0.00  0.00    -0.393 OA
HETATM   17  H   UNK N   1      -1.023   4.828   1.926  0.00  0.00     0.210 HD
ENDBRANCH   2  16
BRANCH   3  18
HETATM   18  C   UNK N   1      -3.271   2.282   0.489  0.00  0.00     0.215 C 
BRANCH  18  19
HETATM   19  O   UNK N   1      -3.992   3.447   0.809  0.00  0.00    -0.294 OA
BRANCH  19  20
HETATM   20  P   UNK N   1      -5.263   3.574  -0.382  0.00  0.00     0.390 P 
HETATM   21  O   UNK N   1      -6.054   3.045   0.844  0.00  0.00    -0.632 OA
BRANCH  20  22
HETATM   22  O   UNK N   1      -6.542   4.738  -0.228  0.00  0.00    -0.307 OA
HETATM   23  H   UNK N   1      -6.336   5.682  -0.142  0.00  0.00     0.222 HD
ENDBRANCH  20  22
BRANCH  20  24
HETATM   24  O   UNK N   1      -4.637   5.152  -0.011  0.00  0.00    -0.307 OA
HETATM   25  H   UNK N   1      -3.699   5.289   0.197  0.00  0.00     0.222 HD
ENDBRANCH  20  24
ENDBRANCH  19  20
ENDBRANCH  18  19
ENDBRANCH   3  18
TORSDOF 7
