REMARK  6 active torsions:
REMARK  status: ('A' for Active; 'I' for Inactive)
REMARK    1  A    between atoms: C_3  and  O_2 
REMARK    2  A    between atoms: C_5  and  C_6 
REMARK    3  A    between atoms: C_6  and  O_7 
REMARK    4  A    between atoms: C_8  and  O_9 
REMARK    5  A    between atoms: C_10  and  O_11 
REMARK    6  A    between atoms: C_12  and  O_13 
ROOT
HETATM    1  C   UNK N   1       1.796   0.968  -0.041  0.00  0.00     0.290 C 
HETATM    2  O   UNK N   1       0.662   1.617   0.485  0.00  0.00    -0.349 OA
HETATM    3  C   UNK N   1      -0.471   1.120  -0.195  0.00  0.00     0.179 C 
HETATM    4  C   UNK N   1      -0.706  -0.343   0.212  0.00  0.00     0.180 C 
HETATM    5  C   UNK N   1       0.525  -1.156  -0.183  0.00  0.00     0.183 C 
HETATM    6  C   UNK N   1       1.787  -0.508   0.376  0.00  0.00     0.204 C 
ENDROOT
BRANCH   3   7
HETATM    7  C   UNK N   1      -1.686   1.967   0.161  0.00  0.00     0.198 C 
BRANCH   7   8
HETATM    8  O   UNK N   1      -1.520   3.271  -0.306  0.00  0.00    -0.398 OA
HETATM    9  H   UNK N   1      -0.677   3.625  -0.630  0.00  0.00     0.209 HD
ENDBRANCH   7   8
ENDBRANCH   3   7
BRANCH   4  10
HETATM   10  O   UNK N   1      -1.830  -0.857  -0.439  0.00  0.00    -0.390 OA
HETATM   11  H   UNK N   1      -2.529  -0.360  -0.892  0.00  0.00     0.210 HD
ENDBRANCH   4  10
BRANCH   1  12
HETATM   12  O   UNK N   1       2.951   1.589   0.448  0.00  0.00    -0.363 OA
HETATM   13  C   UNK N   1       3.760   1.791  -0.671  0.00  0.00     0.204 C 
ENDBRANCH   1  12
BRANCH   5  14
HETATM   14  O   UNK N   1       0.413  -2.467   0.285  0.00  0.00    -0.390 OA
HETATM   15  H   UNK N   1      -0.415  -2.855   0.610  0.00  0.00     0.210 HD
ENDBRANCH   5  14
BRANCH   6  16
HETATM   16  O   UNK N   1       2.911  -1.162  -0.131  0.00  0.00    -0.388 OA
HETATM   17  H   UNK N   1       2.908  -2.066  -0.484  0.00  0.00     0.210 HD
ENDBRANCH   6  16
TORSDOF 6
