REMARK  2 active torsions:
REMARK  status: ('A' for Active; 'I' for Inactive)
REMARK       I    between atoms: N_1  and  C_2 
REMARK    1  A    between atoms: C_10  and  C_11 
REMARK    2  A    between atoms: C_11  and  C_12 
ROOT
HETATM    1  N   UNK N   1       5.552   1.953  -0.000  0.00  0.00    -0.234 N 
HETATM    2  C   UNK N   1       4.312   1.286  -0.000  0.00  0.00     0.679 A 
HETATM    3  N   UNK N   1       4.269  -0.083  -0.000  0.00  0.00    -0.154 N 
ATOM      4  HN  UNK N   1       5.139  -0.616  -0.000  1.00  0.00     0.187 HD
HETATM    5  C   UNK N   1       3.063  -0.747  -0.000  0.00  0.00     0.288 A 
HETATM    6  O   UNK N   1       3.027  -1.964   0.000  0.00  0.00    -0.265 OA
HETATM    7  C   UNK N   1       1.899   0.010   0.000  0.00  0.00     0.129 A 
HETATM    8  C   UNK N   1       1.967   1.363  -0.000  0.00  0.00     0.089 A 
HETATM    9  N   UNK N   1       3.155   2.010  -0.000  0.00  0.00    -0.189 N 
HETATM   10  C   UNK N   1       0.670   1.846  -0.000  0.00  0.00    -0.009 A 
HETATM   11  C   UNK N   1      -0.142   0.710   0.000  0.00  0.00     0.098 A 
HETATM   12  N   UNK N   1       0.623  -0.413   0.000  0.00  0.00    -0.359 N 
HETATM   13  H   UNK N   1       6.390   1.435  -0.000  0.00  0.00     0.174 HD
HETATM   14  H   UNK N   1       5.582   2.937  -0.000  0.00  0.00     0.174 HD
HETATM   15  H   UNK N   1       3.186   2.994  -0.000  0.00  0.00     0.184 HD
HETATM   16  H   UNK N   1       0.308  -1.345   0.000  0.00  0.00     0.165 HD
ENDROOT
BRANCH  10  17
HETATM   17  C   UNK N   1       0.086   3.247  -0.000  0.00  0.00     0.082 C 
BRANCH  17  18
HETATM   18  C   UNK N   1       0.918   4.509   0.000  0.00  0.00    -0.038 A 
HETATM   19  C   UNK N   1       0.255   5.740  -0.000  0.00  0.00     0.095 A 
HETATM   20  N   UNK N   1       0.961   6.905  -0.000  0.00  0.00    -0.375 N 
HETATM   21  C   UNK N   1       2.321   6.913   0.000  0.00  0.00     0.087 A 
ATOM     22  HN  UNK N   1       0.458   7.792  -0.000  1.00  0.00     0.164 HD
HETATM   23  C   UNK N   1       3.023   5.711   0.000  0.00  0.00     0.018 A 
HETATM   24  C   UNK N   1       2.312   4.514   0.000  0.00  0.00     0.010 A 
ENDBRANCH  17  18
ENDBRANCH  10  17
TORSDOF 2
