REMARK  6 active torsions:
REMARK  status: ('A' for Active; 'I' for Inactive)
REMARK    1  A    between atoms: C_2  and  C_4 
REMARK    2  A    between atoms: C_6  and  S_7 
REMARK    3  A    between atoms: S_7  and  C_8 
REMARK    4  A    between atoms: C_11  and  O_12 
REMARK    5  A    between atoms: C_13  and  C_15 
REMARK    6  A    between atoms: C_20  and  O_21 
ROOT
HETATM    1  S   UNK N   1       4.840  -2.348   0.179  0.00  0.00    -0.091 SA
ENDROOT
BRANCH   1   2
HETATM    2  C   UNK N   1       3.153  -1.681   0.216  0.00  0.00     0.006 A 
HETATM    3  C   UNK N   1       2.946  -0.374  -0.237  0.00  0.00     0.029 A 
HETATM    4  C   UNK N   1       1.660   0.196  -0.243  0.00  0.00    -0.020 A 
HETATM    5  C   UNK N   1       0.566  -0.581   0.193  0.00  0.00     0.072 A 
HETATM    6  C   UNK N   1       0.776  -1.877   0.667  0.00  0.00     0.038 A 
HETATM    7  C   UNK N   1       2.062  -2.415   0.695  0.00  0.00     0.021 A 
BRANCH   4   8
HETATM    8  C   UNK N   1       1.441   1.619  -0.713  0.00  0.00     0.013 C 
HETATM    9  C   UNK N   1       0.854   2.465   0.404  0.00  0.00     0.015 C 
HETATM   10  C   UNK N   1       2.710   2.301  -1.208  0.00  0.00     0.015 C 
ENDBRANCH   4   8
BRANCH   5  11
HETATM   11  O   UNK N   1      -0.683  -0.086   0.166  0.00  0.00    -0.360 OA
HETATM   12  H   UNK N   1      -0.819   0.841   0.148  0.00  0.00     0.217 HD
ENDBRANCH   5  11
ENDBRANCH   1   2
BRANCH   1  13
HETATM   13  C   UNK N   1       4.576  -4.139   0.185  0.00  0.00     0.006 A 
HETATM   14  C   UNK N   1       5.608  -4.969   0.627  0.00  0.00     0.021 A 
HETATM   15  C   UNK N   1       5.428  -6.353   0.673  0.00  0.00     0.038 A 
HETATM   16  C   UNK N   1       4.208  -6.925   0.296  0.00  0.00     0.072 A 
HETATM   17  C   UNK N   1       3.150  -6.094  -0.155  0.00  0.00    -0.020 A 
HETATM   18  C   UNK N   1       3.370  -4.714  -0.223  0.00  0.00     0.029 A 
BRANCH  16  19
HETATM   19  O   UNK N   1       4.072  -8.259   0.380  0.00  0.00    -0.360 OA
HETATM   20  H   UNK N   1       3.218  -8.641   0.439  0.00  0.00     0.217 HD
ENDBRANCH  16  19
BRANCH  17  21
HETATM   21  C   UNK N   1       1.770  -6.587  -0.555  0.00  0.00     0.013 C 
HETATM   22  C   UNK N   1       0.705  -5.936   0.315  0.00  0.00     0.015 C 
HETATM   23  C   UNK N   1       1.549  -8.089  -0.530  0.00  0.00     0.015 C 
ENDBRANCH  17  21
ENDBRANCH   1  13
TORSDOF 6
