REMARK  9 active torsions:
REMARK  status: ('A' for Active; 'I' for Inactive)
REMARK    1  A    between atoms: P_1  and  O_2 
REMARK    2  A    between atoms: P_1  and  O_3 
REMARK    3  A    between atoms: P_1  and  O_4 
REMARK    4  A    between atoms: O_2  and  C_6 
REMARK    5  A    between atoms: C_7  and  C_6 
REMARK    6  A    between atoms: C_8  and  O_11 
REMARK    7  A    between atoms: C_10  and  O_14 
REMARK    8  A    between atoms: C_12  and  O_15 
REMARK    9  A    between atoms: C_13  and  N_16 
ROOT
HETATM    1  C   UNK N   1       0.154   0.436  -0.421  0.00  0.00     0.180 C 
HETATM    2  C   UNK N   1       0.349  -0.973   0.177  0.00  0.00     0.180 C 
HETATM    3  O   UNK N   1       1.350   1.139  -0.760  0.00  0.00    -0.349 OA
HETATM    4  C   UNK N   1       1.556  -1.584  -0.523  0.00  0.00     0.176 C 
HETATM    5  C   UNK N   1       2.401   0.714   0.076  0.00  0.00     0.282 C 
HETATM    6  C   UNK N   1       2.816  -0.728  -0.263  0.00  0.00     0.161 C 
ENDROOT
BRANCH   1   7
HETATM    7  C   UNK N   1      -0.796   1.294   0.395  0.00  0.00     0.215 C 
BRANCH   7   8
HETATM    8  O   UNK N   1      -1.685   1.940  -0.466  0.00  0.00    -0.294 OA
BRANCH   8   9
HETATM    9  P   UNK N   1      -3.274   1.385  -0.007  0.00  0.00     0.390 P 
HETATM   10  O   UNK N   1      -3.224  -0.150   0.229  0.00  0.00    -0.632 OA
BRANCH   9  11
HETATM   11  O   UNK N   1      -4.422   1.648  -1.281  0.00  0.00    -0.307 OA
HETATM   12  H   UNK N   1      -4.616   2.277  -1.993  0.00  0.00     0.222 HD
ENDBRANCH   9  11
BRANCH   9  13
HETATM   13  O   UNK N   1      -3.808   2.125   1.469  0.00  0.00    -0.307 OA
HETATM   14  H   UNK N   1      -3.599   2.590   2.294  0.00  0.00     0.222 HD
ENDBRANCH   9  13
ENDBRANCH   8   9
ENDBRANCH   7   8
ENDBRANCH   1   7
BRANCH   2  15
HETATM   15  O   UNK N   1      -0.794  -1.744  -0.041  0.00  0.00    -0.390 OA
HETATM   16  H   UNK N   1      -1.655  -1.323  -0.192  0.00  0.00     0.210 HD
ENDBRANCH   2  15
BRANCH   4  17
HETATM   17  O   UNK N   1       1.747  -2.921  -0.164  0.00  0.00    -0.391 OA
HETATM   18  H   UNK N   1       1.010  -3.500   0.084  0.00  0.00     0.210 HD
ENDBRANCH   4  17
BRANCH   5  19
HETATM   19  O   UNK N   1       3.491   1.579  -0.030  0.00  0.00    -0.369 OA
HETATM   20  H   UNK N   1       4.390   1.224  -0.104  0.00  0.00     0.212 HD
ENDBRANCH   5  19
BRANCH   6  21
HETATM   21  N   UNK N   1       3.603  -1.260   0.838  0.00  0.00    -0.420 N 
HETATM   22  H   UNK N   1       3.556  -1.924   1.611  0.00  0.00     0.150 HD
HETATM   23  H   UNK N   1       4.520  -0.813   0.838  0.00  0.00     0.150 HD
ENDBRANCH   6  21
TORSDOF 9
