REMARK  20 active torsions:
REMARK  status: ('A' for Active; 'I' for Inactive)
REMARK    1  A    between atoms: N_1  and  C_2 
REMARK    2  A    between atoms: C_8  and  N_7 
REMARK    3  A    between atoms: C_10  and  C_11 
REMARK    4  A    between atoms: C_11  and  O_12 
REMARK    5  A    between atoms: P_13  and  O_12 
REMARK    6  A    between atoms: P_13  and  O_14 
REMARK    7  A    between atoms: P_13  and  O_16 
REMARK    8  A    between atoms: P_17  and  O_16 
REMARK    9  A    between atoms: P_17  and  O_18 
REMARK   10  A    between atoms: P_17  and  O_20 
REMARK   11  A    between atoms: P_21  and  O_20 
REMARK   12  A    between atoms: P_21  and  O_22 
REMARK   13  A    between atoms: P_21  and  O_24 
REMARK   14  A    between atoms: P_25  and  O_24 
REMARK   15  A    between atoms: P_25  and  O_26 
REMARK   16  A    between atoms: P_25  and  O_28 
REMARK   17  A    between atoms: O_28  and  P_29 
REMARK   18  A    between atoms: P_29  and  O_30 
REMARK   19  A    between atoms: C_33  and  O_34 
REMARK   20  A    between atoms: C_35  and  O_36 
ROOT
HETATM    1  P   UNK N   1       7.797   2.815  -0.248  0.00  0.00     0.399 P 
HETATM    2  O   UNK N   1       7.871   2.943   1.481  0.00  0.00    -0.307 OA
HETATM    3  O   UNK N   1       6.827   3.736  -1.033  0.00  0.00    -0.631 OA
HETATM    4  H   UNK N   1       7.954   2.942   2.448  0.00  0.00     0.222 HD
ENDROOT
BRANCH   1   5
HETATM    5  O   UNK N   1       6.301   2.026   0.330  0.00  0.00    -0.195 OA
BRANCH   5   6
HETATM    6  P   UNK N   1       5.012   3.094   0.938  0.00  0.00     0.410 P 
HETATM    7  O   UNK N   1       5.604   4.098   1.962  0.00  0.00    -0.631 OA
BRANCH   6   8
HETATM    8  O   UNK N   1       4.334   4.059  -0.337  0.00  0.00    -0.195 OA
BRANCH   8   9
HETATM    9  P   UNK N   1       2.601   3.957  -0.320  0.00  0.00     0.410 P 
HETATM   10  O   UNK N   1       1.920   5.260  -0.822  0.00  0.00    -0.631 OA
BRANCH   9  11
HETATM   11  O   UNK N   1       1.589   2.815   0.555  0.00  0.00    -0.195 OA
BRANCH  11  12
HETATM   12  P   UNK N   1       0.562   3.617   1.725  0.00  0.00     0.410 P 
HETATM   13  O   UNK N   1       1.209   4.930   2.239  0.00  0.00    -0.631 OA
BRANCH  12  14
HETATM   14  O   UNK N   1      -1.100   3.920   1.254  0.00  0.00    -0.195 OA
BRANCH  14  15
HETATM   15  P   UNK N   1      -1.150   4.407  -0.422  0.00  0.00     0.401 P 
HETATM   16  O   UNK N   1      -0.800   5.915  -0.523  0.00  0.00    -0.631 OA
BRANCH  15  17
HETATM   17  O   UNK N   1      -2.750   4.215  -1.067  0.00  0.00    -0.294 OA
BRANCH  17  18
HETATM   18  C   UNK N   1      -2.622   3.229  -2.058  0.00  0.00     0.215 C 
BRANCH  18  19
HETATM   19  C   UNK N   1      -3.382   1.936  -1.718  0.00  0.00     0.180 C 
HETATM   20  O   UNK N   1      -4.732   2.242  -1.547  0.00  0.00    -0.353 OA
HETATM   21  C   UNK N   1      -4.787   2.583  -0.190  0.00  0.00     0.262 C 
HETATM   22  C   UNK N   1      -3.985   1.555   0.594  0.00  0.00     0.198 C 
HETATM   23  C   UNK N   1      -2.969   1.165  -0.456  0.00  0.00     0.182 C 
BRANCH  21  24
HETATM   24  N   UNK N   1      -6.159   2.825   0.213  0.00  0.00    -0.297 N 
HETATM   25  C   UNK N   1      -6.648   3.984   0.715  0.00  0.00     0.188 A 
HETATM   26  N   UNK N   1      -8.003   3.930   0.849  0.00  0.00    -0.346 N 
HETATM   27  C   UNK N   1      -8.331   2.707   0.397  0.00  0.00     0.122 A 
ATOM     28  HN  UNK N   1      -8.626   4.653   1.209  1.00  0.00     0.167 HD
HETATM   29  C   UNK N   1      -9.575   2.119   0.239  0.00  0.00     0.131 A 
HETATM   30  C   UNK N   1      -7.223   2.039   0.026  0.00  0.00     0.142 A 
HETATM   31  N   UNK N   1      -9.627   0.859  -0.286  0.00  0.00    -0.337 N 
HETATM   32  C   UNK N   1      -8.479   0.196  -0.652  0.00  0.00     0.183 A 
ATOM     33  HN  UNK N   1     -10.531   0.402  -0.408  1.00  0.00     0.168 HD
HETATM   34  N   UNK N   1      -7.258   0.796  -0.507  0.00  0.00    -0.336 N 
ATOM     35  HN  UNK N   1      -6.401   0.322  -0.791  1.00  0.00     0.168 HD
BRANCH  29  36
HETATM   36  N   UNK N   1     -10.756   2.809   0.576  0.00  0.00    -0.383 N 
HETATM   37  H   UNK N   1     -10.752   3.765   0.812  0.00  0.00     0.157 HD
HETATM   38  H   UNK N   1     -11.611   2.321   0.576  0.00  0.00     0.157 HD
ENDBRANCH  29  36
ENDBRANCH  21  24
BRANCH  22  39
HETATM   39  O   UNK N   1      -4.758   0.430   0.882  0.00  0.00    -0.388 OA
HETATM   40  H   UNK N   1      -5.704   0.503   1.081  0.00  0.00     0.210 HD
ENDBRANCH  22  39
BRANCH  23  41
HETATM   41  O   UNK N   1      -1.653   1.400  -0.057  0.00  0.00    -0.390 OA
HETATM   42  H   UNK N   1      -1.054   0.690   0.221  0.00  0.00     0.210 HD
ENDBRANCH  23  41
ENDBRANCH  18  19
ENDBRANCH  17  18
ENDBRANCH  15  17
BRANCH  15  43
HETATM   43  O   UNK N   1      -0.063   3.520  -1.441  0.00  0.00    -0.307 OA
HETATM   44  H   UNK N   1      -0.188   2.745  -2.011  0.00  0.00     0.222 HD
ENDBRANCH  15  43
ENDBRANCH  14  15
ENDBRANCH  12  14
BRANCH  12  45
HETATM   45  O   UNK N   1       0.504   2.577   3.115  0.00  0.00    -0.307 OA
HETATM   46  H   UNK N   1      -0.015   2.314   3.891  0.00  0.00     0.222 HD
ENDBRANCH  12  45
ENDBRANCH  11  12
ENDBRANCH   9  11
BRANCH   9  47
HETATM   47  O   UNK N   1       2.511   3.097  -1.809  0.00  0.00    -0.307 OA
HETATM   48  H   UNK N   1       2.067   2.898  -2.648  0.00  0.00     0.222 HD
ENDBRANCH   9  47
ENDBRANCH   8   9
ENDBRANCH   6   8
BRANCH   6  49
HETATM   49  O   UNK N   1       3.844   2.150   1.807  0.00  0.00    -0.307 OA
HETATM   50  H   UNK N   1       3.060   2.451   2.293  0.00  0.00     0.222 HD
ENDBRANCH   6  49
ENDBRANCH   5   6
ENDBRANCH   1   5
BRANCH   1  51
HETATM   51  O   UNK N   1       8.097   4.420   0.342  0.00  0.00    -0.307 OA
HETATM   52  H   UNK N   1       8.958   4.723   0.671  0.00  0.00     0.222 HD
ENDBRANCH   1  51
TORSDOF 20
