REMARK  6 active torsions:
REMARK  status: ('A' for Active; 'I' for Inactive)
REMARK    1  A    between atoms: C_2  and  C_4 
REMARK    2  A    between atoms: C_4  and  O_5 
REMARK    3  A    between atoms: C_4  and  C_6 
REMARK    4  A    between atoms: C_6  and  N_7 
REMARK    5  A    between atoms: C_6  and  C_8 
REMARK    6  A    between atoms: C_8  and  O_9 
ROOT
HETATM    1  C   UNK N   1       2.113   1.272  -0.427  0.00  0.00     0.202 C 
ENDROOT
BRANCH   1   2
HETATM    2  C   UNK N   1       0.818   0.778   0.255  0.00  0.00     0.154 C 
BRANCH   2   3
HETATM    3  C   UNK N   1      -0.432   1.500  -0.283  0.00  0.00     0.009 C 
HETATM    4  C   UNK N   1      -1.707   0.838   0.210  0.00  0.00     0.012 C 
HETATM    5  C   UNK N   1      -0.480   2.958   0.138  0.00  0.00     0.012 C 
ENDBRANCH   2   3
BRANCH   2   6
HETATM    6  O   UNK N   1       0.674  -0.593   0.017  0.00  0.00    -0.393 OA
HETATM    7  H   UNK N   1      -0.199  -0.982  -0.148  0.00  0.00     0.210 HD
ENDBRANCH   2   6
ENDBRANCH   1   2
BRANCH   1   8
HETATM    8  N   UNK N   1       2.339   2.684  -0.148  0.00  0.00    -0.416 N 
HETATM    9  H   UNK N   1       3.274   3.042   0.047  0.00  0.00     0.150 HD
HETATM   10  H   UNK N   1       1.547   3.327  -0.148  0.00  0.00     0.150 HD
ENDBRANCH   1   8
BRANCH   1  11
HETATM   11  C   UNK N   1       3.338   0.482  -0.029  0.00  0.00     0.165 C 
HETATM   12  O   UNK N   1       3.365  -0.729  -0.190  0.00  0.00    -0.648 OA
BRANCH  11  13
HETATM   13  O   UNK N   1       4.429   1.107   0.456  0.00  0.00    -0.775 OA
HETATM   14  H   UNK N   1       5.185   0.667   0.793  0.00  0.00     0.167 HD
ENDBRANCH  11  13
ENDBRANCH   1  11
TORSDOF 6
