REMARK  4 active torsions:
REMARK  status: ('A' for Active; 'I' for Inactive)
REMARK    1  A    between atoms: C_5  and  C_4 
REMARK    2  A    between atoms: N_17  and  C_4 
REMARK    3  A    between atoms: O_18  and  C_8 
REMARK    4  A    between atoms: O_19  and  C_9 
ROOT
HETATM    1  C   UNK N   1      -4.322   0.306   0.000  0.00  0.00     0.056 A 
HETATM    2  C   UNK N   1      -5.661   0.729  -0.000  0.00  0.00     0.109 A 
HETATM    3  C   UNK N   1      -6.669  -0.244  -0.000  0.00  0.00     0.167 A 
HETATM    4  C   UNK N   1      -5.040  -1.953   0.000  0.00  0.00     0.223 A 
HETATM    5 Cl   UNK N   1      -6.083   2.442  -0.000  0.00  0.00    -0.077 Cl
HETATM    6  N   UNK N   1      -4.052  -1.026   0.000  0.00  0.00    -0.323 N 
ATOM      7  HN  UNK N   1      -3.080  -1.336   0.000  1.00  0.00     0.169 HD
HETATM    8  N   UNK N   1      -6.339  -1.561  -0.000  0.00  0.00    -0.301 N 
ATOM      9  HN  UNK N   1      -7.077  -2.265  -0.000  1.00  0.00     0.171 HD
ENDROOT
BRANCH   1  10
HETATM   10  C   UNK N   1      -3.210   1.331   0.000  0.00  0.00     0.183 C 
BRANCH  10  11
HETATM   11  N   UNK N   1      -1.834   0.843   0.000  0.00  0.00    -0.365 N 
HETATM   12  C   UNK N   1      -1.420  -0.531  -0.000  0.00  0.00     0.125 A 
HETATM   13  C   UNK N   1       0.121  -0.489  -0.000  0.00  0.00     0.027 A 
HETATM   14  C   UNK N   1       0.561   0.987  -0.000  0.00  0.00     0.077 A 
HETATM   15  C   UNK N   1      -0.729   1.700   0.000  0.00  0.00     0.073 A 
HETATM   16  N   UNK N   1      -0.819   2.983   0.000  0.00  0.00    -0.389 N 
HETATM   17  H   UNK N   1      -1.731   3.461   0.000  0.00  0.00     0.157 HD
ATOM     18  HN  UNK N   1       0.035   3.541   0.000  1.00  0.00     0.157 HD
ENDBRANCH  10  11
ENDBRANCH   1  10
BRANCH   3  19
HETATM   19  O   UNK N   1      -7.963   0.117  -0.000  0.00  0.00    -0.345 OA
HETATM   20  H   UNK N   1      -8.197   1.024  -0.000  0.00  0.00     0.219 HD
ENDBRANCH   3  19
BRANCH   4  21
HETATM   21  O   UNK N   1      -4.730  -3.259   0.000  0.00  0.00    -0.332 OA
HETATM   22  H   UNK N   1      -5.412  -3.902   0.000  0.00  0.00     0.221 HD
ENDBRANCH   4  21
TORSDOF 4
