REMARK  7 active torsions:
REMARK  status: ('A' for Active; 'I' for Inactive)
REMARK    1  A    between atoms: C_1  and  C_3 
REMARK    2  A    between atoms: C_1  and  C_2 
REMARK    3  A    between atoms: C_2  and  O_9 
REMARK    4  A    between atoms: C_3  and  N_5 
REMARK    5  A    between atoms: C_3  and  C_4 
REMARK    6  A    between atoms: C_4  and  O_7 
REMARK    7  A    between atoms: N_6  and  O_9 
ROOT
HETATM    1  C   UNK N   1       9.332 -14.076  -0.000  0.00  0.00     0.175 C 
ENDROOT
BRANCH   1   2
HETATM    2  C   UNK N   1       9.899 -12.652   0.000  0.00  0.00     0.064 C 
BRANCH   2   3
HETATM    3  C   UNK N   1      11.416 -12.631  -0.000  0.00  0.00     0.203 C 
BRANCH   3   4
HETATM    4  O   UNK N   1      11.894 -11.325   0.000  0.00  0.00    -0.287 OA
BRANCH   4   5
HETATM    5  N   UNK N   1      13.240 -11.470   0.000  0.00  0.00    -0.311 N 
HETATM    6  H   UNK N   1      13.652 -12.403   0.000  0.00  0.00     0.184 HD
HETATM    7  H   UNK N   1      13.842 -10.647   0.000  0.00  0.00     0.184 HD
ENDBRANCH   4   5
ENDBRANCH   3   4
ENDBRANCH   2   3
ENDBRANCH   1   2
BRANCH   1   8
HETATM    8  N   UNK N   1       7.885 -14.192   0.000  0.00  0.00    -0.417 N 
HETATM    9  H   UNK N   1       7.306 -13.352   0.000  0.00  0.00     0.150 HD
HETATM   10  H   UNK N   1       7.447 -15.113   0.000  0.00  0.00     0.150 HD
ENDBRANCH   1   8
BRANCH   1  11
HETATM   11  C   UNK N   1      10.123 -15.364   0.000  0.00  0.00     0.163 C 
HETATM   12  O   UNK N   1      11.338 -15.354   0.000  0.00  0.00    -0.648 OA
BRANCH  11  13
HETATM   13  O   UNK N   1       9.471 -16.545   0.000  0.00  0.00    -0.775 OA
HETATM   14  H   UNK N   1       8.534 -16.563  -0.000  0.00  0.00     0.167 HD
ENDBRANCH  11  13
ENDBRANCH   1  11
TORSDOF 7
