REMARK  8 active torsions:
REMARK  status: ('A' for Active; 'I' for Inactive)
REMARK    1  A    between atoms: C_9  and  C_8 
REMARK    2  A    between atoms: C_25  and  C_8 
REMARK    3  A    between atoms: C_26  and  C_9 
REMARK    4  A    between atoms: C_24  and  O_41 
REMARK    5  A    between atoms: O_37  and  C_25 
REMARK    6  A    between atoms: O_41  and  C_26 
REMARK    7  A    between atoms: C_31  and  C_28 
REMARK    8  A    between atoms: O_40  and  C_28 
ROOT
HETATM    1  C   UNK N   1      -2.262   4.816  -0.250  0.00  0.00     0.018 C 
HETATM    2  C   UNK N   1      -1.382   3.694  -2.217  0.00  0.00     0.018 C 
HETATM    3  C   UNK N   1       8.279   5.223  -0.991  0.00  0.00     0.016 C 
HETATM    4  C   UNK N   1       6.943   0.343   1.008  0.00  0.00     0.026 C 
HETATM    5  C   UNK N   1       0.897   2.037  -1.905  0.00  0.00     0.016 C 
HETATM    6  C   UNK N   1       4.874   5.416  -1.498  0.00  0.00     0.021 C 
HETATM    7  C   UNK N   1       2.734   3.960  -2.170  0.00  0.00     0.017 C 
HETATM    8  C   UNK N   1       0.652   5.051  -0.527  0.00  0.00     0.007 C 
HETATM    9  C   UNK N   1      -1.223   1.058  -0.345  0.00  0.00     0.034 C 
HETATM   10  C   UNK N   1       0.176   1.280   0.285  0.00  0.00     0.013 C 
HETATM   11  C   UNK N   1       2.114   5.204  -0.106  0.00  0.00     0.011 C 
HETATM   12  C   UNK N   1       8.475   3.770   0.920  0.00  0.00     0.011 C 
HETATM   13  C   UNK N   1       7.930   2.513   1.550  0.00  0.00     0.021 C 
HETATM   14  C   UNK N   1       6.492   5.237   0.725  0.00  0.00     0.011 C 
HETATM   15  C   UNK N   1       5.018   4.769   0.873  0.00  0.00     0.015 C 
HETATM   16  C   UNK N   1       4.738   1.805  -0.588  0.00  0.00     0.054 C 
HETATM   17  C   UNK N   1       7.594   1.863  -0.908  0.00  0.00     0.030 C 
HETATM   18  C   UNK N   1       5.293   3.031  -0.725  0.00  0.00    -0.062 C 
HETATM   19  C   UNK N   1       6.786   3.186  -0.970  0.00  0.00     0.025 C 
HETATM   20  C   UNK N   1       3.330   1.567  -0.192  0.00  0.00     0.155 C 
HETATM   21  C   UNK N   1       0.008   3.718  -0.087  0.00  0.00     0.005 C 
HETATM   22  C   UNK N   1      -2.140   2.295  -0.262  0.00  0.00     0.140 C 
HETATM   23  C   UNK N   1       2.384   2.725   0.054  0.00  0.00     0.077 C 
HETATM   24  C   UNK N   1      -1.429   3.613  -0.691  0.00  0.00    -0.017 C 
HETATM   25  C   UNK N   1       7.460   4.318  -0.078  0.00  0.00    -0.036 C 
HETATM   26  C   UNK N   1       7.948   1.371   0.525  0.00  0.00     0.042 C 
HETATM   27  C   UNK N   1       0.886   2.451  -0.419  0.00  0.00    -0.028 C 
HETATM   28  C   UNK N   1       4.493   4.300  -0.482  0.00  0.00    -0.012 C 
HETATM   29  C   UNK N   1       2.945   4.032  -0.637  0.00  0.00    -0.021 C 
HETATM   30  O   UNK N   1       2.992   0.432   0.103  0.00  0.00    -0.293 OA
ENDROOT
BRANCH  22  31
HETATM   31  O   UNK N   1      -2.630   2.406   1.030  0.00  0.00    -0.315 OA
BRANCH  31  32
HETATM   32  C   UNK N   1      -3.954   2.425   1.367  0.00  0.00     0.259 C 
HETATM   33  O   UNK N   1      -4.259   2.439   2.549  0.00  0.00    -0.265 OA
BRANCH  32  34
HETATM   34  C   UNK N   1      -5.066   2.419   0.344  0.00  0.00     0.121 C 
BRANCH  34  35
HETATM   35  C   UNK N   1      -5.155   3.737  -0.425  0.00  0.00     0.119 C 
BRANCH  35  36
HETATM   36  C   UNK N   1      -5.964   4.782   0.288  0.00  0.00     0.139 C 
HETATM   37  O   UNK N   1      -6.078   5.893  -0.203  0.00  0.00    -0.650 OA
BRANCH  36  38
HETATM   38  O   UNK N   1      -6.575   4.505   1.457  0.00  0.00    -0.776 OA
HETATM   39  H   UNK N   1      -6.954   4.777   2.270  0.00  0.00     0.167 HD
ENDBRANCH  36  38
ENDBRANCH  35  36
ENDBRANCH  34  35
ENDBRANCH  32  34
ENDBRANCH  31  32
ENDBRANCH  22  31
BRANCH  26  40
HETATM   40  C   UNK N   1       9.308   0.712   0.458  0.00  0.00     0.148 C 
HETATM   41  O   UNK N   1      10.251   1.148   1.103  0.00  0.00    -0.649 OA
BRANCH  40  42
HETATM   42  O   UNK N   1       9.490  -0.369  -0.326  0.00  0.00    -0.776 OA
HETATM   43  H   UNK N   1       8.902  -0.854  -0.871  0.00  0.00     0.167 HD
ENDBRANCH  40  42
ENDBRANCH  26  40
TORSDOF 8
