REMARK  1 active torsions:
REMARK  status: ('A' for Active; 'I' for Inactive)
REMARK    1  A    between atoms: C_2  and  Si_3 
ROOT
HETATM    1 Si   UNK N   1       0.956   0.302  -0.000  0.00  0.00     0.000 Si
HETATM    2  C   UNK N   1       0.758   2.159  -0.000  0.00  0.00    -0.000 C 
HETATM    3  C   UNK N   1       2.745   0.829   0.000  0.00  0.00    -0.000 C 
HETATM    4  C   UNK N   1      -0.910   0.115   0.000  0.00  0.00    -0.000 C 
ENDROOT
BRANCH   1   5
HETATM    5  C   UNK N   1       1.572  -1.478   0.000  0.00  0.00    -0.005 C 
HETATM    6  C   UNK N   1       0.459  -2.510  -0.000  0.00  0.00     0.005 C 
ENDBRANCH   1   5
TORSDOF 1
