REMARK  7 active torsions:
REMARK  status: ('A' for Active; 'I' for Inactive)
REMARK    1  A    between atoms: C_2  and  N_1 
REMARK    2  A    between atoms: C_2  and  C_3 
REMARK    3  A    between atoms: C_2  and  C_13 
REMARK    4  A    between atoms: C_3  and  C_4 
REMARK    5  A    between atoms: C_4  and  C_6 
REMARK    6  A    between atoms: C_11  and  N_12 
REMARK    7  A    between atoms: C_13  and  O_14 
ROOT
HETATM    1  C   UNK N   1      -1.967   0.827   0.248  0.00  0.00     0.164 C 
HETATM    2  O   UNK N   1      -1.977   2.040   0.104  0.00  0.00    -0.292 OA
ENDROOT
BRANCH   1   3
HETATM    3  C   UNK N   1      -0.687   0.143   0.642  0.00  0.00     0.119 C 
BRANCH   3   4
HETATM    4  C   UNK N   1       0.438   0.343  -0.364  0.00  0.00     0.180 C 
BRANCH   4   5
HETATM    5  N   UNK N   1       0.998   1.678  -0.211  0.00  0.00    -0.417 N 
HETATM    6  H   UNK N   1       2.004   1.806  -0.105  0.00  0.00     0.150 HD
HETATM    7  H   UNK N   1       0.380   2.490  -0.211  0.00  0.00     0.150 HD
ENDBRANCH   4   5
BRANCH   4   8
HETATM    8  C   UNK N   1       1.495  -0.702  -0.138  0.00  0.00     0.163 C 
HETATM    9  O   UNK N   1       1.212  -1.884  -0.254  0.00  0.00    -0.648 OA
BRANCH   8  10
HETATM   10  O   UNK N   1       2.755  -0.349   0.184  0.00  0.00    -0.775 OA
HETATM   11  H   UNK N   1       3.406  -0.986   0.409  0.00  0.00     0.167 HD
ENDBRANCH   8  10
ENDBRANCH   4   8
ENDBRANCH   3   4
ENDBRANCH   1   3
BRANCH   1  12
HETATM   12  C   UNK N   1      -3.219   0.029   0.101  0.00  0.00     0.036 A 
HETATM   13  C   UNK N   1      -3.139  -1.372   0.165  0.00  0.00     0.017 A 
HETATM   14  C   UNK N   1      -4.284  -2.163   0.048  0.00  0.00     0.001 A 
HETATM   15  C   UNK N   1      -5.530  -1.563  -0.126  0.00  0.00     0.002 A 
HETATM   16  C   UNK N   1      -5.632  -0.172  -0.188  0.00  0.00     0.030 A 
HETATM   17  C   UNK N   1      -4.491   0.630  -0.081  0.00  0.00     0.039 A 
BRANCH  17  18
HETATM   18  N   UNK N   1      -4.640   2.032  -0.130  0.00  0.00    -0.398 N 
HETATM   19  H   UNK N   1      -3.845   2.611  -0.165  0.00  0.00     0.156 HD
HETATM   20  H   UNK N   1      -5.540   2.431  -0.130  0.00  0.00     0.156 HD
ENDBRANCH  17  18
ENDBRANCH   1  12
TORSDOF 7
