REMARK  3 active torsions:
REMARK  status: ('A' for Active; 'I' for Inactive)
REMARK    1  A    between atoms: C_2  and  N_4 
REMARK    2  A    between atoms: C_2  and  C_5 
REMARK    3  A    between atoms: C_5  and  O_6 
ROOT
HETATM    1  C   UNK N   1       1.785   1.635  -1.323  0.00  0.00     0.049 C 
HETATM    2  C   UNK N   1       1.619   0.952   0.022  0.00  0.00     0.102 C 
HETATM    3  C   UNK N   1       0.971   1.922   0.993  0.00  0.00     0.049 C 
ENDROOT
BRANCH   2   4
HETATM    4  N   UNK N   1       2.932   0.591   0.529  0.00  0.00    -0.414 N 
HETATM    5  H   UNK N   1       3.173  -0.334   0.885  0.00  0.00     0.151 HD
HETATM    6  H   UNK N   1       3.658   1.307   0.529  0.00  0.00     0.151 HD
ENDBRANCH   2   4
BRANCH   2   7
HETATM    7  C   UNK N   1       0.757  -0.275  -0.135  0.00  0.00     0.168 C 
HETATM    8  O   UNK N   1      -0.401  -0.168  -0.503  0.00  0.00    -0.648 OA
BRANCH   7   9
HETATM    9  O   UNK N   1       1.262  -1.500   0.121  0.00  0.00    -0.775 OA
HETATM   10  H   UNK N   1       0.700  -2.228   0.298  0.00  0.00     0.167 HD
ENDBRANCH   7   9
ENDBRANCH   2   7
TORSDOF 3
