REMARK  2 active torsions:
REMARK  status: ('A' for Active; 'I' for Inactive)
REMARK    1  A    between atoms: C_2  and  C_1 
REMARK    2  A    between atoms: N_5  and  C_2 
ROOT
HETATM    1  C   UNK N   1       1.245  -0.711  -0.000  0.00  0.00     0.072 C 
HETATM    2  N   UNK N   1       2.525  -0.773  -0.000  0.00  0.00    -0.410 N 
ATOM      3  HN  UNK N   1       3.071   0.088  -0.000  1.00  0.00     0.155 HD
HETATM    4  H   UNK N   1       3.009  -1.683   0.000  0.00  0.00     0.155 HD
ENDROOT
BRANCH   1   5
HETATM    5  C   UNK N   1       0.577   0.627  -0.000  0.00  0.00     0.155 C 
BRANCH   5   6
HETATM    6  N   UNK N   1      -0.868   0.480  -0.000  0.00  0.00    -0.426 N 
HETATM    7  H   UNK N   1      -1.464   1.308  -0.000  0.00  0.00     0.150 HD
HETATM    8  H   UNK N   1      -1.286  -0.450  -0.000  0.00  0.00     0.150 HD
ENDBRANCH   5   6
ENDBRANCH   1   5
TORSDOF 2
