REMARK  1 active torsions:
REMARK  status: ('A' for Active; 'I' for Inactive)
REMARK    1  A    between atoms: N_1  and  C_2 
ROOT
HETATM    1  C   UNK N   1       1.847  -0.317   0.000  0.00  0.00     0.115 A 
HETATM    2  C   UNK N   1       0.692  -1.102  -0.000  0.00  0.00     0.136 A 
HETATM    3  N   UNK N   1      -0.527  -0.499   0.000  0.00  0.00    -0.369 N 
ATOM      4  HN  UNK N   1      -1.371  -1.072  -0.000  1.00  0.00     0.164 HD
HETATM    5  C   UNK N   1      -0.636   0.855   0.000  0.00  0.00     0.130 A 
HETATM    6  C   UNK N   1       0.519   1.637   0.000  0.00  0.00     0.120 A 
HETATM    7 Cl   UNK N   1       0.393   3.379  -0.000  0.00  0.00    -0.063 Cl
HETATM    8  N   UNK N   1       1.740   1.037   0.000  0.00  0.00    -0.331 N 
ATOM      9  HN  UNK N   1       2.584   1.610   0.000  1.00  0.00     0.168 HD
ENDROOT
BRANCH   1  10
HETATM   10  N   UNK N   1       3.117  -0.927   0.000  0.00  0.00    -0.384 N 
HETATM   11  H   UNK N   1       3.192  -1.908   0.000  0.00  0.00     0.157 HD
HETATM   12  H   UNK N   1       3.930  -0.371   0.000  0.00  0.00     0.157 HD
ENDBRANCH   1  10
TORSDOF 1
