REMARK  4 active torsions:
REMARK  status: ('A' for Active; 'I' for Inactive)
REMARK    1  A    between atoms: C_27  and  C_25 
REMARK    2  A    between atoms: N_37  and  C_25 
REMARK    3  A    between atoms: C_28  and  C_26 
REMARK    4  A    between atoms: N_38  and  C_26 
ROOT
HETATM    1  C   UNK N   1       5.201   2.156  -1.741  0.00  0.00     0.009 C 
HETATM    2  C   UNK N   1       5.722   3.343   0.305  0.00  0.00     0.009 C 
HETATM    3  C   UNK N   1       3.878   2.578  -1.634  0.00  0.00     0.009 C 
HETATM    4  C   UNK N   1       4.384   3.718   0.441  0.00  0.00     0.009 C 
HETATM    5  C   UNK N   1       6.119   2.495  -0.747  0.00  0.00    -0.030 C 
HETATM    6  C   UNK N   1       3.450   3.287  -0.508  0.00  0.00    -0.030 C 
ENDROOT
BRANCH   5   7
HETATM    7  C   UNK N   1       7.483   1.833  -0.731  0.00  0.00     0.311 C 
BRANCH   7   8
HETATM    8  N   UNK N   1       7.809   1.117   0.517  0.00  0.00     0.094 N 
HETATM    9  C   UNK N   1       8.907   1.779   1.175  0.00  0.00     0.274 C 
HETATM   10  C   UNK N   1      10.239   1.396   0.567  0.00  0.00     0.046 C 
HETATM   11  C   UNK N   1      10.703   0.090   1.188  0.00  0.00     0.110 C 
HETATM   12  N   UNK N   1       9.863  -0.982   0.730  0.00  0.00    -0.248 NA
HETATM   13  C   UNK N   1      10.443  -1.930  -0.185  0.00  0.00     0.124 C 
HETATM   14 Cu   UNK N   1       8.256  -0.585   0.201  0.00  0.00     0.000 Cu
HETATM   15  C   UNK N   1       9.722  -1.823  -1.557  0.00  0.00     0.124 C 
HETATM   16  N   UNK N   1       8.392  -1.259  -1.396  0.00  0.00    -0.248 NA
HETATM   17  C   UNK N   1       7.286  -2.065  -1.827  0.00  0.00     0.110 C 
HETATM   18  C   UNK N   1       6.947  -3.063  -0.730  0.00  0.00     0.037 C 
HETATM   19  C   UNK N   1       6.192  -2.376   0.398  0.00  0.00     0.143 C 
HETATM   20  N   UNK N   1       7.006  -1.395   1.078  0.00  0.00    -0.328 N 
HETATM   21  C   UNK N   1       6.325  -0.443   1.897  0.00  0.00     0.172 C 
HETATM   22  C   UNK N   1       6.692   0.995   1.464  0.00  0.00     0.294 C 
ENDBRANCH   7   8
ENDBRANCH   5   7
BRANCH   6  23
HETATM   23  C   UNK N   1       1.977   3.456  -0.288  0.00  0.00     0.311 C 
BRANCH  23  24
HETATM   24  N   UNK N   1       1.321   2.616   0.732  0.00  0.00     0.094 N 
HETATM   25  C   UNK N   1       2.247   1.902   1.617  0.00  0.00     0.274 C 
HETATM   26  C   UNK N   1       2.688   0.523   1.048  0.00  0.00     0.046 C 
HETATM   27  C   UNK N   1       2.621   0.328  -0.487  0.00  0.00     0.110 C 
HETATM   28  N   UNK N   1       1.242   0.262  -0.885  0.00  0.00    -0.248 NA
HETATM   29  C   UNK N   1       0.612  -1.028  -0.756  0.00  0.00     0.124 C 
HETATM   30 Cu   UNK N   1       0.317   1.426  -0.033  0.00  0.00     0.000 Cu
HETATM   31  C   UNK N   1      -0.257  -1.048   0.529  0.00  0.00     0.124 C 
HETATM   32  N   UNK N   1      -0.603   0.306   0.916  0.00  0.00    -0.248 NA
HETATM   33  C   UNK N   1      -2.001   0.633   1.023  0.00  0.00     0.110 C 
HETATM   34  C   UNK N   1      -2.587   0.807  -0.384  0.00  0.00     0.037 C 
HETATM   35  C   UNK N   1      -2.092   2.052  -1.144  0.00  0.00     0.143 C 
HETATM   36  N   UNK N   1      -0.842   2.546  -0.623  0.00  0.00    -0.328 N 
HETATM   37  C   UNK N   1      -0.825   3.667   0.301  0.00  0.00     0.172 C 
HETATM   38  C   UNK N   1       0.284   3.371   1.390  0.00  0.00     0.294 C 
ENDBRANCH  23  24
ENDBRANCH   6  23
TORSDOF 4
