REMARK  4 active torsions:
REMARK  status: ('A' for Active; 'I' for Inactive)
REMARK    1  A    between atoms: C_2  and  C_13 
REMARK    2  A    between atoms: C_6  and  N_7 
REMARK    3  A    between atoms: C_8  and  O_9 
REMARK    4  A    between atoms: C_13  and  O_14 
ROOT
HETATM    1  N   UNK N   1       1.885   3.862  -0.000  0.00  0.00    -0.417 N 
HETATM    2  C   UNK N   1       2.924   2.853   0.001  0.00  0.00     0.177 A 
HETATM    3  C   UNK N   1       2.647   1.337  -0.000  0.00  0.00     0.077 A 
HETATM    4  C   UNK N   1       1.313   0.610  -0.000  0.00  0.00    -0.020 A 
HETATM    5  C   UNK N   1       1.408  -0.789  -0.000  0.00  0.00     0.041 A 
HETATM    6  C   UNK N   1       0.268  -1.597  -0.000  0.00  0.00     0.060 A 
HETATM    7  C   UNK N   1      -0.998  -1.007   0.000  0.00  0.00     0.094 A 
HETATM    8  C   UNK N   1      -1.116   0.377   0.000  0.00  0.00     0.076 A 
HETATM    9  C   UNK N   1       0.017   1.194   0.000  0.00  0.00     0.074 A 
HETATM   10  O   UNK N   1      -0.177   2.514   0.000  0.00  0.00    -0.360 OA
HETATM   11  H   UNK N   1       2.135   4.851  -0.001  0.00  0.00     0.150 HD
HETATM   12  H   UNK N   1       0.904   3.584  -0.000  0.00  0.00     0.150 HD
HETATM   13  H   UNK N   1       0.558   3.095  -0.000  0.00  0.00     0.217 HD
ENDROOT
BRANCH   2  14
HETATM   14  C   UNK N   1       4.327   3.367   0.000  0.00  0.00     0.163 C 
HETATM   15  O   UNK N   1       5.268   2.589  -0.000  0.00  0.00    -0.648 OA
BRANCH  14  16
HETATM   16  O   UNK N   1       4.558   4.693  -0.000  0.00  0.00    -0.775 OA
HETATM   17  H   UNK N   1       5.438   5.016  -0.000  0.00  0.00     0.167 HD
ENDBRANCH  14  16
ENDBRANCH   2  14
BRANCH   6  18
HETATM   18  N   UNK N   1       0.404  -2.999  -0.000  0.00  0.00    -0.397 N 
HETATM   19  H   UNK N   1      -0.397  -3.571  -0.000  0.00  0.00     0.156 HD
HETATM   20  H   UNK N   1       1.300  -3.407  -0.000  0.00  0.00     0.156 HD
ENDBRANCH   6  18
BRANCH   7  21
HETATM   21  O   UNK N   1      -2.106  -1.768   0.000  0.00  0.00    -0.358 OA
HETATM   22  H   UNK N   1      -2.952  -1.365   0.000  0.00  0.00     0.217 HD
ENDBRANCH   7  21
TORSDOF 4
