REMARK  8 active torsions:
REMARK  status: ('A' for Active; 'I' for Inactive)
REMARK    1  A    between atoms: C_1  and  O_7 
REMARK    2  A    between atoms: C_2  and  O_8 
REMARK    3  A    between atoms: C_3  and  C_5 
REMARK    4  A    between atoms: C_4  and  O_16 
REMARK    5  A    between atoms: O_9  and  C_5 
REMARK    6  A    between atoms: C_6  and  O_11 
REMARK    7  A    between atoms: S_17  and  O_12 
REMARK    8  A    between atoms: S_17  and  O_16 
ROOT
HETATM    1  C   UNK N   1       2.033   1.231  -0.134  0.00  0.00     0.189 C 
HETATM    2  C   UNK N   1       0.647   1.929  -0.007  0.00  0.00     0.185 C 
HETATM    3  C   UNK N   1       1.975  -0.258   0.310  0.00  0.00     0.253 C 
HETATM    4  C   UNK N   1      -0.404   0.965   0.570  0.00  0.00     0.230 C 
HETATM    5  C   UNK N   1      -0.347  -0.381  -0.235  0.00  0.00     0.291 C 
HETATM    6  O   UNK N   1       0.957  -0.939  -0.400  0.00  0.00    -0.340 OA
ENDROOT
BRANCH   4   7
HETATM    7  O   UNK N   1      -1.671   1.611   0.719  0.00  0.00    -0.251 OA
BRANCH   7   8
HETATM    8  S   UNK N   1      -2.861   1.152  -0.460  0.00  0.00     0.241 S 
HETATM    9  O   UNK N   1      -3.117   2.641  -0.185  0.00  0.00    -0.579 OA
HETATM   10  O   UNK N   1      -3.222   0.451   0.861  0.00  0.00    -0.579 OA
BRANCH   8  11
HETATM   11  O   UNK N   1      -4.548   1.294  -0.180  0.00  0.00    -0.274 OA
HETATM   12  H   UNK N   1      -4.955   2.160  -0.021  0.00  0.00     0.234 HD
ENDBRANCH   8  11
ENDBRANCH   7   8
ENDBRANCH   4   7
BRANCH   2  13
HETATM   13  O   UNK N   1       0.233   2.380  -1.265  0.00  0.00    -0.390 OA
HETATM   14  H   UNK N   1       0.361   2.785  -2.137  0.00  0.00     0.210 HD
ENDBRANCH   2  13
BRANCH   5  15
HETATM   15  O   UNK N   1      -1.161  -1.334   0.378  0.00  0.00    -0.368 OA
HETATM   16  H   UNK N   1      -2.018  -1.175   0.804  0.00  0.00     0.212 HD
ENDBRANCH   5  15
BRANCH   1  17
HETATM   17  O   UNK N   1       2.984   1.917   0.628  0.00  0.00    -0.390 OA
HETATM   18  H   UNK N   1       3.726   1.584   1.156  0.00  0.00     0.210 HD
ENDBRANCH   1  17
BRANCH   3  19
HETATM   19  C   UNK N   1       3.271  -1.001   0.095  0.00  0.00     0.172 C 
HETATM   20  O   UNK N   1       4.243  -0.449  -0.398  0.00  0.00    -0.648 OA
BRANCH  19  21
HETATM   21  O   UNK N   1       3.357  -2.295   0.457  0.00  0.00    -0.774 OA
HETATM   22  H   UNK N   1       2.607  -2.797   0.708  0.00  0.00     0.167 HD
ENDBRANCH  19  21
ENDBRANCH   3  19
TORSDOF 8
