REMARK  6 active torsions:
REMARK  status: ('A' for Active; 'I' for Inactive)
REMARK    1  A    between atoms: C_3  and  N_1 
REMARK    2  A    between atoms: C_9  and  O_16 
REMARK    3  A    between atoms: C_12  and  N_19 
REMARK    4  A    between atoms: C_14  and  C_20 
REMARK    5  A    between atoms: C_15  and  O_21 
REMARK    6  A    between atoms: C_20  and  S_22 
ROOT
HETATM    1  N   UNK N   1       1.440   0.369   0.214  0.00  0.00    -0.297 N 
HETATM    2  C   UNK N   1       0.314   1.078   0.043  0.00  0.00     0.142 A 
HETATM    3  C   UNK N   1       2.447   1.265   0.046  0.00  0.00     0.188 A 
HETATM    4  C   UNK N   1       0.624   2.361  -0.213  0.00  0.00     0.122 A 
HETATM    5  N   UNK N   1      -0.968   0.638   0.099  0.00  0.00    -0.336 N 
ATOM      6  HN  UNK N   1      -1.178  -0.341   0.294  1.00  0.00     0.168 HD
HETATM    7  N   UNK N   1       1.963   2.514  -0.217  0.00  0.00    -0.346 N 
ATOM      8  HN  UNK N   1       2.494   3.369  -0.379  1.00  0.00     0.167 HD
HETATM    9  C   UNK N   1      -0.382   3.292  -0.423  0.00  0.00     0.131 A 
HETATM   10  C   UNK N   1      -1.972   1.541  -0.114  0.00  0.00     0.183 A 
HETATM   11  N   UNK N   1      -1.678   2.858  -0.370  0.00  0.00    -0.337 N 
ATOM     12  HN  UNK N   1      -2.437   3.523  -0.522  1.00  0.00     0.168 HD
ENDROOT
BRANCH   1  13
HETATM   13  C   UNK N   1       1.588  -1.056   0.522  0.00  0.00     0.262 C 
HETATM   14  O   UNK N   1       0.411  -1.558   1.118  0.00  0.00    -0.355 OA
HETATM   15  C   UNK N   1      -0.244  -2.212   0.068  0.00  0.00     0.165 C 
HETATM   16  C   UNK N   1       0.820  -2.958  -0.698  0.00  0.00     0.180 C 
HETATM   17  C   UNK N   1       1.828  -1.840  -0.765  0.00  0.00     0.198 C 
BRANCH  15  18
HETATM   18  C   UNK N   1      -1.382  -3.085   0.560  0.00  0.00     0.108 C 
BRANCH  18  19
HETATM   19  S   UNK N   1      -2.747  -2.995  -0.633  0.00  0.00    -0.171 SA
HETATM   20  C   UNK N   1      -3.981  -2.788   0.681  0.00  0.00     0.089 C 
ENDBRANCH  18  19
ENDBRANCH  15  18
BRANCH  16  21
HETATM   21  O   UNK N   1       1.308  -4.007   0.092  0.00  0.00    -0.390 OA
HETATM   22  H   UNK N   1       0.848  -4.663   0.639  0.00  0.00     0.210 HD
ENDBRANCH  16  21
BRANCH  17  23
HETATM   23  O   UNK N   1       3.140  -2.313  -0.852  0.00  0.00    -0.388 OA
HETATM   24  H   UNK N   1       3.311  -3.266  -0.912  0.00  0.00     0.210 HD
ENDBRANCH  17  23
ENDBRANCH   1  13
BRANCH   9  25
HETATM   25  N   UNK N   1      -0.089   4.645  -0.681  0.00  0.00    -0.383 N 
HETATM   26  H   UNK N   1       0.833   4.940  -0.862  0.00  0.00     0.157 HD
HETATM   27  H   UNK N   1      -0.818   5.307  -0.681  0.00  0.00     0.157 HD
ENDBRANCH   9  25
TORSDOF 6
