REMARK  8 active torsions:
REMARK  status: ('A' for Active; 'I' for Inactive)
REMARK    1  A    between atoms: C_6  and  C_7 
REMARK    2  A    between atoms: C_7  and  O_8 
REMARK    3  A    between atoms: O_8  and  P_9 
REMARK    4  A    between atoms: P_9  and  O_10 
REMARK    5  A    between atoms: P_9  and  O_11 
REMARK    6  A    between atoms: C_13  and  C_14 
REMARK    7  A    between atoms: C_14  and  N_15 
REMARK    8  A    between atoms: C_16  and  O_17 
ROOT
HETATM    1  C   UNK N   1       3.959   1.826  -0.343  0.00  0.00     0.071 C 
HETATM    2  C   UNK N   1       2.655   1.131  -0.138  0.00  0.00     0.039 A 
HETATM    3  N   UNK N   1       2.636  -0.220  -0.037  0.00  0.00    -0.367 N 
ATOM      4  HN  UNK N   1       3.510  -0.738  -0.124  1.00  0.00     0.165 HD
HETATM    5  C   UNK N   1       1.482  -0.902   0.177  0.00  0.00     0.098 A 
HETATM    6  C   UNK N   1       0.268  -0.224   0.296  0.00  0.00    -0.008 A 
HETATM    7  C   UNK N   1       0.239   1.183   0.179  0.00  0.00     0.004 A 
HETATM    8  C   UNK N   1       1.464   1.867  -0.040  0.00  0.00     0.096 A 
ENDROOT
BRANCH   6   9
HETATM    9  C   UNK N   1      -0.953  -1.033   0.606  0.00  0.00     0.221 C 
BRANCH   9  10
HETATM   10  O   UNK N   1      -1.966  -0.862  -0.343  0.00  0.00    -0.292 OA
BRANCH  10  11
HETATM   11  P   UNK N   1      -3.432  -1.058   0.578  0.00  0.00     0.391 P 
HETATM   12  O   UNK N   1      -3.347  -2.399  -0.202  0.00  0.00    -0.632 OA
BRANCH  11  13
HETATM   13  O   UNK N   1      -4.969  -1.166  -0.219  0.00  0.00    -0.307 OA
HETATM   14  H   UNK N   1      -5.451  -0.452  -0.664  0.00  0.00     0.222 HD
ENDBRANCH  11  13
BRANCH  11  15
HETATM   15  O   UNK N   1      -3.636   0.265  -0.526  0.00  0.00    -0.307 OA
HETATM   16  H   UNK N   1      -3.052   0.734  -1.144  0.00  0.00     0.222 HD
ENDBRANCH  11  15
ENDBRANCH  10  11
ENDBRANCH   9  10
ENDBRANCH   6   9
BRANCH   7  17
HETATM   17  C   UNK N   1      -1.097   1.891   0.311  0.00  0.00     0.153 C 
BRANCH  17  18
HETATM   18  N   UNK N   1      -1.063   3.314   0.020  0.00  0.00    -0.426 N 
HETATM   19  H   UNK N   1      -0.185   3.793  -0.185  0.00  0.00     0.150 HD
HETATM   20  H   UNK N   1      -1.933   3.845   0.020  0.00  0.00     0.150 HD
ENDBRANCH  17  18
ENDBRANCH   7  17
BRANCH   8  21
HETATM   21  O   UNK N   1       1.509   3.208  -0.138  0.00  0.00    -0.358 OA
HETATM   22  H   UNK N   1       2.333   3.647  -0.207  0.00  0.00     0.217 HD
ENDBRANCH   8  21
TORSDOF 8
