REMARK  1 active torsions:
REMARK  status: ('A' for Active; 'I' for Inactive)
REMARK    1  A    between atoms: N_1  and  C_2 
ROOT
HETATM    1  C   UNK N   1      -0.161  -1.524   0.000  0.00  0.00     0.026 A 
HETATM    2  C   UNK N   1      -0.181  -0.125  -0.000  0.00  0.00     0.030 A 
HETATM    3  C   UNK N   1       1.020   0.593  -0.000  0.00  0.00     0.020 A 
HETATM    4  C   UNK N   1       2.247  -0.089  -0.000  0.00  0.00     0.049 A 
HETATM    5  C   UNK N   1       3.468   0.596  -0.000  0.00  0.00     0.271 A 
HETATM    6  O   UNK N   1       3.501   1.816  -0.000  0.00  0.00    -0.266 OA
HETATM    7  N   UNK N   1       4.640  -0.113   0.000  0.00  0.00    -0.263 N 
HETATM    8  N   UNK N   1       4.648  -1.449  -0.000  0.00  0.00    -0.263 N 
HETATM    9  C   UNK N   1       3.484  -2.169  -0.000  0.00  0.00     0.271 A 
HETATM   10  O   UNK N   1       3.527  -3.389  -0.000  0.00  0.00    -0.266 OA
HETATM   11  C   UNK N   1       2.259  -1.499  -0.000  0.00  0.00     0.051 A 
HETATM   12  C   UNK N   1       1.053  -2.207   0.000  0.00  0.00     0.047 A 
HETATM   13  H   UNK N   1       5.497   0.373   0.000  0.00  0.00     0.190 HD
HETATM   14  H   UNK N   1       5.510  -1.926  -0.000  0.00  0.00     0.190 HD
ENDROOT
BRANCH   1  15
HETATM   15  N   UNK N   1      -1.366  -2.250   0.000  0.00  0.00    -0.399 N 
HETATM   16  H   UNK N   1      -2.228  -1.774   0.000  0.00  0.00     0.156 HD
HETATM   17  H   UNK N   1      -1.348  -3.235   0.000  0.00  0.00     0.156 HD
ENDBRANCH   1  15
TORSDOF 1
