REMARK  12 active torsions:
REMARK  status: ('A' for Active; 'I' for Inactive)
REMARK    1  A    between atoms: P_1  and  O_3 
REMARK    2  A    between atoms: P_1  and  O_5 
REMARK    3  A    between atoms: P_1  and  O_6 
REMARK    4  A    between atoms: P_2  and  O_4 
REMARK    5  A    between atoms: P_2  and  O_7 
REMARK    6  A    between atoms: P_2  and  O_8 
REMARK    7  A    between atoms: O_3  and  C_15 
REMARK    8  A    between atoms: C_16  and  O_4 
REMARK    9  A    between atoms: C_18  and  O_9 
REMARK   10  A    between atoms: C_19  and  O_10 
REMARK   11  A    between atoms: C_20  and  O_11 
REMARK   12  A    between atoms: C_17  and  C_15 
ROOT
HETATM    1  O   UNK N   1      28.430 -13.793  -0.514  0.00  0.00    -0.348 OA
HETATM    2  C   UNK N   1      29.642 -14.127   0.117  0.00  0.00     0.303 C 
HETATM    3  C   UNK N   1      27.420 -14.476   0.181  0.00  0.00     0.180 C 
HETATM    4  C   UNK N   1      29.987 -15.592  -0.184  0.00  0.00     0.205 C 
HETATM    5  C   UNK N   1      27.489 -15.958  -0.189  0.00  0.00     0.180 C 
HETATM    6  C   UNK N   1      28.840 -16.479   0.311  0.00  0.00     0.183 C 
ENDROOT
BRANCH   3   7
HETATM    7  C   UNK N   1      26.072 -13.858  -0.140  0.00  0.00     0.215 C 
BRANCH   7   8
HETATM    8  O   UNK N   1      25.943 -12.654   0.560  0.00  0.00    -0.294 OA
BRANCH   8   9
HETATM    9  P   UNK N   1      25.047 -11.597  -0.490  0.00  0.00     0.390 P 
HETATM   10  O   UNK N   1      24.003 -11.941   0.609  0.00  0.00    -0.632 OA
BRANCH   9  11
HETATM   11  O   UNK N   1      26.389 -10.740   0.205  0.00  0.00    -0.307 OA
HETATM   12  H   UNK N   1      27.178 -11.149   0.593  0.00  0.00     0.222 HD
ENDBRANCH   9  11
BRANCH   9  13
HETATM   13  O   UNK N   1      24.544 -10.039   0.086  0.00  0.00    -0.307 OA
HETATM   14  H   UNK N   1      25.158  -9.360   0.408  0.00  0.00     0.222 HD
ENDBRANCH   9  13
ENDBRANCH   8   9
ENDBRANCH   7   8
ENDBRANCH   3   7
BRANCH   5  15
HETATM   15  O   UNK N   1      26.459 -16.665   0.434  0.00  0.00    -0.390 OA
HETATM   16  H   UNK N   1      25.676 -16.290   0.867  0.00  0.00     0.210 HD
ENDBRANCH   5  15
BRANCH   2  17
HETATM   17  O   UNK N   1      30.652 -13.280  -0.357  0.00  0.00    -0.263 OA
BRANCH  17  18
HETATM   18  P   UNK N   1      30.652 -11.914   0.725  0.00  0.00     0.393 P 
HETATM   19  O   UNK N   1      29.927 -11.331  -0.520  0.00  0.00    -0.631 OA
BRANCH  18  20
HETATM   20  O   UNK N   1      32.283 -12.334   0.302  0.00  0.00    -0.307 OA
HETATM   21  H   UNK N   1      32.535 -13.241   0.066  0.00  0.00     0.222 HD
ENDBRANCH  18  20
BRANCH  18  22
HETATM   22  O   UNK N   1      31.577 -10.493   0.357  0.00  0.00    -0.307 OA
HETATM   23  H   UNK N   1      32.524 -10.544   0.151  0.00  0.00     0.222 HD
ENDBRANCH  18  22
ENDBRANCH  17  18
ENDBRANCH   2  17
BRANCH   6  24
HETATM   24  O   UNK N   1      29.034 -17.799  -0.098  0.00  0.00    -0.390 OA
HETATM   25  H   UNK N   1      28.306 -18.375  -0.382  0.00  0.00     0.210 HD
ENDBRANCH   6  24
BRANCH   4  26
HETATM   26  O   UNK N   1      31.169 -15.950   0.469  0.00  0.00    -0.388 OA
HETATM   27  H   UNK N   1      31.364 -16.786   0.922  0.00  0.00     0.210 HD
ENDBRANCH   4  26
TORSDOF 12
