REMARK  8 active torsions:
REMARK  status: ('A' for Active; 'I' for Inactive)
REMARK    1  A    between atoms: C_2  and  N_1 
REMARK    2  A    between atoms: C_2  and  C_3 
REMARK    3  A    between atoms: C_2  and  C_8 
REMARK    4  A    between atoms: C_3  and  S_4 
REMARK    5  A    between atoms: S_4  and  C_5 
REMARK    6  A    between atoms: C_5  and  C_6 
REMARK    7  A    between atoms: C_6  and  O_7 
REMARK    8  A    between atoms: C_8  and  O_9 
ROOT
HETATM    1  C   UNK N   1       5.341   1.979  -0.001  0.00  0.00     0.182 C 
ENDROOT
BRANCH   1   2
HETATM    2  N   UNK N   1       5.594   3.412   0.000  0.00  0.00    -0.417 N 
HETATM    3  H   UNK N   1       6.553   3.761   0.001  0.00  0.00     0.150 HD
HETATM    4  H   UNK N   1       4.813   4.068   0.000  0.00  0.00     0.150 HD
ENDBRANCH   1   2
BRANCH   1   5
HETATM    5  C   UNK N   1       3.916   1.444   0.000  0.00  0.00     0.109 C 
BRANCH   5   6
HETATM    6  S   UNK N   1       2.624   2.720  -0.000  0.00  0.00    -0.164 SA
BRANCH   6   7
HETATM    7  C   UNK N   1       1.389   1.394  -0.000  0.00  0.00     0.100 C 
BRANCH   7   8
HETATM    8  C   UNK N   1      -0.011   1.958   0.000  0.00  0.00     0.174 C 
BRANCH   8   9
HETATM    9  O   UNK N   1      -0.921   0.902   0.000  0.00  0.00    -0.400 OA
HETATM   10  H   UNK N   1      -1.874   1.082  -0.000  0.00  0.00     0.209 HD
ENDBRANCH   8   9
ENDBRANCH   7   8
ENDBRANCH   6   7
ENDBRANCH   5   6
ENDBRANCH   1   5
BRANCH   1  11
HETATM   11  C   UNK N   1       6.509   1.043  -0.000  0.00  0.00     0.163 C 
HETATM   12  O   UNK N   1       6.324  -0.163   0.000  0.00  0.00    -0.648 OA
BRANCH  11  13
HETATM   13  O   UNK N   1       7.766   1.525   0.000  0.00  0.00    -0.775 OA
HETATM   14  H   UNK N   1       8.494   0.935   0.000  0.00  0.00     0.167 HD
ENDBRANCH  11  13
ENDBRANCH   1  11
TORSDOF 8
