REMARK  3 active torsions:
REMARK  status: ('A' for Active; 'I' for Inactive)
REMARK    1  A    between atoms: O_2  and  C_3 
REMARK    2  A    between atoms: C_6  and  C_9 
REMARK    3  A    between atoms: C_9  and  O_10 
ROOT
HETATM    1  C   UNK N   1       0.561  -1.048  -0.000  0.00  0.00     0.068 A 
HETATM    2  C   UNK N   1      -0.647  -0.339  -0.000  0.00  0.00     0.038 A 
HETATM    3  C   UNK N   1      -0.642   1.060   0.000  0.00  0.00     0.021 A 
HETATM    4  C   UNK N   1       0.573   1.760   0.000  0.00  0.00     0.037 A 
HETATM    5  C   UNK N   1       1.779   1.051   0.000  0.00  0.00     0.021 A 
HETATM    6  C   UNK N   1       1.775  -0.342   0.000  0.00  0.00     0.038 A 
ENDROOT
BRANCH   4   7
HETATM    7  C   UNK N   1       0.593   3.233   0.000  0.00  0.00     0.176 C 
HETATM    8  O   UNK N   1       1.654   3.833  -0.000  0.00  0.00    -0.646 OA
BRANCH   7   9
HETATM    9  O   UNK N   1      -0.563   3.927  -0.000  0.00  0.00    -0.773 OA
HETATM   10  H   UNK N   1      -0.547   4.864  -0.000  0.00  0.00     0.167 HD
ENDBRANCH   7   9
ENDBRANCH   4   7
BRANCH   1  11
HETATM   11  O   UNK N   1       0.538  -2.400  -0.000  0.00  0.00    -0.356 OA
HETATM   12  C   UNK N   1       1.684  -3.165   0.000  0.00  0.00     0.210 C 
ENDBRANCH   1  11
TORSDOF 3
