REMARK  7 active torsions:
REMARK  status: ('A' for Active; 'I' for Inactive)
REMARK    1  A    between atoms: C_2  and  C_1 
REMARK    2  A    between atoms: C_4  and  C_1 
REMARK    3  A    between atoms: C_6  and  C_2 
REMARK    4  A    between atoms: N_13  and  C_4 
REMARK    5  A    between atoms: C_8  and  C_6 
REMARK    6  A    between atoms: C_6  and  N_14 
REMARK    7  A    between atoms: O_17  and  C_8 
REMARK       I    between atoms: N_12  and  C_9 
REMARK       I    between atoms: N_13  and  C_9 
ROOT
HETATM    1  C   UNK N   1       3.845   1.204  -0.464  0.00  0.00     0.023 C 
ENDROOT
BRANCH   1   2
HETATM    2  C   UNK N   1       2.387   1.078  -0.936  0.00  0.00     0.038 C 
BRANCH   2   3
HETATM    3  C   UNK N   1       1.308   1.317   0.135  0.00  0.00     0.185 C 
BRANCH   3   4
HETATM    4  C   UNK N   1       0.805   2.746  -0.023  0.00  0.00     0.163 C 
HETATM    5  O   UNK N   1      -0.355   2.993  -0.296  0.00  0.00    -0.648 OA
BRANCH   4   6
HETATM    6  O   UNK N   1       1.666   3.771   0.110  0.00  0.00    -0.775 OA
HETATM    7  H   UNK N   1       2.584   3.609   0.203  0.00  0.00     0.167 HD
ENDBRANCH   4   6
ENDBRANCH   3   4
BRANCH   3   8
HETATM    8  N   UNK N   1       0.305   0.254   0.040  0.00  0.00    -0.337 N 
HETATM    9  C   UNK N   1       0.510  -1.160   0.114  0.00  0.00     0.136 A 
HETATM   10  C   UNK N   1      -1.091  -1.327  -0.036  0.00  0.00     0.123 A 
HETATM   11  C   UNK N   1      -0.991   0.149  -0.078  0.00  0.00     0.222 A 
HETATM   12  O   UNK N   1      -1.840   1.020  -0.140  0.00  0.00    -0.273 OA
ENDBRANCH   3   8
ENDBRANCH   2   3
ENDBRANCH   1   2
BRANCH   1  13
HETATM   13  C   UNK N   1       4.102   2.395   0.453  0.00  0.00     0.138 C 
BRANCH  13  14
HETATM   14  N   UNK N   1       5.220   3.193   0.009  0.00  0.00    -0.227 N 
HETATM   15  C   UNK N   1       6.551   2.704  -0.018  0.00  0.00     0.665 C 
HETATM   16  N   UNK N   1       7.515   3.507  -0.276  0.00  0.00    -0.235 N 
HETATM   17  N   UNK N   1       6.828   1.346   0.259  0.00  0.00    -0.235 N 
HETATM   18  H   UNK N   1       8.420   3.174  -0.473  0.00  0.00     0.174 HD
ATOM     19  HN  UNK N   1       7.342   4.512  -0.276  1.00  0.00     0.174 HD
HETATM   20  H   UNK N   1       6.105   0.706   0.453  0.00  0.00     0.174 HD
HETATM   21  H   UNK N   1       7.761   1.033   0.259  0.00  0.00     0.174 HD
HETATM   22  H   UNK N   1       5.051   4.117  -0.288  0.00  0.00     0.177 HD
ENDBRANCH  13  14
ENDBRANCH   1  13
TORSDOF 7
