REMARK WARNING: 32 MAX_TORS EXCEEDED!!!
REMARK  44 active torsions:
REMARK  status: ('A' for Active; 'I' for Inactive)
REMARK    1  A    between atoms: C_5  and  C_4 
REMARK    2  A    between atoms: C_6  and  C_5 
REMARK    3  A    between atoms: C_7  and  C_6 
REMARK    4  A    between atoms: C_8  and  C_7 
REMARK    5  A    between atoms: C_9  and  C_8 
REMARK    6  A    between atoms: C_10  and  C_9 
REMARK    7  A    between atoms: C_11  and  C_10 
REMARK    8  A    between atoms: C_12  and  C_11 
REMARK    9  A    between atoms: C_13  and  C_12 
REMARK   10  A    between atoms: C_14  and  C_13 
REMARK   11  A    between atoms: C_15  and  C_14 
REMARK   12  A    between atoms: C_25  and  C_15 
REMARK   13  A    between atoms: C_17  and  C_16 
REMARK   14  A    between atoms: C_27  and  C_16 
REMARK   15  A    between atoms: N_40  and  C_17 
REMARK   16  A    between atoms: C_19  and  C_18 
REMARK   17  A    between atoms: N_38  and  C_18 
REMARK   18  A    between atoms: S_69  and  C_19 
REMARK   19  A    between atoms: C_26  and  C_20 
REMARK   20  A    between atoms: O_61  and  C_20 
REMARK   21  A    between atoms: C_25  and  C_21 
REMARK   22  A    between atoms: S_69  and  C_21 
REMARK   23  A    between atoms: C_36  and  C_22 
REMARK   24  A    between atoms: O_62  and  C_22 
REMARK   25  A    between atoms: N_38  and  C_27 
REMARK   26  A    between atoms: O_50  and  C_27 
REMARK   27  A    between atoms: C_29  and  O_51 
REMARK   28  A    between atoms: C_30  and  O_64 
REMARK   29  A    between atoms: C_34  and  C_31 
REMARK   30  A    between atoms: C_36  and  C_31 
REMARK   31  A    between atoms: C_31  and  O_52 
REMARK   32  A    between atoms: N_37  and  C_32 
REMARK   33  A    between atoms: N_40  and  C_34 
REMARK   34  A    between atoms: O_53  and  C_34 
REMARK   35  A    between atoms: C_35  and  N_48 
REMARK   36  A    between atoms: P_66  and  O_54 
REMARK   37  A    between atoms: P_66  and  O_55 
REMARK   38  A    between atoms: P_67  and  O_57 
REMARK   39  A    between atoms: P_68  and  O_59 
REMARK   40  A    between atoms: P_67  and  O_61 
REMARK   41  A    between atoms: P_68  and  O_62 
REMARK   42  A    between atoms: P_66  and  O_64 
REMARK   43  A    between atoms: P_67  and  O_65 
REMARK   44  A    between atoms: P_68  and  O_65 
ROOT
HETATM    1  O   UNK N   1      16.800  27.235  -1.380  0.00  0.00    -0.631 OA
HETATM    2  P   UNK N   1      18.332  27.246  -1.131  0.00  0.00     0.401 P 
ENDROOT
BRANCH   2   3
HETATM    3  O   UNK N   1      19.022  26.314  -2.426  0.00  0.00    -0.307 OA
HETATM    4  H   UNK N   1      18.764  25.721  -3.149  0.00  0.00     0.222 HD
ENDBRANCH   2   3
BRANCH   2   5
HETATM    5  O   UNK N   1      18.645  26.470   0.408  0.00  0.00    -0.296 OA
BRANCH   5   6
HETATM    6  C   UNK N   1      18.808  25.124   0.055  0.00  0.00     0.192 C 
BRANCH   6   7
HETATM    7  C   UNK N   1      18.717  24.113   1.206  0.00  0.00     0.008 C 
HETATM    8  C   UNK N   1      19.924  24.288   2.114  0.00  0.00     0.020 C 
HETATM    9  C   UNK N   1      17.461  24.351   2.035  0.00  0.00     0.020 C 
BRANCH   7  10
HETATM   10  C   UNK N   1      18.703  22.671   0.616  0.00  0.00     0.202 C 
BRANCH  10  11
HETATM   11  C   UNK N   1      17.478  22.421  -0.237  0.00  0.00     0.141 C 
BRANCH  11  12
HETATM   12  N   UNK N   1      17.264  23.155  -1.273  0.00  0.00    -0.372 N 
ATOM     13  HN  UNK N   1      17.968  23.847  -1.532  1.00  0.00     0.161 HD
BRANCH  12  14
HETATM   14  C   UNK N   1      16.080  23.046  -2.082  0.00  0.00     0.129 C 
BRANCH  14  15
HETATM   15  C   UNK N   1      15.392  24.403  -2.079  0.00  0.00     0.103 C 
BRANCH  15  16
HETATM   16  C   UNK N   1      14.267  24.489  -1.093  0.00  0.00     0.112 C 
BRANCH  16  17
HETATM   17  N   UNK N   1      13.751  25.643  -0.838  0.00  0.00    -0.374 N 
ATOM     18  HN  UNK N   1      14.169  26.462  -1.279  1.00  0.00     0.161 HD
BRANCH  17  19
HETATM   19  C   UNK N   1      12.616  25.847   0.036  0.00  0.00     0.131 C 
BRANCH  19  20
HETATM   20  C   UNK N   1      12.926  25.616   1.513  0.00  0.00     0.094 C 
BRANCH  20  21
HETATM   21  S   UNK N   1      12.426  23.950   2.086  0.00  0.00    -0.160 SA
BRANCH  21  22
HETATM   22  C   UNK N   1      10.709  24.062   1.480  0.00  0.00     0.152 C 
BRANCH  22  23
HETATM   23  C   UNK N   1      10.583  23.327   0.179  0.00  0.00     0.136 C 
HETATM   24  O   UNK N   1      10.723  22.115   0.152  0.00  0.00    -0.297 OA
BRANCH  23  25
HETATM   25  C   UNK N   1      10.383  24.074  -1.106  0.00  0.00     0.079 C 
BRANCH  25  26
HETATM   26  C   UNK N   1       9.001  24.696  -1.252  0.00  0.00     0.007 C 
BRANCH  26  27
HETATM   27  C   UNK N   1       8.722  25.797  -0.238  0.00  0.00     0.000 C 
BRANCH  27  28
HETATM   28  C   UNK N   1       7.757  25.302   0.834  0.00  0.00     0.000 C 
BRANCH  28  29
HETATM   29  C   UNK N   1       6.312  25.266   0.347  0.00  0.00     0.000 C 
BRANCH  29  30
HETATM   30  C   UNK N   1       6.119  24.182  -0.703  0.00  0.00     0.000 C 
BRANCH  30  31
HETATM   31  C   UNK N   1       4.652  23.887  -0.933  0.00  0.00     0.000 C 
BRANCH  31  32
HETATM   32  C   UNK N   1       4.152  22.921   0.127  0.00  0.00     0.000 C 
BRANCH  32  33
HETATM   33  C   UNK N   1       3.414  23.677   1.220  0.00  0.00     0.000 C 
BRANCH  33  34
HETATM   34  C   UNK N   1       1.911  23.607   0.999  0.00  0.00     0.000 C 
BRANCH  34  35
HETATM   35  C   UNK N   1       1.508  24.396  -0.236  0.00  0.00    -0.000 C 
BRANCH  35  36
HETATM   36  C   UNK N   1       0.049  24.150  -0.565  0.00  0.00    -0.005 C 
HETATM   37  C   UNK N   1      -0.832  25.098   0.223  0.00  0.00     0.005 C 
ENDBRANCH  35  36
ENDBRANCH  34  35
ENDBRANCH  33  34
ENDBRANCH  32  33
ENDBRANCH  31  32
ENDBRANCH  30  31
ENDBRANCH  29  30
ENDBRANCH  28  29
ENDBRANCH  27  28
ENDBRANCH  26  27
ENDBRANCH  25  26
ENDBRANCH  23  25
ENDBRANCH  22  23
ENDBRANCH  21  22
ENDBRANCH  20  21
ENDBRANCH  19  20
ENDBRANCH  17  19
ENDBRANCH  16  17
BRANCH  16  38
HETATM   38  O   UNK N   1      13.782  23.368  -0.518  0.00  0.00    -0.350 OA
HETATM   39  H   UNK N   1      12.940  23.271  -0.119  0.00  0.00     0.219 HD
ENDBRANCH  16  38
ENDBRANCH  15  16
ENDBRANCH  14  15
ENDBRANCH  12  14
ENDBRANCH  11  12
BRANCH  11  40
HETATM   40  O   UNK N   1      16.603  21.454   0.113  0.00  0.00    -0.348 OA
HETATM   41  H   UNK N   1      15.718  21.644   0.355  0.00  0.00     0.219 HD
ENDBRANCH  11  40
ENDBRANCH  10  11
BRANCH  10  42
HETATM   42  O   UNK N   1      19.850  22.452  -0.155  0.00  0.00    -0.387 OA
HETATM   43  H   UNK N   1      20.116  21.688  -0.690  0.00  0.00     0.210 HD
ENDBRANCH  10  42
ENDBRANCH   7  10
ENDBRANCH   6   7
ENDBRANCH   5   6
ENDBRANCH   2   5
BRANCH   2  44
HETATM   44  O   UNK N   1      18.953  28.895  -1.314  0.00  0.00    -0.195 OA
BRANCH  44  45
HETATM   45  P   UNK N   1      17.767  30.074  -0.779  0.00  0.00     0.401 P 
HETATM   46  O   UNK N   1      18.561  31.334  -1.232  0.00  0.00    -0.631 OA
BRANCH  45  47
HETATM   47  O   UNK N   1      17.562  29.668  -2.458  0.00  0.00    -0.307 OA
HETATM   48  H   UNK N   1      17.308  29.653  -3.394  0.00  0.00     0.222 HD
ENDBRANCH  45  47
BRANCH  45  49
HETATM   49  O   UNK N   1      18.970  29.608   0.406  0.00  0.00    -0.294 OA
BRANCH  49  50
HETATM   50  C   UNK N   1      19.330  30.716   1.175  0.00  0.00     0.215 C 
BRANCH  50  51
HETATM   51  C   UNK N   1      20.826  31.044   1.061  0.00  0.00     0.180 C 
HETATM   52  C   UNK N   1      21.885  29.959   0.681  0.00  0.00     0.197 C 
HETATM   53  C   UNK N   1      22.871  30.778  -0.157  0.00  0.00     0.199 C 
HETATM   54  C   UNK N   1      22.561  32.165   0.360  0.00  0.00     0.262 C 
HETATM   55  O   UNK N   1      21.145  32.217   0.336  0.00  0.00    -0.353 OA
BRANCH  52  56
HETATM   56  O   UNK N   1      21.398  28.874  -0.109  0.00  0.00    -0.286 OA
BRANCH  56  57
HETATM   57  P   UNK N   1      21.762  27.223   0.477  0.00  0.00     0.391 P 
HETATM   58  O   UNK N   1      20.983  27.716   1.729  0.00  0.00    -0.632 OA
BRANCH  57  59
HETATM   59  O   UNK N   1      22.847  27.134   1.830  0.00  0.00    -0.307 OA
HETATM   60  H   UNK N   1      23.107  26.584   2.585  0.00  0.00     0.222 HD
ENDBRANCH  57  59
BRANCH  57  61
HETATM   61  O   UNK N   1      23.361  27.822   0.156  0.00  0.00    -0.307 OA
HETATM   62  H   UNK N   1      24.097  27.216  -0.024  0.00  0.00     0.222 HD
ENDBRANCH  57  61
ENDBRANCH  56  57
ENDBRANCH  52  56
BRANCH  53  63
HETATM   63  O   UNK N   1      24.189  30.375   0.063  0.00  0.00    -0.388 OA
HETATM   64  H   UNK N   1      24.404  29.442   0.216  0.00  0.00     0.210 HD
ENDBRANCH  53  63
BRANCH  54  65
HETATM   65  N   UNK N   1      23.198  33.317  -0.283  0.00  0.00    -0.297 N 
HETATM   66  C   UNK N   1      22.626  34.534  -0.485  0.00  0.00     0.188 A 
HETATM   67  N   UNK N   1      23.563  35.483  -0.770  0.00  0.00    -0.346 N 
HETATM   68  C   UNK N   1      24.735  34.820  -0.722  0.00  0.00     0.122 A 
ATOM     69  HN  UNK N   1      23.412  36.471  -0.973  1.00  0.00     0.167 HD
HETATM   70  C   UNK N   1      26.034  35.296  -0.821  0.00  0.00     0.131 A 
HETATM   71  C   UNK N   1      24.512  33.520  -0.455  0.00  0.00     0.142 A 
HETATM   72  N   UNK N   1      27.058  34.400  -0.688  0.00  0.00    -0.337 N 
HETATM   73  C   UNK N   1      26.806  33.072  -0.449  0.00  0.00     0.183 A 
ATOM     74  HN  UNK N   1      28.022  34.722  -0.768  1.00  0.00     0.168 HD
HETATM   75  N   UNK N   1      25.521  32.629  -0.301  0.00  0.00    -0.336 N 
ATOM     76  HN  UNK N   1      25.328  31.652  -0.080  1.00  0.00     0.168 HD
BRANCH  70  77
HETATM   77  N   UNK N   1      26.302  36.669  -0.987  0.00  0.00    -0.383 N 
HETATM   78  H   UNK N   1      27.226  36.986  -1.103  0.00  0.00     0.157 HD
HETATM   79  H   UNK N   1      25.559  37.315  -0.987  0.00  0.00     0.157 HD
ENDBRANCH  70  77
ENDBRANCH  54  65
ENDBRANCH  50  51
ENDBRANCH  49  50
ENDBRANCH  45  49
ENDBRANCH  44  45
ENDBRANCH   2  44
TORSDOF 44
