REMARK WARNING: 32 MAX_TORS EXCEEDED!!!
REMARK  38 active torsions:
REMARK  status: ('A' for Active; 'I' for Inactive)
REMARK    1  A    between atoms: C_1  and  N_38 
REMARK    2  A    between atoms: C_3  and  O_6 
REMARK    3  A    between atoms: C_4  and  C_32 
REMARK    4  A    between atoms: C_5  and  O_33 
REMARK    5  A    between atoms: N_9  and  C_7 
REMARK    6  A    between atoms: C_7  and  C_8 
REMARK    7  A    between atoms: C_8  and  S_51 
REMARK       I    between atoms: C_10  and  N_9 
REMARK    8  A    between atoms: C_13  and  C_10 
REMARK    9  A    between atoms: C_12  and  N_14 
REMARK   10  A    between atoms: C_13  and  C_12 
REMARK       I    between atoms: C_16  and  N_14 
REMARK   11  A    between atoms: C_16  and  C_21 
REMARK   12  A    between atoms: C_19  and  C_17 
REMARK   13  A    between atoms: C_17  and  O_23 
REMARK   14  A    between atoms: C_21  and  C_19 
REMARK   15  A    between atoms: C_21  and  O_22 
REMARK   16  A    between atoms: O_23  and  P_30 
REMARK   17  A    between atoms: P_30  and  O_24 
REMARK   18  A    between atoms: O_24  and  P_31 
REMARK   19  A    between atoms: P_31  and  O_25 
REMARK   20  A    between atoms: C_32  and  O_25 
REMARK   21  A    between atoms: P_30  and  O_27 
REMARK   22  A    between atoms: O_33  and  P_36 
REMARK   23  A    between atoms: P_36  and  O_34 
REMARK   24  A    between atoms: P_36  and  O_35 
REMARK   25  A    between atoms: N_50  and  C_46 
REMARK   26  A    between atoms: S_51  and  C_53 
REMARK   27  A    between atoms: C_53  and  C_54 
REMARK   28  A    between atoms: C_54  and  C_55 
REMARK   29  A    between atoms: C_55  and  C_56 
REMARK   30  A    between atoms: C_56  and  C_57 
REMARK   31  A    between atoms: C_57  and  C_58 
REMARK   32  A    between atoms: C_58  and  C_59 
REMARK   33  A    between atoms: C_59  and  C_60 
REMARK   34  A    between atoms: C_60  and  C_61 
REMARK   35  A    between atoms: C_61  and  C_62 
REMARK   36  A    between atoms: C_62  and  C_63 
REMARK   37  A    between atoms: C_63  and  C_64 
REMARK   38  A    between atoms: C_64  and  C_65 
ROOT
HETATM    1  O   UNK N   1      30.199   1.655   0.522  0.00  0.00    -0.631 OA
HETATM    2  O   UNK N   1      31.620   0.564   2.434  0.00  0.00    -0.307 OA
HETATM    3  P   UNK N   1      31.359   0.639   0.722  0.00  0.00     0.401 P 
HETATM    4  H   UNK N   1      31.657   0.416   3.392  0.00  0.00     0.222 HD
ENDROOT
BRANCH   3   5
HETATM    5  O   UNK N   1      30.895  -0.954   0.111  0.00  0.00    -0.195 OA
BRANCH   5   6
HETATM    6  P   UNK N   1      29.284  -0.811  -0.548  0.00  0.00     0.401 P 
HETATM    7  O   UNK N   1      28.990  -1.028   0.962  0.00  0.00    -0.631 OA
BRANCH   6   8
HETATM    8  O   UNK N   1      27.870  -1.824  -0.570  0.00  0.00    -0.296 OA
BRANCH   8   9
HETATM    9  C   UNK N   1      26.901  -1.010  -1.183  0.00  0.00     0.192 C 
BRANCH   9  10
HETATM   10  C   UNK N   1      25.785  -0.529  -0.232  0.00  0.00     0.009 C 
HETATM   11  C   UNK N   1      26.261  -0.376   1.206  0.00  0.00     0.020 C 
HETATM   12  C   UNK N   1      25.391   0.852  -0.723  0.00  0.00     0.020 C 
BRANCH  10  13
HETATM   13  C   UNK N   1      24.521  -1.413  -0.311  0.00  0.00     0.219 C 
BRANCH  13  14
HETATM   14  C   UNK N   1      24.662  -2.906  -0.174  0.00  0.00     0.247 C 
HETATM   15  N   UNK N   1      25.828  -3.464   0.234  0.00  0.00    -0.358 N 
HETATM   16  H   UNK N   1      26.532  -2.875   0.591  0.00  0.00     0.162 HD
HETATM   17  O   UNK N   1      23.718  -3.613  -0.492  0.00  0.00    -0.271 OA
BRANCH  15  18
HETATM   18  C   UNK N   1      26.085  -4.884   0.170  0.00  0.00     0.132 C 
BRANCH  18  19
HETATM   19  C   UNK N   1      25.085  -5.719   0.955  0.00  0.00     0.122 C 
BRANCH  19  20
HETATM   20  C   UNK N   1      24.718  -6.944   0.157  0.00  0.00     0.219 C 
HETATM   21  N   UNK N   1      25.606  -7.945  -0.081  0.00  0.00    -0.360 N 
HETATM   22  H   UNK N   1      25.318  -8.706  -0.635  0.00  0.00     0.162 HD
HETATM   23  O   UNK N   1      23.585  -7.037  -0.284  0.00  0.00    -0.274 OA
BRANCH  21  24
HETATM   24  C   UNK N   1      26.950  -7.943   0.441  0.00  0.00     0.133 C 
BRANCH  24  25
HETATM   25  C   UNK N   1      27.877  -7.175  -0.480  0.00  0.00     0.102 C 
BRANCH  25  26
HETATM   26  S   UNK N   1      29.165  -6.392   0.529  0.00  0.00    -0.091 SA
BRANCH  26  27
HETATM   27  C   UNK N   1      30.318  -7.701   0.160  0.00  0.00     0.186 C 
HETATM   28  O   UNK N   1      30.220  -8.780   0.724  0.00  0.00    -0.286 OA
BRANCH  27  29
HETATM   29  C   UNK N   1      31.389  -7.469  -0.847  0.00  0.00     0.091 C 
BRANCH  29  30
HETATM   30  C   UNK N   1      32.742  -7.648  -0.196  0.00  0.00     0.008 C 
BRANCH  30  31
HETATM   31  C   UNK N   1      33.348  -8.963  -0.648  0.00  0.00     0.000 C 
BRANCH  31  32
HETATM   32  C   UNK N   1      34.041  -9.674   0.507  0.00  0.00     0.000 C 
BRANCH  32  33
HETATM   33  C   UNK N   1      35.149  -8.842   1.145  0.00  0.00     0.000 C 
BRANCH  33  34
HETATM   34  C   UNK N   1      36.324  -8.628   0.207  0.00  0.00     0.000 C 
BRANCH  34  35
HETATM   35  C   UNK N   1      36.236  -7.247  -0.413  0.00  0.00     0.000 C 
BRANCH  35  36
HETATM   36  C   UNK N   1      37.611  -6.744  -0.808  0.00  0.00     0.000 C 
BRANCH  36  37
HETATM   37  C   UNK N   1      38.312  -6.177   0.412  0.00  0.00     0.000 C 
BRANCH  37  38
HETATM   38  C   UNK N   1      39.697  -6.780   0.557  0.00  0.00     0.000 C 
BRANCH  38  39
HETATM   39  C   UNK N   1      40.703  -6.001  -0.265  0.00  0.00    -0.000 C 
BRANCH  39  40
HETATM   40  C   UNK N   1      42.101  -6.359   0.194  0.00  0.00    -0.005 C 
HETATM   41  C   UNK N   1      43.075  -5.303  -0.283  0.00  0.00     0.005 C 
ENDBRANCH  39  40
ENDBRANCH  38  39
ENDBRANCH  37  38
ENDBRANCH  36  37
ENDBRANCH  35  36
ENDBRANCH  34  35
ENDBRANCH  33  34
ENDBRANCH  32  33
ENDBRANCH  31  32
ENDBRANCH  30  31
ENDBRANCH  29  30
ENDBRANCH  27  29
ENDBRANCH  26  27
ENDBRANCH  25  26
ENDBRANCH  24  25
ENDBRANCH  21  24
ENDBRANCH  19  20
ENDBRANCH  18  19
ENDBRANCH  15  18
ENDBRANCH  13  14
BRANCH  13  42
HETATM   42  O   UNK N   1      23.523  -0.947   0.552  0.00  0.00    -0.385 OA
HETATM   43  H   UNK N   1      23.457  -0.187   1.151  0.00  0.00     0.210 HD
ENDBRANCH  13  42
ENDBRANCH  10  13
ENDBRANCH   9  10
ENDBRANCH   8   9
ENDBRANCH   6   8
BRANCH   6  44
HETATM   44  O   UNK N   1      29.843  -2.377  -1.053  0.00  0.00    -0.307 OA
HETATM   45  H   UNK N   1      29.242  -3.084  -1.335  0.00  0.00     0.222 HD
ENDBRANCH   6  44
ENDBRANCH   5   6
ENDBRANCH   3   5
BRANCH   3  46
HETATM   46  O   UNK N   1      32.746   1.353  -0.043  0.00  0.00    -0.294 OA
BRANCH  46  47
HETATM   47  C   UNK N   1      33.139   0.477  -1.052  0.00  0.00     0.215 C 
BRANCH  47  48
HETATM   48  C   UNK N   1      34.419  -0.255  -0.674  0.00  0.00     0.180 C 
HETATM   49  O   UNK N   1      35.103   0.324   0.409  0.00  0.00    -0.353 OA
HETATM   50  C   UNK N   1      35.997  -0.688   0.833  0.00  0.00     0.262 C 
HETATM   51  C   UNK N   1      35.569  -1.991   0.167  0.00  0.00     0.199 C 
HETATM   52  C   UNK N   1      34.179  -1.679  -0.287  0.00  0.00     0.197 C 
BRANCH  50  53
HETATM   53  N   UNK N   1      37.366  -0.323   0.456  0.00  0.00    -0.297 N 
HETATM   54  C   UNK N   1      38.448  -1.107   0.354  0.00  0.00     0.142 A 
HETATM   55  C   UNK N   1      39.498  -0.365  -0.051  0.00  0.00     0.122 A 
HETATM   56  N   UNK N   1      38.539  -2.440   0.570  0.00  0.00    -0.336 N 
HETATM   57  C   UNK N   1      40.730  -0.959  -0.261  0.00  0.00     0.131 A 
HETATM   58  N   UNK N   1      39.122   0.916  -0.206  0.00  0.00    -0.346 N 
HETATM   59  N   UNK N   1      40.836  -2.304  -0.048  0.00  0.00    -0.337 N 
HETATM   60  C   UNK N   1      39.752  -3.041   0.365  0.00  0.00     0.183 A 
ATOM     61  HN  UNK N   1      41.732  -2.768  -0.199  1.00  0.00     0.168 HD
HETATM   62  C   UNK N   1      37.797   0.918   0.109  0.00  0.00     0.188 A 
ATOM     63  HN  UNK N   1      39.699   1.707  -0.493  1.00  0.00     0.167 HD
ATOM     64  HN  UNK N   1      37.729  -2.980   0.875  1.00  0.00     0.168 HD
BRANCH  57  65
HETATM   65  N   UNK N   1      41.842  -0.208  -0.693  0.00  0.00    -0.383 N 
HETATM   66  H   UNK N   1      42.684  -0.619  -0.995  0.00  0.00     0.157 HD
HETATM   67  H   UNK N   1      41.773   0.774  -0.693  0.00  0.00     0.157 HD
ENDBRANCH  57  65
ENDBRANCH  50  53
BRANCH  51  68
HETATM   68  O   UNK N   1      35.574  -3.037   1.090  0.00  0.00    -0.388 OA
HETATM   69  H   UNK N   1      34.947  -3.404   1.733  0.00  0.00     0.210 HD
ENDBRANCH  51  68
BRANCH  52  70
HETATM   70  O   UNK N   1      33.811  -2.425  -1.413  0.00  0.00    -0.286 OA
BRANCH  70  71
HETATM   71  P   UNK N   1      33.144  -3.938  -0.856  0.00  0.00     0.391 P 
HETATM   72  O   UNK N   1      32.505  -3.754   0.549  0.00  0.00    -0.632 OA
BRANCH  71  73
HETATM   73  O   UNK N   1      31.896  -4.504  -1.919  0.00  0.00    -0.307 OA
HETATM   74  H   UNK N   1      31.273  -4.057  -2.514  0.00  0.00     0.222 HD
ENDBRANCH  71  73
BRANCH  71  75
HETATM   75  O   UNK N   1      34.398  -5.119  -0.710  0.00  0.00    -0.307 OA
HETATM   76  H   UNK N   1      34.176  -6.060  -0.627  0.00  0.00     0.222 HD
ENDBRANCH  71  75
ENDBRANCH  70  71
ENDBRANCH  52  70
ENDBRANCH  47  48
ENDBRANCH  46  47
ENDBRANCH   3  46
TORSDOF 38
