REMARK  3 active torsions:
REMARK  status: ('A' for Active; 'I' for Inactive)
REMARK    1  A    between atoms: C_5  and  O_10 
REMARK    2  A    between atoms: C_6  and  O_11 
REMARK    3  A    between atoms: C_8  and  O_12 
ROOT
HETATM    1  C   UNK N   1       4.109   0.853   0.735  0.00  0.00     0.033 C 
HETATM    2  C   UNK N   1       3.768   2.286   1.108  0.00  0.00     0.036 C 
HETATM    3  C   UNK N   1       2.824   0.106   0.398  0.00  0.00     0.273 C 
HETATM    4  C   UNK N   1       0.748   0.101  -0.630  0.00  0.00     0.307 C 
HETATM    5  C   UNK N   1       3.091   2.944  -0.083  0.00  0.00     0.154 C 
HETATM    6  C   UNK N   1      -0.242   1.143  -0.104  0.00  0.00     0.177 C 
HETATM    7  C   UNK N   1       1.821   2.164  -0.489  0.00  0.00     0.282 C 
HETATM    8  C   UNK N   1       0.670   2.188   0.506  0.00  0.00     0.184 C 
HETATM    9  N   UNK N   1       2.079   0.726  -0.712  0.00  0.00     0.100 N 
ENDROOT
BRANCH   5  10
HETATM   10  O   UNK N   1       2.783   4.271   0.217  0.00  0.00    -0.393 OA
HETATM   11  H   UNK N   1       3.475   4.918   0.425  0.00  0.00     0.210 HD
ENDBRANCH   5  10
BRANCH   8  12
HETATM   12  O   UNK N   1       0.058   3.438   0.623  0.00  0.00    -0.391 OA
HETATM   13  H   UNK N   1       0.597   4.241   0.705  0.00  0.00     0.210 HD
ENDBRANCH   8  12
BRANCH   6  14
HETATM   14  O   UNK N   1      -0.945   1.673  -1.191  0.00  0.00    -0.391 OA
HETATM   15  H   UNK N   1      -0.870   2.279  -1.945  0.00  0.00     0.210 HD
ENDBRANCH   6  14
TORSDOF 3
