REMARK  12 active torsions:
REMARK  status: ('A' for Active; 'I' for Inactive)
REMARK    1  A    between atoms: C_2  and  N_1 
REMARK    2  A    between atoms: C_2  and  C_3 
REMARK    3  A    between atoms: C_2  and  C_13 
REMARK    4  A    between atoms: C_3  and  C_4 
REMARK    5  A    between atoms: C_4  and  S_5 
REMARK    6  A    between atoms: S_5  and  C_6 
REMARK    7  A    between atoms: C_6  and  C_7 
REMARK    8  A    between atoms: C_7  and  C_8 
REMARK    9  A    between atoms: C_8  and  C_9 
REMARK   10  A    between atoms: C_9  and  C_10 
REMARK   11  A    between atoms: C_10  and  O_11 
REMARK   12  A    between atoms: C_13  and  O_14 
ROOT
HETATM    1  C   UNK N   1       9.094   2.943  -0.415  0.00  0.00     0.076 C 
ENDROOT
BRANCH   1   2
HETATM    2  C   UNK N   1      10.388   2.814   0.368  0.00  0.00     0.045 C 
BRANCH   2   3
HETATM    3  C   UNK N   1      11.496   3.541  -0.376  0.00  0.00     0.174 C 
BRANCH   3   4
HETATM    4  N   UNK N   1      11.441   4.963  -0.081  0.00  0.00    -0.418 N 
HETATM    5  H   UNK N   1      12.285   5.496   0.126  0.00  0.00     0.150 HD
HETATM    6  H   UNK N   1      10.538   5.439  -0.081  0.00  0.00     0.150 HD
ENDBRANCH   3   4
BRANCH   3   7
HETATM    7  C   UNK N   1      12.842   2.964  -0.036  0.00  0.00     0.163 C 
HETATM    8  O   UNK N   1      13.060   1.784  -0.221  0.00  0.00    -0.648 OA
BRANCH   7   9
HETATM    9  O   UNK N   1      13.826   3.759   0.439  0.00  0.00    -0.775 OA
HETATM   10  H   UNK N   1      14.645   3.444   0.768  0.00  0.00     0.167 HD
ENDBRANCH   7   9
ENDBRANCH   3   7
ENDBRANCH   2   3
ENDBRANCH   1   2
BRANCH   1  11
HETATM   11  S   UNK N   1       7.996   1.563   0.012  0.00  0.00    -0.169 SA
BRANCH  11  12
HETATM   12  C   UNK N   1       6.619   2.674   0.397  0.00  0.00     0.074 C 
BRANCH  12  13
HETATM   13  C   UNK N   1       5.318   2.058  -0.077  0.00  0.00     0.010 C 
BRANCH  13  14
HETATM   14  C   UNK N   1       4.221   3.092   0.047  0.00  0.00     0.011 C 
BRANCH  14  15
HETATM   15  C   UNK N   1       2.854   2.435  -0.048  0.00  0.00     0.110 C 
BRANCH  15  16
HETATM   16  C   UNK N   1       1.740   3.442  -0.012  0.00  0.00     0.139 C 
HETATM   17  O   UNK N   1       1.976   4.641   0.029  0.00  0.00    -0.650 OA
BRANCH  16  18
HETATM   18  O   UNK N   1       0.463   3.018  -0.027  0.00  0.00    -0.776 OA
HETATM   19  H   UNK N   1      -0.237   3.640  -0.038  0.00  0.00     0.167 HD
ENDBRANCH  16  18
ENDBRANCH  15  16
ENDBRANCH  14  15
ENDBRANCH  13  14
ENDBRANCH  12  13
ENDBRANCH  11  12
ENDBRANCH   1  11
TORSDOF 12
