REMARK  5 active torsions:
REMARK  status: ('A' for Active; 'I' for Inactive)
REMARK    1  A    between atoms: C_15  and  C_13 
REMARK    2  A    between atoms: C_18  and  C_13 
REMARK    3  A    between atoms: N_23  and  C_14 
REMARK    4  A    between atoms: N_24  and  C_16 
REMARK    5  A    between atoms: O_26  and  C_20 
ROOT
HETATM    1  C   UNK N   1      -0.049  -1.490  -0.154  0.00  0.00     0.009 A 
HETATM    2  C   UNK N   1       1.595  -0.218  -1.390  0.00  0.00     0.009 A 
HETATM    3  C   UNK N   1       0.760  -2.629  -0.258  0.00  0.00     0.030 A 
HETATM    4  C   UNK N   1       2.409  -1.342  -1.477  0.00  0.00     0.030 A 
HETATM    5  C   UNK N   1       0.384  -0.276  -0.699  0.00  0.00    -0.057 A 
HETATM    6  C   UNK N   1       2.009  -2.556  -0.901  0.00  0.00     0.030 A 
ENDROOT
BRANCH   5   7
HETATM    7  C   UNK N   1      -0.430   0.966  -0.544  0.00  0.00     0.056 C 
BRANCH   7   8
HETATM    8  C   UNK N   1       0.055   1.904   0.580  0.00  0.00     0.100 A 
HETATM    9  C   UNK N   1       1.509   2.310   0.495  0.00  0.00    -0.019 A 
HETATM   10  C   UNK N   1       2.663   1.540   0.674  0.00  0.00     0.010 A 
HETATM   11  C   UNK N   1       1.598   3.645   0.233  0.00  0.00     0.041 A 
HETATM   12  C   UNK N   1       3.915   2.164   0.540  0.00  0.00     0.001 A 
HETATM   13  C   UNK N   1       3.993   3.540   0.246  0.00  0.00     0.002 A 
HETATM   14  C   UNK N   1       2.820   4.300   0.098  0.00  0.00     0.030 A 
HETATM   15  N   UNK N   1       0.332   4.212   0.147  0.00  0.00    -0.340 N 
HETATM   16  C   UNK N   1      -0.538   3.290   0.342  0.00  0.00     0.125 A 
ATOM     17  HN  UNK N   1       0.128   5.194  -0.039  1.00  0.00     0.167 HD
BRANCH  16  18
HETATM   18  O   UNK N   1      -1.861   3.542   0.330  0.00  0.00    -0.349 OA
HETATM   19  H   UNK N   1      -2.169   4.427   0.321  0.00  0.00     0.219 HD
ENDBRANCH  16  18
ENDBRANCH   7   8
ENDBRANCH   5   7
BRANCH   6  20
HETATM   20  N   UNK N   1       2.891  -3.677  -0.922  0.00  0.00    -0.378 N 
HETATM   21  C   UNK N   1       4.266  -3.515  -1.349  0.00  0.00     0.143 C 
HETATM   22  C   UNK N   1       5.170  -3.780  -0.149  0.00  0.00     0.145 C 
HETATM   23  N   UNK N   1       4.800  -5.051   0.439  0.00  0.00    -0.356 N 
HETATM   24  C   UNK N   1       3.424  -5.275   0.825  0.00  0.00     0.145 C 
HETATM   25  C   UNK N   1       2.502  -4.952  -0.352  0.00  0.00     0.143 C 
BRANCH  23  26
HETATM   26  C   UNK N   1       5.712  -6.038   0.604  0.00  0.00     0.350 C 
HETATM   27  O   UNK N   1       6.880  -5.873   0.286  0.00  0.00    -0.284 OA
ENDBRANCH  23  26
ENDBRANCH   6  20
TORSDOF 5
