REMARK  13 active torsions:
REMARK  status: ('A' for Active; 'I' for Inactive)
REMARK    1  A    between atoms: C_1  and  O_2 
REMARK    2  A    between atoms: C_1  and  C_5 
REMARK    3  A    between atoms: C_6  and  O_2 
REMARK    4  A    between atoms: C_4  and  O_9 
REMARK    5  A    between atoms: C_5  and  O_10 
REMARK    6  A    between atoms: C_7  and  C_13 
REMARK    7  A    between atoms: C_8  and  O_14 
REMARK    8  A    between atoms: C_12  and  O_17 
REMARK    9  A    between atoms: C_13  and  O_18 
REMARK   10  A    between atoms: C_15  and  C_20 
REMARK   11  A    between atoms: C_16  and  O_21 
REMARK   12  A    between atoms: C_19  and  O_22 
REMARK   13  A    between atoms: C_20  and  O_23 
ROOT
HETATM    1  O   UNK N   1      15.491  -8.951  -1.007  0.00  0.00    -0.318 OA
ENDROOT
BRANCH   1   2
HETATM    2  C   UNK N   1      16.509  -8.486  -0.133  0.00  0.00     0.217 C 
HETATM    3  O   UNK N   1      17.375  -7.652  -0.885  0.00  0.00    -0.341 OA
HETATM    4  C   UNK N   1      18.701  -8.063  -0.618  0.00  0.00     0.180 C 
HETATM    5  C   UNK N   1      18.677  -8.982   0.578  0.00  0.00     0.183 C 
HETATM    6  C   UNK N   1      17.376  -9.649   0.344  0.00  0.00     0.214 C 
BRANCH   4   7
HETATM    7  C   UNK N   1      19.580  -6.852  -0.346  0.00  0.00     0.198 C 
BRANCH   7   8
HETATM    8  O   UNK N   1      20.911  -7.241  -0.190  0.00  0.00    -0.398 OA
HETATM    9  H   UNK N   1      21.140  -8.177  -0.082  0.00  0.00     0.209 HD
ENDBRANCH   7   8
ENDBRANCH   4   7
BRANCH   5  10
HETATM   10  O   UNK N   1      19.723  -9.905   0.520  0.00  0.00    -0.390 OA
HETATM   11  H   UNK N   1      19.531 -10.855   0.479  0.00  0.00     0.210 HD
ENDBRANCH   5  10
BRANCH   6  12
HETATM   12  O   UNK N   1      16.891 -10.263   1.502  0.00  0.00    -0.387 OA
HETATM   13  H   UNK N   1      16.354 -10.185   2.306  0.00  0.00     0.210 HD
ENDBRANCH   6  12
BRANCH   2  14
HETATM   14  C   UNK N   1      15.972  -7.640   1.041  0.00  0.00     0.235 C 
BRANCH  14  15
HETATM   15  O   UNK N   1      15.280  -6.524   0.567  0.00  0.00    -0.395 OA
HETATM   16  H   UNK N   1      15.711  -5.720   0.238  0.00  0.00     0.209 HD
ENDBRANCH  14  15
ENDBRANCH   2  14
ENDBRANCH   1   2
BRANCH   1  17
HETATM   17  C   UNK N   1      14.423  -9.567  -0.319  0.00  0.00     0.295 C 
HETATM   18  O   UNK N   1      13.231  -8.907  -0.692  0.00  0.00    -0.348 OA
HETATM   19  C   UNK N   1      12.163  -9.393   0.093  0.00  0.00     0.179 C 
HETATM   20  C   UNK N   1      11.887 -10.865  -0.269  0.00  0.00     0.180 C 
HETATM   21  C   UNK N   1      13.150 -11.675  -0.005  0.00  0.00     0.183 C 
HETATM   22  C   UNK N   1      14.325 -11.042  -0.737  0.00  0.00     0.204 C 
BRANCH  19  23
HETATM   23  C   UNK N   1      10.944  -8.525  -0.207  0.00  0.00     0.198 C 
BRANCH  23  24
HETATM   24  O   UNK N   1       9.873  -8.851   0.627  0.00  0.00    -0.398 OA
HETATM   25  H   UNK N   1       9.304  -8.320   1.206  0.00  0.00     0.209 HD
ENDBRANCH  23  24
ENDBRANCH  19  23
BRANCH  20  26
HETATM   26  O   UNK N   1      10.843 -11.383   0.500  0.00  0.00    -0.390 OA
HETATM   27  H   UNK N   1      10.168 -10.935   1.034  0.00  0.00     0.210 HD
ENDBRANCH  20  26
BRANCH  21  28
HETATM   28  O   UNK N   1      12.973 -12.992  -0.430  0.00  0.00    -0.390 OA
HETATM   29  H   UNK N   1      12.119 -13.344  -0.726  0.00  0.00     0.210 HD
ENDBRANCH  21  28
BRANCH  22  30
HETATM   30  O   UNK N   1      15.494 -11.734  -0.425  0.00  0.00    -0.388 OA
HETATM   31  H   UNK N   1      15.484 -12.680  -0.208  0.00  0.00     0.210 HD
ENDBRANCH  22  30
ENDBRANCH   1  17
TORSDOF 13
