REMARK  11 active torsions:
REMARK  status: ('A' for Active; 'I' for Inactive)
REMARK    1  A    between atoms: C_4  and  C_2 
REMARK    2  A    between atoms: O_14  and  C_2 
REMARK    3  A    between atoms: C_5  and  C_3 
REMARK    4  A    between atoms: O_15  and  C_3 
REMARK    5  A    between atoms: C_6  and  O_16 
REMARK    6  A    between atoms: C_8  and  O_18 
REMARK    7  A    between atoms: C_9  and  O_19 
REMARK    8  A    between atoms: C_10  and  O_20 
REMARK    9  A    between atoms: C_11  and  O_24 
REMARK   10  A    between atoms: C_12  and  O_21 
REMARK   11  A    between atoms: C_13  and  O_24 
ROOT
HETATM    1  C   UNK N   1       1.890  -4.610   0.205  0.00  0.00     0.179 C 
HETATM    2  C   UNK N   1       3.137  -3.756   0.498  0.00  0.00     0.181 C 
HETATM    3  C   UNK N   1       1.589  -1.936  -0.408  0.00  0.00     0.205 C 
HETATM    4  C   UNK N   1       3.075  -2.361  -0.184  0.00  0.00     0.189 C 
HETATM    5  C   UNK N   1       0.666  -2.555   0.662  0.00  0.00     0.290 C 
HETATM    6  O   UNK N   1       3.192  -3.596   1.889  0.00  0.00    -0.390 OA
HETATM    7  O   UNK N   1       0.670  -3.987   0.622  0.00  0.00    -0.349 OA
HETATM    8  H   UNK N   1       3.308  -3.574   2.852  0.00  0.00     0.210 HD
ENDROOT
BRANCH   1   9
HETATM    9  C   UNK N   1       1.807  -5.041  -1.257  0.00  0.00     0.198 C 
BRANCH   9  10
HETATM   10  O   UNK N   1       0.701  -5.871  -1.450  0.00  0.00    -0.398 OA
HETATM   11  H   UNK N   1      -0.183  -5.493  -1.584  0.00  0.00     0.209 HD
ENDBRANCH   9  10
ENDBRANCH   1   9
BRANCH   4  12
HETATM   12  O   UNK N   1       3.824  -1.475   0.642  0.00  0.00    -0.348 OA
BRANCH  12  13
HETATM   13  C   UNK N   1       3.865  -0.138   0.172  0.00  0.00     0.292 C 
HETATM   14  C   UNK N   1       5.317   0.391   0.257  0.00  0.00     0.204 C 
HETATM   15  C   UNK N   1       5.346   1.944   0.228  0.00  0.00     0.183 C 
HETATM   16  C   UNK N   1       4.061   2.478  -0.405  0.00  0.00     0.180 C 
HETATM   17  C   UNK N   1       2.885   1.997   0.504  0.00  0.00     0.179 C 
HETATM   18  O   UNK N   1       2.998   0.646   0.965  0.00  0.00    -0.348 OA
BRANCH  14  19
HETATM   19  O   UNK N   1       6.038  -0.146  -0.814  0.00  0.00    -0.388 OA
HETATM   20  H   UNK N   1       5.965  -0.766  -1.557  0.00  0.00     0.210 HD
ENDBRANCH  14  19
BRANCH  15  21
HETATM   21  O   UNK N   1       6.486   2.417  -0.429  0.00  0.00    -0.390 OA
HETATM   22  H   UNK N   1       7.166   1.895  -0.885  0.00  0.00     0.210 HD
ENDBRANCH  15  21
BRANCH  16  23
HETATM   23  O   UNK N   1       4.083   3.876  -0.469  0.00  0.00    -0.390 OA
HETATM   24  H   UNK N   1       4.929   4.347  -0.513  0.00  0.00     0.210 HD
ENDBRANCH  16  23
BRANCH  17  25
HETATM   25  C   UNK N   1       1.524   2.193  -0.158  0.00  0.00     0.198 C 
BRANCH  25  26
HETATM   26  O   UNK N   1       1.272   3.546  -0.389  0.00  0.00    -0.398 OA
HETATM   27  H   UNK N   1       1.999   4.168  -0.551  0.00  0.00     0.209 HD
ENDBRANCH  25  26
ENDBRANCH  17  25
ENDBRANCH  12  13
ENDBRANCH   4  12
BRANCH   3  28
HETATM   28  O   UNK N   1       1.158  -2.372  -1.665  0.00  0.00    -0.388 OA
HETATM   29  H   UNK N   1       0.747  -2.264  -2.537  0.00  0.00     0.210 HD
ENDBRANCH   3  28
BRANCH   5  30
HETATM   30  O   UNK N   1      -0.664  -2.136   0.429  0.00  0.00    -0.363 OA
HETATM   31  C   UNK N   1      -0.838  -0.846   0.955  0.00  0.00     0.204 C 
ENDBRANCH   5  30
TORSDOF 11
