REMARK  20 active torsions:
REMARK  status: ('A' for Active; 'I' for Inactive)
REMARK    1  A    between atoms: C_11  and  C_6 
REMARK    2  A    between atoms: O_43  and  C_6 
REMARK    3  A    between atoms: C_13  and  C_7 
REMARK    4  A    between atoms: O_44  and  C_7 
REMARK    5  A    between atoms: C_20  and  C_10 
REMARK    6  A    between atoms: C_12  and  N_32 
REMARK    7  A    between atoms: C_15  and  O_34 
REMARK    8  A    between atoms: C_16  and  O_35 
REMARK    9  A    between atoms: C_17  and  O_36 
REMARK   10  A    between atoms: C_18  and  O_37 
REMARK   11  A    between atoms: N_23  and  C_19 
REMARK   12  A    between atoms: N_24  and  C_20 
REMARK   13  A    between atoms: O_38  and  C_20 
REMARK   14  A    between atoms: C_22  and  N_33 
REMARK   15  A    between atoms: P_47  and  O_40 
REMARK   16  A    between atoms: P_48  and  O_42 
REMARK   17  A    between atoms: P_47  and  O_43 
REMARK   18  A    between atoms: P_48  and  O_44 
REMARK   19  A    between atoms: P_47  and  O_46 
REMARK   20  A    between atoms: P_48  and  O_46 
ROOT
HETATM    1  O   UNK N   1      -2.190  -3.277  -2.432  0.00  0.00    -0.631 OA
HETATM    2  P   UNK N   1      -1.516  -3.684  -1.094  0.00  0.00     0.401 P 
ENDROOT
BRANCH   2   3
HETATM    3  O   UNK N   1      -0.094  -4.576  -1.533  0.00  0.00    -0.307 OA
HETATM    4  H   UNK N   1      -0.128  -5.514  -1.778  0.00  0.00     0.222 HD
ENDBRANCH   2   3
BRANCH   2   5
HETATM    5  O   UNK N   1      -1.117  -2.205  -0.278  0.00  0.00    -0.294 OA
BRANCH   5   6
HETATM    6  C   UNK N   1      -0.457  -2.559   0.903  0.00  0.00     0.215 C 
BRANCH   6   7
HETATM    7  C   UNK N   1       0.815  -1.737   1.019  0.00  0.00     0.180 C 
HETATM    8  C   UNK N   1       1.894  -2.245   0.069  0.00  0.00     0.182 C 
HETATM    9  C   UNK N   1       2.688  -0.989  -0.078  0.00  0.00     0.198 C 
HETATM   10  C   UNK N   1       1.523  -0.022  -0.281  0.00  0.00     0.262 C 
HETATM   11  O   UNK N   1       0.553  -0.385   0.682  0.00  0.00    -0.353 OA
BRANCH   8  12
HETATM   12  O   UNK N   1       2.630  -3.307   0.601  0.00  0.00    -0.390 OA
HETATM   13  H   UNK N   1       2.247  -4.118   0.970  0.00  0.00     0.210 HD
ENDBRANCH   8  12
BRANCH   9  14
HETATM   14  O   UNK N   1       3.563  -1.033  -1.166  0.00  0.00    -0.388 OA
HETATM   15  H   UNK N   1       3.841  -1.575  -1.921  0.00  0.00     0.210 HD
ENDBRANCH   9  14
BRANCH  10  16
HETATM   16  N   UNK N   1       1.859   1.398  -0.140  0.00  0.00    -0.297 N 
HETATM   17  C   UNK N   1       0.945   2.403  -0.199  0.00  0.00     0.188 A 
HETATM   18  N   UNK N   1       1.526   3.620  -0.017  0.00  0.00    -0.346 N 
HETATM   19  C   UNK N   1       2.830   3.344   0.150  0.00  0.00     0.122 A 
ATOM     20  HN  UNK N   1       1.074   4.535  -0.010  1.00  0.00     0.167 HD
HETATM   21  C   UNK N   1       3.895   4.200   0.376  0.00  0.00     0.131 A 
HETATM   22  C   UNK N   1       3.034   2.014   0.073  0.00  0.00     0.142 A 
HETATM   23  N   UNK N   1       5.139   3.653   0.507  0.00  0.00    -0.337 N 
HETATM   24  C   UNK N   1       5.327   2.295   0.416  0.00  0.00     0.183 A 
ATOM     25  HN  UNK N   1       5.941   4.262   0.674  1.00  0.00     0.168 HD
HETATM   26  N   UNK N   1       4.264   1.461   0.200  0.00  0.00    -0.336 N 
ATOM     27  HN  UNK N   1       4.394   0.452   0.136  1.00  0.00     0.168 HD
BRANCH  21  28
HETATM   28  N   UNK N   1       3.706   5.593   0.475  0.00  0.00    -0.383 N 
HETATM   29  H   UNK N   1       4.482   6.193   0.544  0.00  0.00     0.157 HD
HETATM   30  H   UNK N   1       2.795   5.966   0.475  0.00  0.00     0.157 HD
ENDBRANCH  21  28
ENDBRANCH  10  16
ENDBRANCH   6   7
ENDBRANCH   5   6
ENDBRANCH   2   5
BRANCH   2  31
HETATM   31  O   UNK N   1      -2.662  -4.683  -0.240  0.00  0.00    -0.195 OA
BRANCH  31  32
HETATM   32  P   UNK N   1      -3.692  -3.642   0.714  0.00  0.00     0.401 P 
HETATM   33  O   UNK N   1      -3.122  -3.662   2.156  0.00  0.00    -0.631 OA
BRANCH  32  34
HETATM   34  O   UNK N   1      -5.287  -4.316   0.844  0.00  0.00    -0.307 OA
HETATM   35  H   UNK N   1      -6.058  -3.733   0.917  0.00  0.00     0.222 HD
ENDBRANCH  32  34
BRANCH  32  36
HETATM   36  O   UNK N   1      -3.726  -1.963   0.230  0.00  0.00    -0.296 OA
BRANCH  36  37
HETATM   37  C   UNK N   1      -4.577  -1.907  -0.872  0.00  0.00     0.187 C 
BRANCH  37  38
HETATM   38  C   UNK N   1      -5.880  -1.189  -0.539  0.00  0.00     0.043 C 
HETATM   39  C   UNK N   1      -6.500  -1.644   0.765  0.00  0.00     0.037 C 
HETATM   40  C   UNK N   1      -7.631  -0.633   1.003  0.00  0.00     0.120 C 
HETATM   41  C   UNK N   1      -7.226   0.610   0.151  0.00  0.00     0.170 C 
HETATM   42  C   UNK N   1      -5.794   0.313  -0.305  0.00  0.00     0.155 C 
BRANCH  40  43
HETATM   43  N   UNK N   1      -8.938  -1.218   0.620  0.00  0.00    -0.358 N 
HETATM   44  C   UNK N   1     -10.073  -0.460   0.661  0.00  0.00     0.091 A 
HETATM   45  C   UNK N   1     -11.305  -1.008   0.283  0.00  0.00     0.018 A 
HETATM   46  C   UNK N   1     -11.374  -2.347  -0.109  0.00  0.00     0.018 A 
HETATM   47  C   UNK N   1     -10.213  -3.126  -0.122  0.00  0.00     0.030 A 
HETATM   48  C   UNK N   1      -9.009  -2.532   0.239  0.00  0.00     0.106 A 
BRANCH  47  49
HETATM   49  C   UNK N   1     -10.238  -4.559  -0.485  0.00  0.00     0.145 C 
BRANCH  49  50
HETATM   50  N   UNK N   1     -11.336  -5.127  -0.826  0.00  0.00    -0.379 N 
HETATM   51  H   UNK N   1     -12.135  -4.615  -1.088  0.00  0.00     0.158 HD
ATOM     52  HN  UNK N   1     -11.382  -6.146  -0.826  1.00  0.00     0.158 HD
ENDBRANCH  49  50
BRANCH  49  53
HETATM   53  O   UNK N   1      -9.102  -5.286  -0.439  0.00  0.00    -0.346 OA
HETATM   54  H   UNK N   1      -9.145  -6.221  -0.407  0.00  0.00     0.219 HD
ENDBRANCH  49  53
ENDBRANCH  47  49
ENDBRANCH  40  43
BRANCH  41  55
HETATM   55  O   UNK N   1      -8.030   0.705  -0.990  0.00  0.00    -0.391 OA
HETATM   56  H   UNK N   1      -8.252   1.220  -1.782  0.00  0.00     0.210 HD
ENDBRANCH  41  55
BRANCH  42  57
HETATM   57  O   UNK N   1      -4.892   0.595   0.730  0.00  0.00    -0.392 OA
HETATM   58  H   UNK N   1      -4.411   0.151   1.446  0.00  0.00     0.210 HD
ENDBRANCH  42  57
ENDBRANCH  37  38
ENDBRANCH  36  37
ENDBRANCH  32  36
ENDBRANCH  31  32
ENDBRANCH   2  31
TORSDOF 20
