REMARK  23 active torsions:
REMARK  status: ('A' for Active; 'I' for Inactive)
REMARK    1  A    between atoms: C_27  and  C_23 
REMARK    2  A    between atoms: O_61  and  C_23 
REMARK    3  A    between atoms: C_28  and  C_24 
REMARK    4  A    between atoms: O_62  and  C_24 
REMARK    5  A    between atoms: C_33  and  C_25 
REMARK    6  A    between atoms: C_34  and  C_26 
REMARK    7  A    between atoms: C_31  and  C_29 
REMARK    8  A    between atoms: C_32  and  C_30 
REMARK    9  A    between atoms: C_39  and  C_33 
REMARK   10  A    between atoms: C_33  and  N_51 
REMARK   11  A    between atoms: C_40  and  C_34 
REMARK   12  A    between atoms: C_34  and  N_53 
REMARK   13  A    between atoms: C_36  and  C_35 
REMARK   14  A    between atoms: C_37  and  C_35 
REMARK   15  A    between atoms: C_35  and  O_55 
REMARK   16  A    between atoms: C_38  and  C_36 
REMARK   17  A    between atoms: C_36  and  O_56 
REMARK   18  A    between atoms: C_41  and  C_37 
REMARK   19  A    between atoms: C_37  and  O_61 
REMARK   20  A    between atoms: C_42  and  C_38 
REMARK   21  A    between atoms: C_38  and  O_62 
REMARK   22  A    between atoms: C_41  and  O_59 
REMARK   23  A    between atoms: C_42  and  O_60 
ROOT
HETATM    1  C   UNK N   1      -0.613  11.948  -0.374  0.00  0.00     0.148 C 
HETATM    2  C   UNK N   1      -2.422  10.404  -0.155  0.00  0.00     0.134 C 
HETATM    3  N   UNK N   1      -1.608  11.243   0.389  0.00  0.00    -0.377 N 
ATOM      4  HN  UNK N   1      -1.672  11.412   1.393  1.00  0.00     0.160 HD
HETATM    5  O   UNK N   1      -2.365  10.152  -1.481  0.00  0.00    -0.348 OA
HETATM    6  H   UNK N   1      -2.497  10.031  -2.401  0.00  0.00     0.219 HD
ENDROOT
BRANCH   2   7
HETATM    7  C   UNK N   1      -3.445   9.708   0.708  0.00  0.00     0.161 C 
BRANCH   7   8
HETATM    8  C   UNK N   1      -4.890  10.052   0.286  0.00  0.00     0.008 C 
HETATM    9  C   UNK N   1      -5.209  11.530   0.401  0.00  0.00     0.012 C 
HETATM   10  C   UNK N   1      -5.245   9.555  -1.112  0.00  0.00     0.012 C 
ENDBRANCH   7   8
BRANCH   7  11
HETATM   11  N   UNK N   1      -3.328   8.268   0.649  0.00  0.00    -0.360 N 
HETATM   12  C   UNK N   1      -2.288   7.514   0.779  0.00  0.00     0.144 C 
ATOM     13  HN  UNK N   1      -4.202   7.772   0.477  1.00  0.00     0.162 HD
BRANCH  12  14
HETATM   14  C   UNK N   1      -2.500   6.000   0.748  0.00  0.00     0.227 C 
BRANCH  14  15
HETATM   15  C   UNK N   1      -1.836   5.202  -0.425  0.00  0.00     0.186 C 
BRANCH  15  16
HETATM   16  C   UNK N   1      -0.314   5.110  -0.435  0.00  0.00     0.186 C 
BRANCH  16  17
HETATM   17  C   UNK N   1       0.363   4.314   0.731  0.00  0.00     0.227 C 
BRANCH  17  18
HETATM   18  C   UNK N   1       0.153   2.800   0.769  0.00  0.00     0.144 C 
HETATM   19  N   UNK N   1       1.190   2.046   0.640  0.00  0.00    -0.360 N 
ATOM     20  HN  UNK N   1       2.064   2.541   0.462  1.00  0.00     0.162 HD
BRANCH  19  21
HETATM   21  C   UNK N   1       1.305   0.606   0.708  0.00  0.00     0.161 C 
BRANCH  21  22
HETATM   22  C   UNK N   1       2.751   0.257   0.293  0.00  0.00     0.008 C 
HETATM   23  C   UNK N   1       3.065  -1.223   0.413  0.00  0.00     0.012 C 
HETATM   24  C   UNK N   1       3.113   0.748  -1.105  0.00  0.00     0.012 C 
ENDBRANCH  21  22
BRANCH  21  25
HETATM   25  C   UNK N   1       0.283  -0.092  -0.155  0.00  0.00     0.134 C 
HETATM   26  N   UNK N   1      -0.534  -0.926   0.391  0.00  0.00    -0.377 N 
HETATM   27  C   UNK N   1      -1.529  -1.633  -0.373  0.00  0.00     0.148 C 
ATOM     28  HN  UNK N   1      -0.474  -1.091   1.395  1.00  0.00     0.160 HD
HETATM   29  O   UNK N   1       0.231   0.155  -1.482  0.00  0.00    -0.348 OA
HETATM   30  H   UNK N   1       0.361   0.272  -2.402  0.00  0.00     0.219 HD
ENDBRANCH  21  25
ENDBRANCH  19  21
BRANCH  18  31
HETATM   31  O   UNK N   1      -1.078   2.275   0.961  0.00  0.00    -0.348 OA
HETATM   32  H   UNK N   1      -1.820   2.831   1.094  0.00  0.00     0.219 HD
ENDBRANCH  18  31
ENDBRANCH  17  18
BRANCH  17  33
HETATM   33  O   UNK N   1       1.757   4.576   0.758  0.00  0.00    -0.370 OA
BRANCH  33  34
HETATM   34  C   UNK N   1       2.355   4.234  -0.475  0.00  0.00     0.207 C 
BRANCH  34  35
HETATM   35  C   UNK N   1       3.377   5.231  -0.760  0.00  0.00    -0.035 A 
HETATM   36  C   UNK N   1       4.702   4.826  -0.843  0.00  0.00     0.010 A 
HETATM   37  C   UNK N   1       5.705   5.781  -0.846  0.00  0.00     0.013 A 
HETATM   38  C   UNK N   1       5.381   7.143  -0.755  0.00  0.00    -0.025 A 
HETATM   39  C   UNK N   1       4.036   7.541  -0.754  0.00  0.00     0.013 A 
HETATM   40  C   UNK N   1       3.033   6.584  -0.759  0.00  0.00     0.010 A 
BRANCH  38  41
HETATM   41  C   UNK N   1       6.432   8.115  -0.434  0.00  0.00    -0.011 A 
HETATM   42  C   UNK N   1       6.103   9.439  -0.125  0.00  0.00     0.015 A 
HETATM   43  C   UNK N   1       7.083  10.304   0.353  0.00  0.00     0.018 A 
HETATM   44  C   UNK N   1       8.384   9.831   0.529  0.00  0.00     0.087 A 
HETATM   45  N   UNK N   1       8.693   8.544   0.219  0.00  0.00    -0.374 N 
HETATM   46  C   UNK N   1       7.752   7.684  -0.248  0.00  0.00     0.099 A 
ATOM     47  HN  UNK N   1       9.652   8.217   0.338  1.00  0.00     0.164 HD
ENDBRANCH  38  41
ENDBRANCH  34  35
ENDBRANCH  33  34
ENDBRANCH  17  33
ENDBRANCH  16  17
BRANCH  16  48
HETATM   48  O   UNK N   1       0.049   4.542  -1.663  0.00  0.00    -0.390 OA
HETATM   49  H   UNK N   1      -0.166   4.127  -2.513  0.00  0.00     0.210 HD
ENDBRANCH  16  48
ENDBRANCH  15  16
BRANCH  15  50
HETATM   50  O   UNK N   1      -2.215   5.769  -1.649  0.00  0.00    -0.390 OA
HETATM   51  H   UNK N   1      -2.007   6.192  -2.497  0.00  0.00     0.210 HD
ENDBRANCH  15  50
ENDBRANCH  14  15
BRANCH  14  52
HETATM   52  O   UNK N   1      -3.893   5.737   0.793  0.00  0.00    -0.370 OA
BRANCH  52  53
HETATM   53  C   UNK N   1      -4.505   6.081  -0.434  0.00  0.00     0.207 C 
BRANCH  53  54
HETATM   54  C   UNK N   1      -5.523   5.081  -0.720  0.00  0.00    -0.035 A 
HETATM   55  C   UNK N   1      -6.848   5.485  -0.811  0.00  0.00     0.010 A 
HETATM   56  C   UNK N   1      -7.850   4.529  -0.827  0.00  0.00     0.013 A 
HETATM   57  C   UNK N   1      -7.524   3.167  -0.742  0.00  0.00    -0.025 A 
HETATM   58  C   UNK N   1      -6.179   2.770  -0.732  0.00  0.00     0.013 A 
HETATM   59  C   UNK N   1      -5.177   3.729  -0.724  0.00  0.00     0.010 A 
BRANCH  57  60
HETATM   60  C   UNK N   1      -8.577   2.193  -0.435  0.00  0.00    -0.011 A 
HETATM   61  C   UNK N   1      -8.250   0.867  -0.130  0.00  0.00     0.015 A 
HETATM   62  C   UNK N   1      -9.233  -0.000   0.338  0.00  0.00     0.018 A 
HETATM   63  C   UNK N   1     -10.536   0.473   0.508  0.00  0.00     0.087 A 
HETATM   64  N   UNK N   1     -10.843   1.761   0.201  0.00  0.00    -0.374 N 
HETATM   65  C   UNK N   1      -9.898   2.623  -0.255  0.00  0.00     0.099 A 
ATOM     66  HN  UNK N   1     -11.803   2.087   0.316  1.00  0.00     0.164 HD
ENDBRANCH  57  60
ENDBRANCH  53  54
ENDBRANCH  52  53
ENDBRANCH  14  52
ENDBRANCH  12  14
BRANCH  12  67
HETATM   67  O   UNK N   1      -1.059   8.041   0.962  0.00  0.00    -0.348 OA
HETATM   68  H   UNK N   1      -0.315   7.485   1.090  0.00  0.00     0.219 HD
ENDBRANCH  12  67
ENDBRANCH   7  11
ENDBRANCH   2   7
TORSDOF 23
