REMARK  8 active torsions:
REMARK  status: ('A' for Active; 'I' for Inactive)
REMARK    1  A    between atoms: C_2  and  C_1 
REMARK    2  A    between atoms: C_3  and  C_1 
REMARK    3  A    between atoms: C_1  and  N_4 
REMARK    4  A    between atoms: O_6  and  C_2 
REMARK    5  A    between atoms: C_3  and  O_7 
REMARK    6  A    between atoms: O_11  and  C_3 
REMARK    7  A    between atoms: S_12  and  O_8 
REMARK    8  A    between atoms: S_12  and  O_11 
ROOT
HETATM    1  C   UNK N   1       1.268  -0.609   0.326  0.00  0.00     0.310 C 
ENDROOT
BRANCH   1   2
HETATM    2  C   UNK N   1       2.588  -0.696  -0.458  0.00  0.00     0.230 C 
BRANCH   2   3
HETATM    3  C   UNK N   1       3.536  -1.717   0.131  0.00  0.00     0.168 C 
HETATM    4  O   UNK N   1       4.637  -1.386   0.538  0.00  0.00    -0.648 OA
BRANCH   3   5
HETATM    5  O   UNK N   1       3.177  -3.016   0.174  0.00  0.00    -0.775 OA
HETATM    6  H   UNK N   1       2.271  -3.252   0.204  0.00  0.00     0.167 HD
ENDBRANCH   3   5
ENDBRANCH   2   3
BRANCH   2   7
HETATM    7  N   UNK N   1       3.215   0.620  -0.491  0.00  0.00    -0.414 N 
HETATM    8  H   UNK N   1       4.232   0.700  -0.514  0.00  0.00     0.150 HD
HETATM    9  H   UNK N   1       2.638   1.461  -0.491  0.00  0.00     0.150 HD
ENDBRANCH   2   7
ENDBRANCH   1   2
BRANCH   1  10
HETATM   10  O   UNK N   1       0.698  -1.884   0.429  0.00  0.00    -0.367 OA
HETATM   11  H   UNK N   1      -0.264  -1.984   0.501  0.00  0.00     0.212 HD
ENDBRANCH   1  10
BRANCH   1  12
HETATM   12  O   UNK N   1       0.387   0.249  -0.371  0.00  0.00    -0.228 OA
BRANCH  12  13
HETATM   13  S   UNK N   1      -1.035   0.487   0.589  0.00  0.00     0.243 S 
HETATM   14  O   UNK N   1      -0.721   1.838  -0.072  0.00  0.00    -0.579 OA
HETATM   15  O   UNK N   1      -1.443  -0.437  -0.570  0.00  0.00    -0.579 OA
BRANCH  13  16
HETATM   16  O   UNK N   1      -2.501   1.073  -0.085  0.00  0.00    -0.273 OA
HETATM   17  H   UNK N   1      -2.628   1.956  -0.466  0.00  0.00     0.234 HD
ENDBRANCH  13  16
ENDBRANCH  12  13
ENDBRANCH   1  12
TORSDOF 8
