REMARK  10 active torsions:
REMARK  status: ('A' for Active; 'I' for Inactive)
REMARK    1  A    between atoms: C_4  and  C_32 
REMARK    2  A    between atoms: C_8  and  C_37 
REMARK    3  A    between atoms: C_19  and  C_31 
REMARK    4  A    between atoms: C_22  and  C_27 
REMARK    5  A    between atoms: C_32  and  C_33 
REMARK    6  A    between atoms: C_33  and  C_34 
REMARK    7  A    between atoms: C_34  and  O_36 
REMARK    8  A    between atoms: C_37  and  C_38 
REMARK    9  A    between atoms: C_38  and  C_39 
REMARK   10  A    between atoms: C_39  and  O_40 
ROOT
HETATM    1  C   UNK N   1      16.156 -12.756   0.451  0.00  0.00     0.041 A 
HETATM    2  C   UNK N   1      14.950 -13.336   0.495  0.00  0.00     0.060 A 
HETATM    3  N   UNK N   1      16.374 -11.431   0.296  0.00  0.00    -0.355 N 
HETATM    4  C   UNK N   1      17.356 -13.436   0.589  0.00  0.00    -0.023 A 
HETATM    5  C   UNK N   1      13.651 -12.639   0.373  0.00  0.00     0.041 A 
HETATM    6  C   UNK N   1      17.718 -11.272   0.339  0.00  0.00     0.041 A 
HETATM    7  C   UNK N   1      18.346 -12.488   0.518  0.00  0.00    -0.027 A 
HETATM    8  C   UNK N   1      12.344 -13.301   0.533  0.00  0.00    -0.023 A 
HETATM    9  N   UNK N   1      13.501 -11.382   0.141  0.00  0.00    -0.355 N 
ATOM     10  HN  UNK N   1      14.246 -10.700   0.002  1.00  0.00     0.166 HD
HETATM   11  C   UNK N   1      18.361 -10.107   0.239  0.00  0.00     0.060 A 
HETATM   12  N   UNK N   1      13.580  -8.477  -0.101  0.00  0.00    -0.355 N 
HETATM   13  C   UNK N   1      11.405 -12.374   0.356  0.00  0.00    -0.027 A 
HETATM   14  C   UNK N   1      12.112 -11.123   0.116  0.00  0.00     0.041 A 
HETATM   15  C   UNK N   1      17.743  -8.775   0.081  0.00  0.00     0.045 A 
HETATM   16  C   UNK N   1      13.798  -7.143  -0.149  0.00  0.00     0.045 A 
HETATM   17  C   UNK N   1      12.238  -8.636  -0.105  0.00  0.00     0.041 A 
HETATM   18  C   UNK N   1      11.531  -9.924   0.002  0.00  0.00     0.060 A 
HETATM   19  C   UNK N   1      18.503  -7.507  -0.013  0.00  0.00    -0.002 A 
HETATM   20  N   UNK N   1      16.476  -8.553   0.038  0.00  0.00    -0.355 N 
ATOM     21  HN  UNK N   1      15.737  -9.255   0.083  1.00  0.00     0.166 HD
HETATM   22  C   UNK N   1      12.591  -6.455  -0.178  0.00  0.00    -0.002 A 
HETATM   23  C   UNK N   1      15.130  -6.511  -0.161  0.00  0.00     0.060 A 
HETATM   24  C   UNK N   1      11.605  -7.412  -0.155  0.00  0.00    -0.023 A 
HETATM   25  C   UNK N   1      17.611  -6.525  -0.109  0.00  0.00    -0.023 A 
HETATM   26  C   UNK N   1      16.299  -7.157  -0.084  0.00  0.00     0.041 A 
HETATM   27  C   UNK N   1      10.133  -7.171  -0.151  0.00  0.00     0.051 C 
HETATM   28  C   UNK N   1      17.905  -5.063  -0.222  0.00  0.00     0.051 C 
HETATM   29  C   UNK N   1       9.926 -12.567   0.467  0.00  0.00     0.051 C 
HETATM   30  C   UNK N   1      19.816 -12.732   0.633  0.00  0.00     0.051 C 
HETATM   31  H   UNK N   1      15.696 -10.727   0.178  0.00  0.00     0.166 HD
HETATM   32  H   UNK N   1      14.261  -9.188  -0.070  0.00  0.00     0.166 HD
ENDROOT
BRANCH   4  33
HETATM   33  C   UNK N   1      17.561 -14.901   0.804  0.00  0.00     0.052 C 
BRANCH  33  34
HETATM   34  C   UNK N   1      17.176 -15.683  -0.438  0.00  0.00     0.115 C 
BRANCH  34  35
HETATM   35  C   UNK N   1      17.047 -17.134  -0.114  0.00  0.00     0.139 C 
HETATM   36  O   UNK N   1      18.006 -17.761   0.307  0.00  0.00    -0.650 OA
BRANCH  35  37
HETATM   37  O   UNK N   1      15.868 -17.754  -0.294  0.00  0.00    -0.776 OA
HETATM   38  H   UNK N   1      15.082 -17.258  -0.420  0.00  0.00     0.167 HD
ENDBRANCH  35  37
ENDBRANCH  34  35
ENDBRANCH  33  34
ENDBRANCH   4  33
BRANCH   8  39
HETATM   39  C   UNK N   1      12.131 -14.737   0.901  0.00  0.00     0.052 C 
BRANCH  39  40
HETATM   40  C   UNK N   1      11.392 -15.501  -0.179  0.00  0.00     0.115 C 
BRANCH  40  41
HETATM   41  C   UNK N   1      12.170 -16.722  -0.531  0.00  0.00     0.139 C 
HETATM   42  O   UNK N   1      13.264 -16.618  -1.060  0.00  0.00    -0.650 OA
BRANCH  41  43
HETATM   43  O   UNK N   1      11.667 -17.941  -0.263  0.00  0.00    -0.776 OA
HETATM   44  H   UNK N   1      10.757 -18.062  -0.077  0.00  0.00     0.167 HD
ENDBRANCH  41  43
ENDBRANCH  40  41
ENDBRANCH  39  40
ENDBRANCH   8  39
BRANCH  19  45
HETATM   45  C   UNK N   1      19.970  -7.314  -0.005  0.00  0.00     0.004 C 
HETATM   46  C   UNK N   1      20.821  -8.336   0.069  0.00  0.00     0.012 C 
ENDBRANCH  19  45
BRANCH  22  47
HETATM   47  C   UNK N   1      12.348  -4.997  -0.205  0.00  0.00     0.004 C 
HETATM   48  C   UNK N   1      13.331  -4.100  -0.163  0.00  0.00     0.012 C 
ENDBRANCH  22  47
TORSDOF 10
