REMARK  5 active torsions:
REMARK  status: ('A' for Active; 'I' for Inactive)
REMARK    1  A    between atoms: N_1  and  C_2 
REMARK    2  A    between atoms: C_2  and  C_3 
REMARK    3  A    between atoms: C_2  and  C_6 
REMARK    4  A    between atoms: C_3  and  O_4 
REMARK    5  A    between atoms: C_6  and  O_7 
ROOT
HETATM    1  C   UNK N   1       1.630   0.755   0.000  0.00  0.00     0.272 C 
ENDROOT
BRANCH   1   2
HETATM    2  N   UNK N   1       3.085   0.794   0.000  0.00  0.00    -0.409 N 
HETATM    3  H   UNK N   1       3.618  -0.076  -0.000  0.00  0.00     0.151 HD
HETATM    4  H   UNK N   1       3.571   1.690   0.000  0.00  0.00     0.151 HD
ENDBRANCH   1   2
BRANCH   1   5
HETATM    5  C   UNK N   1       0.889   2.059   0.000  0.00  0.00     0.173 C 
HETATM    6  O   UNK N   1      -0.333   2.072   0.000  0.00  0.00    -0.648 OA
BRANCH   5   7
HETATM    7  O   UNK N   1       1.564   3.222  -0.000  0.00  0.00    -0.774 OA
HETATM    8  H   UNK N   1       2.501   3.219  -0.000  0.00  0.00     0.167 HD
ENDBRANCH   5   7
ENDBRANCH   1   5
BRANCH   1   9
HETATM    9  C   UNK N   1       0.958  -0.587  -0.000  0.00  0.00     0.173 C 
HETATM   10  O   UNK N   1      -0.261  -0.663  -0.000  0.00  0.00    -0.648 OA
BRANCH   9  11
HETATM   11  O   UNK N   1       1.694  -1.713   0.000  0.00  0.00    -0.774 OA
HETATM   12  H   UNK N   1       1.271  -2.549   0.000  0.00  0.00     0.167 HD
ENDBRANCH   9  11
ENDBRANCH   1   9
TORSDOF 5
