REMARK  9 active torsions:
REMARK  status: ('A' for Active; 'I' for Inactive)
REMARK    1  A    between atoms: C_4  and  C_3 
REMARK    2  A    between atoms: P_17  and  C_3 
REMARK    3  A    between atoms: C_5  and  O_9 
REMARK    4  A    between atoms: C_6  and  O_10 
REMARK    5  A    between atoms: C_8  and  C_7 
REMARK    6  A    between atoms: O_12  and  C_7 
REMARK    7  A    between atoms: C_8  and  O_13 
REMARK    8  A    between atoms: P_17  and  O_14 
REMARK    9  A    between atoms: P_17  and  O_15 
ROOT
HETATM    1  C   UNK N   1       1.664   0.539  -1.176  0.00  0.00     0.057 C 
HETATM    2  C   UNK N   1       1.073  -1.270   0.556  0.00  0.00     0.083 C 
HETATM    3  C   UNK N   1       0.823   1.421  -0.249  0.00  0.00     0.031 C 
HETATM    4  C   UNK N   1      -0.327  -0.867   0.126  0.00  0.00     0.150 C 
HETATM    5  C   UNK N   1      -0.475   0.667   0.194  0.00  0.00     0.151 C 
HETATM    6  C   UNK N   1       2.109  -0.785  -0.485  0.00  0.00     0.145 C 
ENDROOT
BRANCH   3   7
HETATM    7  C   UNK N   1       0.510   2.742  -0.961  0.00  0.00     0.132 C 
BRANCH   7   8
HETATM    8  P   UNK N   1      -0.158   4.087   0.153  0.00  0.00     0.236 P 
HETATM    9  O   UNK N   1      -1.056   3.521   1.284  0.00  0.00    -0.653 OA
BRANCH   8  10
HETATM   10  O   UNK N   1      -1.193   5.213  -0.667  0.00  0.00    -0.329 OA
HETATM   11  H   UNK N   1      -0.937   6.029  -1.125  0.00  0.00     0.220 HD
ENDBRANCH   8  10
BRANCH   8  12
HETATM   12  O   UNK N   1       1.040   5.028   0.984  0.00  0.00    -0.329 OA
HETATM   13  H   UNK N   1       1.831   4.712   1.448  0.00  0.00     0.220 HD
ENDBRANCH   8  12
ENDBRANCH   7   8
ENDBRANCH   3   7
BRANCH   5  14
HETATM   14  O   UNK N   1      -1.575   1.022  -0.594  0.00  0.00    -0.393 OA
HETATM   15  H   UNK N   1      -1.744   1.806  -1.140  0.00  0.00     0.210 HD
ENDBRANCH   5  14
BRANCH   6  16
HETATM   16  C   UNK N   1       3.440  -0.658   0.213  0.00  0.00     0.175 C 
HETATM   17  O   UNK N   1       4.038   0.405   0.239  0.00  0.00    -0.648 OA
BRANCH  16  18
HETATM   18  O   UNK N   1       3.983  -1.738   0.813  0.00  0.00    -0.774 OA
HETATM   19  H   UNK N   1       3.521  -2.440   1.229  0.00  0.00     0.167 HD
ENDBRANCH  16  18
ENDBRANCH   6  16
BRANCH   6  20
HETATM   20  O   UNK N   1       2.231  -1.753  -1.482  0.00  0.00    -0.379 OA
HETATM   21  H   UNK N   1       1.690  -2.163  -2.175  0.00  0.00     0.211 HD
ENDBRANCH   6  20
BRANCH   4  22
HETATM   22  O   UNK N   1      -1.292  -1.488   0.919  0.00  0.00    -0.393 OA
HETATM   23  H   UNK N   1      -2.002  -1.122   1.470  0.00  0.00     0.210 HD
ENDBRANCH   4  22
TORSDOF 9
