REMARK  14 active torsions:
REMARK  status: ('A' for Active; 'I' for Inactive)
REMARK    1  A    between atoms: C_6  and  C_5 
REMARK    2  A    between atoms: C_13  and  C_5 
REMARK    3  A    between atoms: C_14  and  C_6 
REMARK    4  A    between atoms: C_12  and  C_7 
REMARK    5  A    between atoms: N_23  and  C_7 
REMARK    6  A    between atoms: N_30  and  C_9 
REMARK    7  A    between atoms: O_31  and  C_9 
REMARK    8  A    between atoms: C_17  and  C_10 
REMARK    9  A    between atoms: N_23  and  C_11 
REMARK   10  A    between atoms: C_19  and  C_13 
REMARK   11  A    between atoms: C_13  and  N_26 
REMARK   12  A    between atoms: O_33  and  C_14 
REMARK       I    between atoms: N_26  and  C_17 
REMARK   13  A    between atoms: O_35  and  C_18 
REMARK   14  A    between atoms: O_37  and  C_19 
REMARK       I    between atoms: N_21  and  C_20 
ROOT
HETATM    1  N   UNK N   1      -1.072  -2.144   0.802  0.00  0.00    -0.388 N 
HETATM    2  H   UNK N   1      -1.466  -1.331   1.193  0.00  0.00     0.159 HD
ENDROOT
BRANCH   1   3
HETATM    3  C   UNK N   1       0.349  -2.272   0.886  0.00  0.00     0.150 C 
BRANCH   3   4
HETATM    4  C   UNK N   1       0.949  -1.274  -0.103  0.00  0.00     0.143 C 
HETATM    5  C   UNK N   1       2.446  -1.449  -0.070  0.00  0.00     0.089 C 
HETATM    6  N   UNK N   1       3.264  -0.460   0.032  0.00  0.00    -0.351 N 
HETATM    7  C   UNK N   1       2.830   0.884   0.084  0.00  0.00     0.152 A 
ATOM      8  HN  UNK N   1       4.265  -0.655   0.077  1.00  0.00     0.166 HD
HETATM    9  C   UNK N   1       1.466   1.190   0.140  0.00  0.00     0.130 A 
HETATM   10  N   UNK N   1       3.750   1.882   0.041  0.00  0.00    -0.174 N 
HETATM   11  C   UNK N   1       1.097   2.561   0.160  0.00  0.00     0.186 A 
HETATM   12  N   UNK N   1       0.511   0.121   0.124  0.00  0.00    -0.342 N 
HETATM   13  N   UNK N   1       2.061   3.514   0.110  0.00  0.00    -0.168 N 
HETATM   14  C   UNK N   1       3.373   3.184   0.047  0.00  0.00     0.679 A 
ATOM     15  HN  UNK N   1       1.792   4.498   0.119  1.00  0.00     0.186 HD
HETATM   16  N   UNK N   1       4.256   4.105  -0.024  0.00  0.00    -0.234 N 
HETATM   17  H   UNK N   1       5.211   3.870  -0.079  0.00  0.00     0.174 HD
ATOM     18  HN  UNK N   1       3.973   5.085  -0.024  1.00  0.00     0.174 HD
HETATM   19  H   UNK N   1       4.708   1.656   0.005  0.00  0.00     0.186 HD
BRANCH  11  20
HETATM   20  O   UNK N   1      -0.188   2.952   0.202  0.00  0.00    -0.344 OA
HETATM   21  H   UNK N   1      -0.400   3.864   0.230  0.00  0.00     0.219 HD
ENDBRANCH  11  20
BRANCH  12  22
HETATM   22  C   UNK N   1      -0.905   0.437   0.193  0.00  0.00     0.291 C 
BRANCH  22  23
HETATM   23  O   UNK N   1      -1.521   0.192  -1.032  0.00  0.00    -0.382 OA
HETATM   24  H   UNK N   1      -1.883   0.478  -1.886  0.00  0.00     0.211 HD
ENDBRANCH  22  23
ENDBRANCH  12  22
ENDBRANCH   3   4
ENDBRANCH   1   3
BRANCH   1  25
HETATM   25  C   UNK N   1      -1.966  -3.056   0.218  0.00  0.00     0.028 A 
HETATM   26  C   UNK N   1      -1.659  -4.416   0.046  0.00  0.00     0.030 A 
HETATM   27  C   UNK N   1      -2.682  -5.308  -0.313  0.00  0.00     0.019 A 
HETATM   28  C   UNK N   1      -3.986  -4.823  -0.521  0.00  0.00     0.032 A 
HETATM   29  C   UNK N   1      -4.235  -3.452  -0.452  0.00  0.00     0.019 A 
HETATM   30  C   UNK N   1      -3.234  -2.580  -0.084  0.00  0.00     0.030 A 
BRANCH  28  31
HETATM   31  C   UNK N   1      -5.149  -5.714  -0.419  0.00  0.00     0.252 C 
HETATM   32  N   UNK N   1      -6.353  -5.122  -0.192  0.00  0.00    -0.343 N 
HETATM   33  H   UNK N   1      -6.487  -4.227  -0.581  0.00  0.00     0.163 HD
HETATM   34  O   UNK N   1      -4.988  -6.912  -0.247  0.00  0.00    -0.268 OA
BRANCH  32  35
HETATM   35  C   UNK N   1      -7.455  -5.676   0.565  0.00  0.00     0.183 C 
BRANCH  35  36
HETATM   36  C   UNK N   1      -8.493  -4.566   0.762  0.00  0.00     0.046 C 
BRANCH  36  37
HETATM   37  C   UNK N   1      -9.106  -4.078  -0.545  0.00  0.00     0.112 C 
BRANCH  37  38
HETATM   38  C   UNK N   1     -10.063  -2.966  -0.275  0.00  0.00     0.139 C 
HETATM   39  O   UNK N   1     -11.259  -3.141  -0.440  0.00  0.00    -0.650 OA
BRANCH  38  40
HETATM   40  O   UNK N   1      -9.610  -1.767   0.138  0.00  0.00    -0.776 OA
HETATM   41  H   UNK N   1      -8.730  -1.622   0.426  0.00  0.00     0.167 HD
ENDBRANCH  38  40
ENDBRANCH  37  38
ENDBRANCH  36  37
ENDBRANCH  35  36
BRANCH  35  42
HETATM   42  C   UNK N   1      -8.052  -6.940  -0.007  0.00  0.00     0.163 C 
HETATM   43  O   UNK N   1      -7.372  -7.946  -0.118  0.00  0.00    -0.648 OA
BRANCH  42  44
HETATM   44  O   UNK N   1      -9.363  -6.997  -0.315  0.00  0.00    -0.775 OA
HETATM   45  H   UNK N   1      -9.853  -6.228  -0.530  0.00  0.00     0.167 HD
ENDBRANCH  42  44
ENDBRANCH  35  42
ENDBRANCH  32  35
ENDBRANCH  28  31
ENDBRANCH   1  25
TORSDOF 14
