REMARK  16 active torsions:
REMARK  status: ('A' for Active; 'I' for Inactive)
REMARK    1  A    between atoms: C_3  and  C_1 
REMARK    2  A    between atoms: C_3  and  C_2 
REMARK    3  A    between atoms: O_23  and  C_2 
REMARK    4  A    between atoms: C_5  and  O_13 
REMARK    5  A    between atoms: C_6  and  O_14 
REMARK    6  A    between atoms: O_26  and  C_7 
REMARK    7  A    between atoms: C_8  and  O_24 
REMARK    8  A    between atoms: C_9  and  O_25 
REMARK    9  A    between atoms: P_27  and  O_16 
REMARK   10  A    between atoms: P_28  and  O_18 
REMARK   11  A    between atoms: P_28  and  O_19 
REMARK   12  A    between atoms: P_29  and  O_21 
REMARK   13  A    between atoms: P_29  and  O_23 
REMARK   14  A    between atoms: P_27  and  O_24 
REMARK   15  A    between atoms: P_28  and  O_25 
REMARK   16  A    between atoms: P_29  and  O_26 
ROOT
HETATM    1  C   UNK N   1       8.134  -3.329  -0.266  0.00  0.00     0.244 C 
HETATM    2  O   UNK N   1       8.294  -3.139  -1.639  0.00  0.00    -0.394 OA
HETATM    3  H   UNK N   1       8.464  -3.169  -2.593  0.00  0.00     0.209 HD
ENDROOT
BRANCH   1   4
HETATM    4  C   UNK N   1       6.697  -3.167   0.107  0.00  0.00     0.174 C 
HETATM    5  O   UNK N   1       5.858  -3.918  -0.365  0.00  0.00    -0.293 OA
BRANCH   4   6
HETATM    6  C   UNK N   1       6.306  -2.091   1.077  0.00  0.00     0.261 C 
BRANCH   6   7
HETATM    7  O   UNK N   1       4.935  -2.125   1.353  0.00  0.00    -0.289 OA
BRANCH   7   8
HETATM    8  P   UNK N   1       4.238  -0.708   0.610  0.00  0.00     0.393 P 
HETATM    9  O   UNK N   1       3.889   0.277   1.759  0.00  0.00    -0.631 OA
BRANCH   8  10
HETATM   10  O   UNK N   1       5.359   0.101  -0.445  0.00  0.00    -0.307 OA
HETATM   11  H   UNK N   1       6.062  -0.215  -1.034  0.00  0.00     0.222 HD
ENDBRANCH   8  10
BRANCH   8  12
HETATM   12  O   UNK N   1       2.784  -1.158  -0.267  0.00  0.00    -0.286 OA
BRANCH  12  13
HETATM   13  C   UNK N   1       1.700  -0.281  -0.021  0.00  0.00     0.196 C 
HETATM   14  C   UNK N   1       1.871   1.081  -0.718  0.00  0.00     0.181 C 
HETATM   15  C   UNK N   1       0.696   2.033  -0.339  0.00  0.00     0.181 C 
HETATM   16  O   UNK N   1       1.918   0.889  -2.103  0.00  0.00    -0.390 OA
HETATM   17  C   UNK N   1      -0.704   1.336  -0.172  0.00  0.00     0.197 C 
HETATM   18  C   UNK N   1      -0.715   0.013  -0.966  0.00  0.00     0.197 C 
HETATM   19  C   UNK N   1       0.394  -0.982  -0.513  0.00  0.00     0.182 C 
HETATM   20  H   UNK N   1       1.818   0.795  -3.063  0.00  0.00     0.210 HD
BRANCH  15  21
HETATM   21  O   UNK N   1       1.001   2.690   0.858  0.00  0.00    -0.390 OA
HETATM   22  H   UNK N   1       1.502   2.734   1.688  0.00  0.00     0.210 HD
ENDBRANCH  15  21
BRANCH  17  23
HETATM   23  O   UNK N   1      -1.769   2.129  -0.667  0.00  0.00    -0.286 OA
BRANCH  23  24
HETATM   24  P   UNK N   1      -1.903   3.661   0.169  0.00  0.00     0.391 P 
HETATM   25  O   UNK N   1      -1.614   3.558   1.877  0.00  0.00    -0.307 OA
HETATM   26  H   UNK N   1      -1.583   3.389   2.832  0.00  0.00     0.222 HD
HETATM   27  O   UNK N   1      -3.376   4.117   0.000  0.00  0.00    -0.632 OA
BRANCH  24  28
HETATM   28  O   UNK N   1      -0.933   4.884  -0.593  0.00  0.00    -0.307 OA
HETATM   29  H   UNK N   1      -0.071   4.756  -1.018  0.00  0.00     0.222 HD
ENDBRANCH  24  28
ENDBRANCH  23  24
ENDBRANCH  17  23
BRANCH  18  30
HETATM   30  O   UNK N   1      -1.982  -0.616  -1.099  0.00  0.00    -0.286 OA
BRANCH  30  31
HETATM   31  P   UNK N   1      -2.715  -0.947   0.458  0.00  0.00     0.391 P 
HETATM   32  O   UNK N   1      -3.769  -0.037  -0.229  0.00  0.00    -0.632 OA
BRANCH  31  33
HETATM   33  O   UNK N   1      -2.545  -2.433  -0.425  0.00  0.00    -0.307 OA
HETATM   34  H   UNK N   1      -3.216  -2.930  -0.918  0.00  0.00     0.222 HD
ENDBRANCH  31  33
BRANCH  31  35
HETATM   35  O   UNK N   1      -4.173  -1.884   0.551  0.00  0.00    -0.307 OA
HETATM   36  H   UNK N   1      -5.034  -1.441   0.603  0.00  0.00     0.222 HD
ENDBRANCH  31  35
ENDBRANCH  30  31
ENDBRANCH  18  30
BRANCH  19  37
HETATM   37  O   UNK N   1       0.663  -1.826  -1.597  0.00  0.00    -0.390 OA
HETATM   38  H   UNK N   1       0.250  -2.280  -2.348  0.00  0.00     0.210 HD
ENDBRANCH  19  37
ENDBRANCH  12  13
ENDBRANCH   8  12
ENDBRANCH   7   8
ENDBRANCH   6   7
ENDBRANCH   4   6
ENDBRANCH   1   4
TORSDOF 16
