REMARK  6 active torsions:
REMARK  status: ('A' for Active; 'I' for Inactive)
REMARK    1  A    between atoms: C_3  and  C_1 
REMARK    2  A    between atoms: O_19  and  C_1 
REMARK    3  A    between atoms: C_9  and  C_5 
REMARK    4  A    between atoms: C_7  and  O_20 
REMARK    5  A    between atoms: C_8  and  O_21 
REMARK    6  A    between atoms: N_11  and  C_10 
ROOT
HETATM    1  C   UNK N   1       5.313   0.298  -0.361  0.00  0.00     0.182 A 
HETATM    2  C   UNK N   1       3.004   0.278  -0.029  0.00  0.00     0.092 A 
HETATM    3  C   UNK N   1       1.695   0.668   0.046  0.00  0.00     0.086 A 
HETATM    4  C   UNK N   1       3.040  -1.002   0.392  0.00  0.00     0.120 A 
HETATM    5  C   UNK N   1       4.246  -1.682   0.437  0.00  0.00     0.130 A 
HETATM    6  N   UNK N   1       4.113   0.954  -0.411  0.00  0.00    -0.349 N 
ATOM      7  HN  UNK N   1       4.055   1.923  -0.726  1.00  0.00     0.167 HD
HETATM    8  N   UNK N   1       5.375  -1.010   0.057  0.00  0.00    -0.337 N 
ATOM      9  HN  UNK N   1       6.276  -1.486   0.084  1.00  0.00     0.168 HD
HETATM   10  N   UNK N   1       0.971  -0.380   0.515  0.00  0.00    -0.299 N 
HETATM   11  N   UNK N   1       1.798  -1.407   0.721  0.00  0.00    -0.295 N 
ATOM     12  HN  UNK N   1       1.537  -2.331   1.065  1.00  0.00     0.187 HD
HETATM   13  H   UNK N   1      -0.000  -0.382   0.676  0.00  0.00     0.186 HD
ENDROOT
BRANCH   3  14
HETATM   14  C   UNK N   1       1.161   2.016  -0.338  0.00  0.00     0.207 C 
HETATM   15  C   UNK N   1      -0.278   2.286   0.073  0.00  0.00     0.184 C 
HETATM   16  C   UNK N   1      -0.323   3.814   0.103  0.00  0.00     0.180 C 
HETATM   17  C   UNK N   1       1.152   4.188  -0.093  0.00  0.00     0.177 C 
HETATM   18  O   UNK N   1       1.893   3.050   0.280  0.00  0.00    -0.367 OA
BRANCH  15  19
HETATM   19  O   UNK N   1      -1.216   1.699  -0.780  0.00  0.00    -0.390 OA
HETATM   20  H   UNK N   1      -1.895   2.059  -1.372  0.00  0.00     0.210 HD
ENDBRANCH  15  19
BRANCH  16  21
HETATM   21  O   UNK N   1      -1.110   4.367  -0.912  0.00  0.00    -0.390 OA
HETATM   22  H   UNK N   1      -1.050   5.032  -1.616  0.00  0.00     0.210 HD
ENDBRANCH  16  21
BRANCH  17  23
HETATM   23  C   UNK N   1       1.579   5.417   0.696  0.00  0.00     0.198 C 
BRANCH  23  24
HETATM   24  O   UNK N   1       0.958   6.557   0.184  0.00  0.00    -0.398 OA
HETATM   25  H   UNK N   1       1.429   7.327  -0.172  0.00  0.00     0.209 HD
ENDBRANCH  23  24
ENDBRANCH  17  23
ENDBRANCH   3  14
BRANCH   5  26
HETATM   26  N   UNK N   1       4.318  -3.024   0.861  0.00  0.00    -0.383 N 
HETATM   27  H   UNK N   1       3.532  -3.536   1.158  0.00  0.00     0.157 HD
HETATM   28  H   UNK N   1       5.196  -3.469   0.861  0.00  0.00     0.157 HD
ENDBRANCH   5  26
TORSDOF 6
