REMARK  19 active torsions:
REMARK  status: ('A' for Active; 'I' for Inactive)
REMARK    1  A    between atoms: C_21  and  C_19 
REMARK    2  A    between atoms: C_25  and  C_19 
REMARK    3  A    between atoms: C_22  and  C_20 
REMARK    4  A    between atoms: C_26  and  C_20 
REMARK    5  A    between atoms: C_31  and  C_21 
REMARK    6  A    between atoms: C_32  and  C_22 
REMARK    7  A    between atoms: C_37  and  C_31 
REMARK    8  A    between atoms: C_31  and  C_39 
REMARK    9  A    between atoms: C_38  and  C_32 
REMARK   10  A    between atoms: C_32  and  C_40 
REMARK   11  A    between atoms: C_33  and  O_45 
REMARK   12  A    between atoms: C_34  and  O_46 
REMARK   13  A    between atoms: C_35  and  N_41 
REMARK   14  A    between atoms: C_36  and  N_43 
REMARK   15  A    between atoms: C_38  and  C_37 
REMARK   16  A    between atoms: C_37  and  O_47 
REMARK   17  A    between atoms: C_38  and  O_48 
REMARK   18  A    between atoms: C_39  and  O_49 
REMARK   19  A    between atoms: C_40  and  O_50 
ROOT
HETATM    1  C   UNK N   1       7.178   4.030  -0.408  0.00  0.00     0.159 C 
ENDROOT
BRANCH   1   2
HETATM    2  C   UNK N   1       5.855   4.769  -0.045  0.00  0.00     0.091 C 
BRANCH   2   3
HETATM    3  C   UNK N   1       4.604   3.890   0.129  0.00  0.00     0.020 C 
BRANCH   3   4
HETATM    4  C   UNK N   1       4.265   2.947  -1.019  0.00  0.00     0.039 C 
BRANCH   4   5
HETATM    5  C   UNK N   1       3.400   1.837  -0.506  0.00  0.00    -0.058 A 
HETATM    6  C   UNK N   1       3.856   0.515  -0.569  0.00  0.00     0.007 A 
HETATM    7  C   UNK N   1       3.059  -0.528  -0.083  0.00  0.00     0.001 A 
HETATM    8  C   UNK N   1       1.804  -0.252   0.468  0.00  0.00     0.000 A 
HETATM    9  C   UNK N   1       1.344   1.067   0.532  0.00  0.00     0.001 A 
HETATM   10  C   UNK N   1       2.139   2.110   0.045  0.00  0.00     0.007 A 
ENDBRANCH   4   5
ENDBRANCH   3   4
ENDBRANCH   2   3
BRANCH   2  11
HETATM   11  C   UNK N   1       5.558   5.799  -1.138  0.00  0.00     0.118 C 
HETATM   12  N   UNK N   1       5.361   7.053  -0.918  0.00  0.00    -0.363 N 
ATOM     13  HN  UNK N   1       5.278   7.648  -1.742  1.00  0.00     0.162 HD
BRANCH  12  14
HETATM   14  C   UNK N   1       5.243   7.713   0.363  0.00  0.00     0.146 C 
HETATM   15  C   UNK N   1       4.013   8.517   0.274  0.00  0.00    -0.027 A 
HETATM   16  C   UNK N   1       2.707   8.022   0.230  0.00  0.00     0.010 A 
HETATM   17  C   UNK N   1       4.280   9.843   0.068  0.00  0.00    -0.047 A 
HETATM   18  C   UNK N   1       1.655   8.922   0.015  0.00  0.00     0.001 A 
HETATM   19  C   UNK N   1       1.926  10.288  -0.179  0.00  0.00     0.001 A 
HETATM   20  C   UNK N   1       3.251  10.755  -0.167  0.00  0.00     0.008 A 
HETATM   21  C   UNK N   1       5.734  10.125   0.010  0.00  0.00     0.073 C 
HETATM   22  C   UNK N   1       6.316   8.809   0.555  0.00  0.00     0.149 C 
BRANCH  22  23
HETATM   23  O   UNK N   1       7.542   8.478  -0.026  0.00  0.00    -0.393 OA
HETATM   24  H   UNK N   1       7.769   7.625  -0.430  0.00  0.00     0.210 HD
ENDBRANCH  22  23
ENDBRANCH  12  14
BRANCH  11  25
HETATM   25  O   UNK N   1       5.483   5.370  -2.416  0.00  0.00    -0.349 OA
HETATM   26  H   UNK N   1       5.199   5.266  -3.302  0.00  0.00     0.219 HD
ENDBRANCH  11  25
ENDBRANCH   2  11
ENDBRANCH   1   2
BRANCH   1  27
HETATM   27  C   UNK N   1       7.475   2.654   0.306  0.00  0.00     0.159 C 
BRANCH  27  28
HETATM   28  C   UNK N   1       8.748   1.978   0.933  0.00  0.00     0.091 C 
BRANCH  28  29
HETATM   29  C   UNK N   1      10.126   2.632   0.732  0.00  0.00     0.020 C 
BRANCH  29  30
HETATM   30  C   UNK N   1      10.507   3.221  -0.612  0.00  0.00     0.039 C 
BRANCH  30  31
HETATM   31  C   UNK N   1      11.423   4.384  -0.340  0.00  0.00    -0.058 A 
HETATM   32  C   UNK N   1      10.981   5.691  -0.580  0.00  0.00     0.007 A 
HETATM   33  C   UNK N   1      11.798   6.784  -0.271  0.00  0.00     0.001 A 
HETATM   34  C   UNK N   1      13.066   6.575   0.276  0.00  0.00     0.000 A 
HETATM   35  C   UNK N   1      13.519   5.274   0.512  0.00  0.00     0.001 A 
HETATM   36  C   UNK N   1      12.698   4.180   0.211  0.00  0.00     0.007 A 
ENDBRANCH  30  31
ENDBRANCH  29  30
ENDBRANCH  28  29
BRANCH  28  37
HETATM   37  C   UNK N   1       8.683   0.460   0.605  0.00  0.00     0.118 C 
HETATM   38  N   UNK N   1       9.523  -0.378   1.085  0.00  0.00    -0.363 N 
ATOM     39  HN  UNK N   1      10.335  -0.001   1.575  1.00  0.00     0.162 HD
BRANCH  38  40
HETATM   40  C   UNK N   1       9.412  -1.846   0.986  0.00  0.00     0.146 C 
HETATM   41  C   UNK N   1      10.570  -2.579   0.442  0.00  0.00    -0.027 A 
HETATM   42  C   UNK N   1      11.900  -2.171   0.349  0.00  0.00     0.010 A 
HETATM   43  C   UNK N   1      10.183  -3.844   0.063  0.00  0.00    -0.047 A 
HETATM   44  C   UNK N   1      12.845  -3.088  -0.140  0.00  0.00     0.001 A 
HETATM   45  C   UNK N   1      12.449  -4.389  -0.510  0.00  0.00     0.001 A 
HETATM   46  C   UNK N   1      11.103  -4.772  -0.416  0.00  0.00     0.008 A 
HETATM   47  C   UNK N   1       8.713  -4.039   0.196  0.00  0.00     0.073 C 
HETATM   48  C   UNK N   1       8.250  -2.568   0.224  0.00  0.00     0.149 C 
BRANCH  48  49
HETATM   49  O   UNK N   1       8.178  -2.167  -1.118  0.00  0.00    -0.393 OA
HETATM   50  H   UNK N   1       8.394  -1.985  -2.047  0.00  0.00     0.210 HD
ENDBRANCH  48  49
ENDBRANCH  38  40
BRANCH  37  51
HETATM   51  O   UNK N   1       7.631   0.013  -0.122  0.00  0.00    -0.349 OA
HETATM   52  H   UNK N   1       6.999   0.489  -0.624  0.00  0.00     0.219 HD
ENDBRANCH  37  51
ENDBRANCH  28  37
ENDBRANCH  27  28
BRANCH  27  53
HETATM   53  O   UNK N   1       6.360   2.146   0.979  0.00  0.00    -0.392 OA
HETATM   54  H   UNK N   1       5.668   2.640   1.445  0.00  0.00     0.210 HD
ENDBRANCH  27  53
ENDBRANCH   1  27
BRANCH   1  55
HETATM   55  O   UNK N   1       8.247   4.913  -0.306  0.00  0.00    -0.392 OA
HETATM   56  H   UNK N   1       9.153   4.575  -0.235  0.00  0.00     0.210 HD
ENDBRANCH   1  55
TORSDOF 19
