REMARK  5 active torsions:
REMARK  status: ('A' for Active; 'I' for Inactive)
REMARK    1  A    between atoms: N_1  and  C_2 
REMARK    2  A    between atoms: C_3  and  O_4 
REMARK    3  A    between atoms: O_4  and  P_5 
REMARK    4  A    between atoms: P_5  and  O_6 
REMARK    5  A    between atoms: P_5  and  O_7 
ROOT
HETATM    1  O   UNK N   1      -1.002  -0.575  -0.501  0.00  0.00    -0.266 OA
ENDROOT
BRANCH   1   2
HETATM    2  C   UNK N   1      -0.101   0.444  -0.505  0.00  0.00     0.164 C 
HETATM    3  C   UNK N   1       1.128   0.321  -0.002  0.00  0.00     0.105 C 
BRANCH   3   4
HETATM    4  N   UNK N   1       2.003   1.430   0.001  0.00  0.00    -0.406 N 
HETATM    5  H   UNK N   1       2.977   1.288   0.003  0.00  0.00     0.155 HD
HETATM    6  H   UNK N   1       1.639   2.344   0.001  0.00  0.00     0.155 HD
ENDBRANCH   3   4
ENDBRANCH   1   2
BRANCH   1   7
HETATM    7  P   UNK N   1      -0.681  -2.147   0.126  0.00  0.00     0.395 P 
HETATM    8  O   UNK N   1      -0.239  -1.975   1.604  0.00  0.00    -0.631 OA
BRANCH   7   9
HETATM    9  O   UNK N   1       0.613  -2.932  -0.725  0.00  0.00    -0.307 OA
HETATM   10  H   UNK N   1       0.595  -3.778  -1.200  0.00  0.00     0.222 HD
ENDBRANCH   7   9
BRANCH   7  11
HETATM   11  O   UNK N   1      -2.120  -3.117   0.130  0.00  0.00    -0.307 OA
HETATM   12  H   UNK N   1      -2.992  -2.692   0.133  0.00  0.00     0.222 HD
ENDBRANCH   7  11
ENDBRANCH   1   7
TORSDOF 5
