REMARK  24 active torsions:
REMARK  status: ('A' for Active; 'I' for Inactive)
REMARK    1  A    between atoms: C_7  and  C_5 
REMARK    2  A    between atoms: C_12  and  C_5 
REMARK    3  A    between atoms: C_8  and  C_6 
REMARK    4  A    between atoms: C_11  and  C_6 
REMARK    5  A    between atoms: C_18  and  C_7 
REMARK    6  A    between atoms: C_21  and  C_8 
REMARK    7  A    between atoms: C_27  and  C_11 
REMARK    8  A    between atoms: C_29  and  C_12 
REMARK    9  A    between atoms: C_19  and  C_17 
REMARK   10  A    between atoms: C_26  and  C_17 
REMARK   11  A    between atoms: N_34  and  C_18 
REMARK   12  A    between atoms: N_37  and  C_19 
REMARK   13  A    between atoms: N_43  and  C_21 
REMARK   14  A    between atoms: C_28  and  C_23 
REMARK   15  A    between atoms: C_31  and  C_23 
REMARK   16  A    between atoms: C_30  and  C_24 
REMARK   17  A    between atoms: O_44  and  C_24 
REMARK   18  A    between atoms: C_32  and  C_29 
REMARK   19  A    between atoms: C_29  and  N_41 
REMARK   20  A    between atoms: C_33  and  C_30 
REMARK   21  A    between atoms: C_30  and  N_39 
REMARK   22  A    between atoms: C_31  and  O_45 
REMARK   23  A    between atoms: O_46  and  C_32 
REMARK   24  A    between atoms: C_33  and  O_47 
ROOT
HETATM    1  C   UNK N   1       5.284  -0.796  -0.337  0.00  0.00     0.181 C 
ENDROOT
BRANCH   1   2
HETATM    2  C   UNK N   1       5.883  -1.228   1.005  0.00  0.00     0.197 C 
BRANCH   2   3
HETATM    3  O   UNK N   1       6.129  -2.603   1.007  0.00  0.00    -0.398 OA
HETATM    4  H   UNK N   1       5.387  -3.228   1.008  0.00  0.00     0.209 HD
ENDBRANCH   2   3
ENDBRANCH   1   2
BRANCH   1   5
HETATM    5  C   UNK N   1       5.085   0.703  -0.454  0.00  0.00     0.137 C 
HETATM    6  N   UNK N   1       5.485   1.501   0.493  0.00  0.00    -0.361 N 
ATOM      7  HN  UNK N   1       5.930   1.058   1.296  1.00  0.00     0.162 HD
BRANCH   6   8
HETATM    8  C   UNK N   1       5.371   2.966   0.541  0.00  0.00     0.157 C 
BRANCH   8   9
HETATM    9  C   UNK N   1       4.295   3.550  -0.372  0.00  0.00     0.033 C 
BRANCH   9  10
HETATM   10  C   UNK N   1       2.923   3.139   0.119  0.00  0.00     0.004 C 
BRANCH  10  11
HETATM   11  C   UNK N   1       1.867   3.807  -0.721  0.00  0.00     0.019 C 
BRANCH  11  12
HETATM   12  C   UNK N   1       0.674   4.088   0.158  0.00  0.00     0.111 C 
BRANCH  12  13
HETATM   13  N   UNK N   1       0.549   5.520   0.355  0.00  0.00    -0.430 N 
HETATM   14  H   UNK N   1       1.377   6.100   0.493  0.00  0.00     0.149 HD
HETATM   15  H   UNK N   1      -0.375   5.952   0.355  0.00  0.00     0.149 HD
ENDBRANCH  12  13
ENDBRANCH  11  12
ENDBRANCH  10  11
ENDBRANCH   9  10
ENDBRANCH   8   9
BRANCH   8  16
HETATM   16  C   UNK N   1       6.688   3.659   0.279  0.00  0.00     0.134 C 
HETATM   17  N   UNK N   1       7.740   2.980  -0.014  0.00  0.00    -0.373 N 
ATOM     18  HN  UNK N   1       7.660   1.968  -0.115  1.00  0.00     0.161 HD
BRANCH  17  19
HETATM   19  C   UNK N   1       9.033   3.599  -0.205  0.00  0.00     0.121 C 
BRANCH  19  20
HETATM   20  C   UNK N   1      10.068   2.592  -0.714  0.00  0.00     0.024 C 
BRANCH  20  21
HETATM   21  C   UNK N   1      10.015   1.246   0.003  0.00  0.00    -0.013 C 
HETATM   22  C   UNK N   1      11.302   0.468  -0.260  0.00  0.00     0.005 C 
HETATM   23  C   UNK N   1      11.244  -0.901   0.420  0.00  0.00     0.000 C 
HETATM   24  C   UNK N   1      10.038  -1.693  -0.076  0.00  0.00     0.000 C 
HETATM   25  C   UNK N   1       8.765  -0.907   0.189  0.00  0.00     0.000 C 
HETATM   26  C   UNK N   1       8.830   0.435  -0.520  0.00  0.00     0.005 C 
ENDBRANCH  20  21
ENDBRANCH  19  20
ENDBRANCH  17  19
BRANCH  16  27
HETATM   27  O   UNK N   1       6.755   5.005   0.383  0.00  0.00    -0.348 OA
HETATM   28  H   UNK N   1       7.586   5.432   0.455  0.00  0.00     0.219 HD
ENDBRANCH  16  27
ENDBRANCH   8  16
ENDBRANCH   6   8
BRANCH   5  29
HETATM   29  O   UNK N   1       4.545   1.186  -1.593  0.00  0.00    -0.348 OA
HETATM   30  H   UNK N   1       4.648   1.678  -2.384  0.00  0.00     0.219 HD
ENDBRANCH   5  29
ENDBRANCH   1   5
BRANCH   1  31
HETATM   31  N   UNK N   1       4.058  -1.532  -0.611  0.00  0.00    -0.360 N 
HETATM   32  C   UNK N   1       3.034  -1.595   0.172  0.00  0.00     0.116 C 
ATOM     33  HN  UNK N   1       4.005  -2.041  -1.493  1.00  0.00     0.162 HD
BRANCH  32  34
HETATM   34  C   UNK N   1       1.862  -2.434  -0.236  0.00  0.00     0.122 C 
BRANCH  34  35
HETATM   35  C   UNK N   1       0.579  -1.676  -0.173  0.00  0.00    -0.051 A 
HETATM   36  C   UNK N   1      -0.457  -2.150   0.638  0.00  0.00     0.008 A 
HETATM   37  C   UNK N   1      -1.663  -1.448   0.716  0.00  0.00     0.007 A 
HETATM   38  C   UNK N   1      -1.838  -0.269  -0.015  0.00  0.00    -0.058 A 
HETATM   39  C   UNK N   1      -0.803   0.197  -0.839  0.00  0.00     0.007 A 
HETATM   40  C   UNK N   1       0.403  -0.503  -0.917  0.00  0.00     0.008 A 
BRANCH  38  41
HETATM   41  C   UNK N   1      -3.136   0.468   0.076  0.00  0.00     0.038 C 
BRANCH  41  42
HETATM   42  C   UNK N   1      -2.941   1.911   0.517  0.00  0.00     0.006 C 
BRANCH  42  43
HETATM   43  C   UNK N   1      -2.690   2.766  -0.712  0.00  0.00     0.021 C 
BRANCH  43  44
HETATM   44  C   UNK N   1      -2.329   4.195  -0.336  0.00  0.00     0.130 C 
BRANCH  44  45
HETATM   45  N   UNK N   1      -3.496   5.052  -0.132  0.00  0.00    -0.346 N 
HETATM   46  C   UNK N   1      -4.791   4.694  -0.119  0.00  0.00     0.109 A 
HETATM   47  C   UNK N   1      -5.542   5.839   0.093  0.00  0.00     0.106 A 
HETATM   48  N   UNK N   1      -4.704   6.892   0.206  0.00  0.00    -0.355 N 
HETATM   49  C   UNK N   1      -3.467   6.381   0.066  0.00  0.00     0.079 A 
ATOM     50  HN  UNK N   1      -4.956   7.867   0.364  1.00  0.00     0.166 HD
HETATM   51  C   UNK N   1      -2.229   7.207   0.110  0.00  0.00     0.089 C 
ENDBRANCH  44  45
ENDBRANCH  43  44
ENDBRANCH  42  43
ENDBRANCH  41  42
ENDBRANCH  38  41
ENDBRANCH  34  35
ENDBRANCH  32  34
BRANCH  32  52
HETATM   52  O   UNK N   1       3.026  -0.962   1.364  0.00  0.00    -0.349 OA
HETATM   53  H   UNK N   1       3.404  -0.737   2.192  0.00  0.00     0.219 HD
ENDBRANCH  32  52
ENDBRANCH   1  31
TORSDOF 24
