REMARK  1 active torsions:
REMARK  status: ('A' for Active; 'I' for Inactive)
REMARK    1  A    between atoms: O_15  and  C_3 
ROOT
HETATM    1  C   UNK N   1       0.542  -0.111   0.000  0.00  0.00     0.131 A 
HETATM    2  C   UNK N   1       0.614  -1.457  -0.000  0.00  0.00     0.154 A 
HETATM    3  C   UNK N   1       1.697   0.649   0.000  0.00  0.00     0.186 A 
HETATM    4  C   UNK N   1      -1.429  -0.897  -0.000  0.00  0.00     0.150 A 
HETATM    5  C   UNK N   1       2.948  -1.382  -0.000  0.00  0.00     0.679 A 
HETATM    6  I   UNK N   1      -3.529  -1.004  -0.000  0.00  0.00    -0.003 I 
HETATM    7  N   UNK N   1       4.081  -1.973  -0.000  0.00  0.00    -0.234 N 
ATOM      8  HN  UNK N   1       4.942  -1.426  -0.000  1.00  0.00     0.174 HD
HETATM    9  N   UNK N   1      -0.741   0.275   0.000  0.00  0.00    -0.331 N 
ATOM     10  HN  UNK N   1      -1.114   1.225   0.000  1.00  0.00     0.168 HD
HETATM   11  N   UNK N   1      -0.616  -1.987  -0.000  0.00  0.00    -0.321 N 
HETATM   12  N   UNK N   1       1.794  -2.121  -0.000  0.00  0.00    -0.174 N 
HETATM   13  N   UNK N   1       2.895  -0.008   0.000  0.00  0.00    -0.168 N 
ATOM     14  HN  UNK N   1       3.762   0.529   0.000  1.00  0.00     0.186 HD
HETATM   15  H   UNK N   1       4.123  -2.957  -0.000  0.00  0.00     0.174 HD
HETATM   16  H   UNK N   1      -0.870  -2.939  -0.000  0.00  0.00     0.169 HD
HETATM   17  H   UNK N   1       1.822  -3.105  -0.000  0.00  0.00     0.186 HD
ENDROOT
BRANCH   3  18
HETATM   18  O   UNK N   1       1.648   1.991   0.000  0.00  0.00    -0.344 OA
HETATM   19  H   UNK N   1       2.442   2.489   0.000  0.00  0.00     0.219 HD
ENDBRANCH   3  18
TORSDOF 1
