REMARK  6 active torsions:
REMARK  status: ('A' for Active; 'I' for Inactive)
REMARK    1  A    between atoms: C_1  and  O_7 
REMARK    2  A    between atoms: C_2  and  O_8 
REMARK    3  A    between atoms: C_3  and  O_9 
REMARK    4  A    between atoms: C_4  and  C_5 
REMARK    5  A    between atoms: O_11  and  C_5 
REMARK    6  A    between atoms: C_6  and  O_12 
ROOT
HETATM    1  C   UNK N   1       2.001   0.893   0.649  0.00  0.00     0.183 C 
HETATM    2  C   UNK N   1       0.838   1.638  -0.022  0.00  0.00     0.189 C 
HETATM    3  C   UNK N   1       2.178  -0.482  -0.008  0.00  0.00     0.204 C 
HETATM    4  C   UNK N   1      -0.418   0.741   0.074  0.00  0.00     0.253 C 
HETATM    5  C   UNK N   1       0.832  -1.233   0.030  0.00  0.00     0.289 C 
HETATM    6  O   UNK N   1      -0.188  -0.484  -0.611  0.00  0.00    -0.340 OA
ENDROOT
BRANCH   4   7
HETATM    7  C   UNK N   1      -1.650   1.386  -0.510  0.00  0.00     0.172 C 
HETATM    8  O   UNK N   1      -2.723   0.808  -0.439  0.00  0.00    -0.648 OA
BRANCH   7   9
HETATM    9  O   UNK N   1      -1.590   2.597  -1.099  0.00  0.00    -0.774 OA
HETATM   10  H   UNK N   1      -0.839   2.982  -1.509  0.00  0.00     0.167 HD
ENDBRANCH   7   9
ENDBRANCH   4   7
BRANCH   2  11
HETATM   11  O   UNK N   1       0.625   2.855   0.632  0.00  0.00    -0.390 OA
HETATM   12  H   UNK N   1       1.283   3.405   1.085  0.00  0.00     0.210 HD
ENDBRANCH   2  11
BRANCH   1  13
HETATM   13  O   UNK N   1       3.181   1.635   0.554  0.00  0.00    -0.390 OA
HETATM   14  H   UNK N   1       4.036   1.183   0.488  0.00  0.00     0.210 HD
ENDBRANCH   1  13
BRANCH   5  15
HETATM   15  O   UNK N   1       0.973  -2.456  -0.628  0.00  0.00    -0.368 OA
HETATM   16  H   UNK N   1       0.286  -2.966  -1.086  0.00  0.00     0.212 HD
ENDBRANCH   5  15
BRANCH   3  17
HETATM   17  O   UNK N   1       2.597  -0.327  -1.333  0.00  0.00    -0.388 OA
HETATM   18  H   UNK N   1       2.835  -0.524  -2.253  0.00  0.00     0.210 HD
ENDBRANCH   3  17
TORSDOF 6
