REMARK  11 active torsions:
REMARK  status: ('A' for Active; 'I' for Inactive)
REMARK       I    between atoms: C_10  and  N_14 
REMARK    1  A    between atoms: C_11  and  C_15 
REMARK    2  A    between atoms: C_15  and  N_16 
REMARK    3  A    between atoms: N_16  and  C_17 
REMARK    4  A    between atoms: C_22  and  C_23 
REMARK       I    between atoms: C_23  and  N_24 
REMARK    5  A    between atoms: N_24  and  C_26 
REMARK    6  A    between atoms: C_26  and  C_27 
REMARK    7  A    between atoms: C_26  and  C_28 
REMARK    8  A    between atoms: C_27  and  C_29 
REMARK    9  A    between atoms: C_28  and  O_30 
REMARK   10  A    between atoms: C_29  and  C_32 
REMARK   11  A    between atoms: C_32  and  O_33 
ROOT
HETATM    1  C   UNK N   1       0.036  -1.127   0.172  0.00  0.00     0.028 A 
HETATM    2  C   UNK N   1      -0.434   0.200   0.151  0.00  0.00     0.030 A 
HETATM    3  C   UNK N   1       1.400  -1.376   0.040  0.00  0.00     0.030 A 
HETATM    4  C   UNK N   1       0.463   1.264  -0.028  0.00  0.00     0.019 A 
HETATM    5  C   UNK N   1       2.294  -0.318  -0.108  0.00  0.00     0.019 A 
HETATM    6  C   UNK N   1       1.838   1.008  -0.149  0.00  0.00     0.032 A 
ENDROOT
BRANCH   1   7
HETATM    7  N   UNK N   1      -0.843  -2.215   0.387  0.00  0.00    -0.385 N 
HETATM    8  H   UNK N   1      -0.688  -3.071  -0.074  0.00  0.00     0.160 HD
BRANCH   7   9
HETATM    9  C   UNK N   1      -1.960  -2.071   1.279  0.00  0.00     0.174 C 
BRANCH   9  10
HETATM   10  C   UNK N   1      -3.283  -2.247   0.622  0.00  0.00     0.022 A 
HETATM   11  N   UNK N   1      -4.073  -1.228   0.596  0.00  0.00    -0.353 N 
HETATM   12  C   UNK N   1      -5.422  -1.315   0.187  0.00  0.00     0.146 A 
ATOM     13  HN  UNK N   1      -3.708  -0.320   0.882  1.00  0.00     0.166 HD
HETATM   14  C   UNK N   1      -5.967  -2.544  -0.170  0.00  0.00     0.149 A 
HETATM   15  C   UNK N   1      -6.246  -0.190   0.189  0.00  0.00     0.290 A 
HETATM   16  N   UNK N   1      -5.141  -3.693  -0.179  0.00  0.00    -0.368 N 
HETATM   17  N   UNK N   1      -7.286  -2.637  -0.487  0.00  0.00    -0.175 N 
HETATM   18  C   UNK N   1      -3.738  -3.633   0.197  0.00  0.00     0.175 A 
HETATM   19  H   UNK N   1      -5.528  -4.557  -0.447  0.00  0.00     0.161 HD
HETATM   20  C   UNK N   1      -8.086  -1.536  -0.464  0.00  0.00     0.680 A 
ATOM     21  HN  UNK N   1      -7.680  -3.542  -0.744  1.00  0.00     0.186 HD
HETATM   22  N   UNK N   1      -9.456  -1.656  -0.764  0.00  0.00    -0.234 N 
HETATM   23  N   UNK N   1      -7.569  -0.321  -0.138  0.00  0.00    -0.154 N 
HETATM   24  H   UNK N   1     -10.008  -0.868  -0.973  0.00  0.00     0.174 HD
HETATM   25  H   UNK N   1      -9.873  -2.548  -0.764  0.00  0.00     0.174 HD
HETATM   26  H   UNK N   1      -8.152   0.472  -0.136  0.00  0.00     0.187 HD
HETATM   27  O   UNK N   1      -5.800   0.903   0.495  0.00  0.00    -0.265 OA
ENDBRANCH   9  10
ENDBRANCH   7   9
ENDBRANCH   1   7
BRANCH   6  28
HETATM   28  C   UNK N   1       2.820   2.092  -0.378  0.00  0.00     0.252 C 
HETATM   29  N   UNK N   1       4.135   1.762  -0.454  0.00  0.00    -0.343 N 
HETATM   30  H   UNK N   1       4.361   0.829  -0.237  0.00  0.00     0.163 HD
HETATM   31  O   UNK N   1       2.447   3.243  -0.555  0.00  0.00    -0.268 OA
BRANCH  29  32
HETATM   32  C   UNK N   1       5.245   2.622  -0.816  0.00  0.00     0.183 C 
BRANCH  32  33
HETATM   33  C   UNK N   1       6.485   1.729  -0.971  0.00  0.00     0.046 C 
BRANCH  33  34
HETATM   34  C   UNK N   1       6.713   0.880   0.279  0.00  0.00     0.112 C 
BRANCH  34  35
HETATM   35  C   UNK N   1       7.691  -0.211   0.014  0.00  0.00     0.139 C 
HETATM   36  O   UNK N   1       7.293  -1.345  -0.194  0.00  0.00    -0.650 OA
BRANCH  35  37
HETATM   37  O   UNK N   1       9.013   0.042   0.043  0.00  0.00    -0.776 OA
HETATM   38  H   UNK N   1       9.625  -0.666   0.064  0.00  0.00     0.167 HD
ENDBRANCH  35  37
ENDBRANCH  34  35
ENDBRANCH  33  34
ENDBRANCH  32  33
BRANCH  32  39
HETATM   39  C   UNK N   1       5.488   3.764   0.151  0.00  0.00     0.163 C 
HETATM   40  O   UNK N   1       6.576   3.898   0.693  0.00  0.00    -0.648 OA
BRANCH  39  41
HETATM   41  O   UNK N   1       4.535   4.690   0.360  0.00  0.00    -0.775 OA
HETATM   42  H   UNK N   1       4.761   5.587   0.505  0.00  0.00     0.167 HD
ENDBRANCH  39  41
ENDBRANCH  32  39
ENDBRANCH  29  32
ENDBRANCH   6  28
TORSDOF 11
