REMARK  9 active torsions:
REMARK  status: ('A' for Active; 'I' for Inactive)
REMARK    1  A    between atoms: O_1  and  C_2 
REMARK    2  A    between atoms: C_3  and  C_2 
REMARK    3  A    between atoms: C_5  and  O_6 
REMARK    4  A    between atoms: O_6  and  P_7 
REMARK    5  A    between atoms: P_7  and  O_8 
REMARK    6  A    between atoms: P_7  and  O_9 
REMARK    7  A    between atoms: C_11  and  O_12 
REMARK    8  A    between atoms: C_13  and  O_14 
REMARK    9  A    between atoms: C_15  and  O_16 
ROOT
HETATM    1  C   UNK N   1       1.657   1.472   0.080  0.00  0.00     0.179 C 
HETATM    2  O   UNK N   1       1.617   0.250  -0.606  0.00  0.00    -0.348 OA
HETATM    3  C   UNK N   1       0.666  -0.560   0.042  0.00  0.00     0.303 C 
HETATM    4  C   UNK N   1      -0.736  -0.015  -0.264  0.00  0.00     0.205 C 
HETATM    5  C   UNK N   1      -0.821   1.429   0.237  0.00  0.00     0.183 C 
HETATM    6  C   UNK N   1       0.374   2.252  -0.252  0.00  0.00     0.180 C 
ENDROOT
BRANCH   3   7
HETATM    7  O   UNK N   1       0.794  -1.873  -0.431  0.00  0.00    -0.263 OA
BRANCH   7   8
HETATM    8  P   UNK N   1       1.881  -2.675   0.672  0.00  0.00     0.393 P 
HETATM    9  O   UNK N   1       2.862  -2.262  -0.460  0.00  0.00    -0.631 OA
BRANCH   8  10
HETATM   10  O   UNK N   1       2.654  -4.170   0.247  0.00  0.00    -0.307 OA
HETATM   11  H   UNK N   1       2.147  -4.962   0.010  0.00  0.00     0.222 HD
ENDBRANCH   8  10
BRANCH   8  12
HETATM   12  O   UNK N   1       0.735  -3.814   0.038  0.00  0.00    -0.307 OA
HETATM   13  H   UNK N   1      -0.137  -3.578  -0.317  0.00  0.00     0.222 HD
ENDBRANCH   8  12
ENDBRANCH   7   8
ENDBRANCH   3   7
BRANCH   4  14
HETATM   14  O   UNK N   1      -1.707  -0.790   0.373  0.00  0.00    -0.388 OA
HETATM   15  H   UNK N   1      -2.511  -0.475   0.815  0.00  0.00     0.210 HD
ENDBRANCH   4  14
BRANCH   1  16
HETATM   16  C   UNK N   1       2.910   2.220  -0.352  0.00  0.00     0.198 C 
BRANCH  16  17
HETATM   17  O   UNK N   1       3.138   3.315   0.481  0.00  0.00    -0.398 OA
HETATM   18  H   UNK N   1       3.877   3.558   1.060  0.00  0.00     0.209 HD
ENDBRANCH  16  17
ENDBRANCH   1  16
BRANCH   5  19
HETATM   19  O   UNK N   1      -2.013   2.017  -0.187  0.00  0.00    -0.390 OA
HETATM   20  H   UNK N   1      -2.074   2.940  -0.482  0.00  0.00     0.210 HD
ENDBRANCH   5  19
BRANCH   6  21
HETATM   21  O   UNK N   1       0.368   3.496   0.381  0.00  0.00    -0.390 OA
HETATM   22  H   UNK N   1       1.114   3.932   0.821  0.00  0.00     0.210 HD
ENDBRANCH   6  21
TORSDOF 9
