REMARK  3 active torsions:
REMARK  status: ('A' for Active; 'I' for Inactive)
REMARK    1  A    between atoms: C_2  and  C_3 
REMARK    2  A    between atoms: C_3  and  C_4 
REMARK    3  A    between atoms: C_4  and  O_5 
ROOT
HETATM    1  C   UNK N   1       1.188  -0.811   0.000  0.00  0.00     0.026 C 
ENDROOT
BRANCH   1   2
HETATM    2  C   UNK N   1       2.701  -0.775   0.000  0.00  0.00    -0.002 C 
HETATM    3  C   UNK N   1       3.248  -2.185  -0.000  0.00  0.00     0.005 C 
ENDBRANCH   1   2
BRANCH   1   4
HETATM    4  C   UNK N   1       0.669   0.611  -0.000  0.00  0.00     0.164 C 
BRANCH   4   5
HETATM    5  O   UNK N   1      -0.723   0.603   0.000  0.00  0.00    -0.401 OA
HETATM    6  H   UNK N   1      -1.212   1.441   0.000  0.00  0.00     0.209 HD
ENDBRANCH   4   5
ENDBRANCH   1   4
TORSDOF 3
