REMARK  4 active torsions:
REMARK  status: ('A' for Active; 'I' for Inactive)
REMARK    1  A    between atoms: C_7  and  C_4 
REMARK    2  A    between atoms: C_5  and  O_9 
REMARK    3  A    between atoms: C_6  and  N_8 
REMARK    4  A    between atoms: O_10  and  C_7 
ROOT
HETATM    1  C   UNK N   1       0.847  -1.239  -0.451  0.00  0.00    -0.001 C 
HETATM    2  C   UNK N   1       1.918  -0.342   0.041  0.00  0.00     0.016 C 
HETATM    3  C   UNK N   1      -0.398  -0.779  -0.630  0.00  0.00     0.007 C 
HETATM    4  C   UNK N   1       1.732   0.993   0.128  0.00  0.00     0.040 C 
HETATM    5  C   UNK N   1      -0.768   0.593  -0.142  0.00  0.00     0.168 C 
HETATM    6  C   UNK N   1       0.400   1.591  -0.321  0.00  0.00     0.147 C 
ENDROOT
BRANCH   4   7
HETATM    7  C   UNK N   1       2.906   1.856   0.437  0.00  0.00     0.174 C 
HETATM    8  O   UNK N   1       3.992   1.357   0.682  0.00  0.00    -0.646 OA
BRANCH   7   9
HETATM    9  O   UNK N   1       2.791   3.199   0.415  0.00  0.00    -0.773 OA
HETATM   10  H   UNK N   1       3.559   3.735   0.400  0.00  0.00     0.167 HD
ENDBRANCH   7   9
ENDBRANCH   4   7
BRANCH   6  11
HETATM   11  N   UNK N   1       0.090   2.812   0.411  0.00  0.00    -0.420 N 
HETATM   12  H   UNK N   1       0.722   3.427   0.924  0.00  0.00     0.150 HD
HETATM   13  H   UNK N   1      -0.892   3.089   0.411  0.00  0.00     0.150 HD
ENDBRANCH   6  11
BRANCH   5  14
HETATM   14  O   UNK N   1      -1.096   0.485   1.212  0.00  0.00    -0.389 OA
HETATM   15  H   UNK N   1      -1.274   0.645   2.152  0.00  0.00     0.210 HD
ENDBRANCH   5  14
TORSDOF 4
