REMARK  5 active torsions:
REMARK  status: ('A' for Active; 'I' for Inactive)
REMARK    1  A    between atoms: C_22  and  C_21 
REMARK    2  A    between atoms: C_23  and  O_33 
REMARK    3  A    between atoms: C_24  and  O_34 
REMARK    4  A    between atoms: C_25  and  O_30 
REMARK    5  A    between atoms: C_27  and  O_35 
ROOT
HETATM    1  C   UNK N   1       1.609   5.499   0.584  0.00  0.00     0.017 C 
HETATM    2  C   UNK N   1      -0.598   3.488   0.538  0.00  0.00     0.015 C 
HETATM    3  C   UNK N   1       3.794   0.212  -2.422  0.00  0.00     0.026 C 
HETATM    4  C   UNK N   1       7.217   0.419   1.874  0.00  0.00     0.003 C 
HETATM    5  C   UNK N   1       6.593   1.719   1.396  0.00  0.00     0.003 C 
HETATM    6  C   UNK N   1       6.212  -0.711   1.719  0.00  0.00     0.037 C 
HETATM    7  C   UNK N   1       7.224   2.163   0.081  0.00  0.00     0.035 C 
HETATM    8  C   UNK N   1       3.695   4.751  -0.540  0.00  0.00    -0.021 C 
HETATM    9  C   UNK N   1       4.758   4.104  -0.019  0.00  0.00     0.004 C 
HETATM   10  C   UNK N   1       2.234   4.427  -0.296  0.00  0.00     0.033 C 
HETATM   11  C   UNK N   1       0.409   2.630  -0.220  0.00  0.00     0.043 C 
HETATM   12  C   UNK N   1       3.815   0.015  -0.912  0.00  0.00     0.146 C 
HETATM   13  C   UNK N   1       6.253  -1.346   0.328  0.00  0.00     0.165 C 
HETATM   14  C   UNK N   1       7.391   3.686   0.001  0.00  0.00     0.153 C 
HETATM   15  C   UNK N   1       6.151   4.460  -0.542  0.00  0.00     0.172 C 
HETATM   16  C   UNK N   1       0.117   1.148   0.040  0.00  0.00     0.158 C 
HETATM   17  C   UNK N   1       1.889   2.974   0.147  0.00  0.00     0.138 C 
HETATM   18  C   UNK N   1       1.185   0.266  -0.653  0.00  0.00     0.212 C 
HETATM   19  C   UNK N   1       3.977  -1.470  -0.598  0.00  0.00     0.268 C 
HETATM   20  C   UNK N   1       2.616   0.731  -0.219  0.00  0.00     0.203 C 
HETATM   21  O   UNK N   1       3.137  -2.258  -0.994  0.00  0.00    -0.265 OA
HETATM   22  O   UNK N   1       2.786   0.572   1.166  0.00  0.00    -0.362 OA
HETATM   23  O   UNK N   1       5.036  -1.966   0.103  0.00  0.00    -0.311 OA
HETATM   24  O   UNK N   1       2.749   2.104  -0.573  0.00  0.00    -0.346 OA
HETATM   25  H   UNK N   1       2.749   0.415   2.123  0.00  0.00     0.213 HD
ENDROOT
BRANCH  18  26
HETATM   26  O   UNK N   1       0.918  -1.118  -0.495  0.00  0.00    -0.383 OA
HETATM   27  C   UNK N   1       0.875  -1.480   0.862  0.00  0.00     0.202 C 
ENDBRANCH  18  26
BRANCH  16  28
HETATM   28  O   UNK N   1      -1.153   0.817  -0.446  0.00  0.00    -0.392 OA
HETATM   29  H   UNK N   1      -1.792   1.465  -0.782  0.00  0.00     0.210 HD
ENDBRANCH  16  28
BRANCH  13  30
HETATM   30  C   UNK N   1       7.368  -2.362   0.219  0.00  0.00    -0.029 A 
HETATM   31  C   UNK N   1       8.706  -1.964   0.368  0.00  0.00     0.010 A 
HETATM   32  C   UNK N   1       9.738  -2.900   0.247  0.00  0.00     0.001 A 
HETATM   33  C   UNK N   1       9.443  -4.238  -0.026  0.00  0.00     0.000 A 
HETATM   34  C   UNK N   1       8.116  -4.644  -0.178  0.00  0.00     0.001 A 
HETATM   35  C   UNK N   1       7.083  -3.711  -0.058  0.00  0.00     0.010 A 
ENDBRANCH  13  30
BRANCH  15  36
HETATM   36  O   UNK N   1       6.398   5.858  -0.565  0.00  0.00    -0.384 OA
HETATM   37  C   UNK N   1       6.198   6.411   0.713  0.00  0.00     0.202 C 
ENDBRANCH  15  36
BRANCH  14  38
HETATM   38  O   UNK N   1       7.806   4.181   1.263  0.00  0.00    -0.388 OA
HETATM   39  C   UNK N   1       9.050   4.823   1.129  0.00  0.00     0.202 C 
ENDBRANCH  14  38
TORSDOF 5
