REMARK  9 active torsions:
REMARK  status: ('A' for Active; 'I' for Inactive)
REMARK    1  A    between atoms: C_3  and  C_2 
REMARK    2  A    between atoms: C_4  and  C_2 
REMARK    3  A    between atoms: C_5  and  C_3 
REMARK    4  A    between atoms: C_6  and  C_4 
REMARK    5  A    between atoms: C_8  and  C_5 
REMARK    6  A    between atoms: C_9  and  C_6 
REMARK    7  A    between atoms: C_8  and  C_7 
REMARK    8  A    between atoms: C_7  and  N_10 
REMARK    9  A    between atoms: O_13  and  C_9 
ROOT
HETATM    1  C   UNK N   1       4.888   3.243  -1.000  0.00  0.00     0.007 C 
ENDROOT
BRANCH   1   2
HETATM    2  C   UNK N   1       6.117   4.077  -0.684  0.00  0.00     0.001 C 
BRANCH   2   3
HETATM    3  C   UNK N   1       7.392   3.288  -0.916  0.00  0.00     0.010 C 
BRANCH   3   4
HETATM    4  C   UNK N   1       7.750   2.473   0.314  0.00  0.00     0.110 C 
BRANCH   4   5
HETATM    5  C   UNK N   1       9.089   1.844   0.128  0.00  0.00     0.139 C 
HETATM    6  O   UNK N   1      10.081   2.542  -0.000  0.00  0.00    -0.650 OA
BRANCH   5   7
HETATM    7  O   UNK N   1       9.203   0.504   0.105  0.00  0.00    -0.776 OA
HETATM    8  H   UNK N   1       8.434  -0.032   0.089  0.00  0.00     0.167 HD
ENDBRANCH   5   7
ENDBRANCH   4   5
ENDBRANCH   3   4
ENDBRANCH   2   3
ENDBRANCH   1   2
BRANCH   1   9
HETATM    9  C   UNK N   1       4.587   2.289   0.142  0.00  0.00     0.080 C 
BRANCH   9  10
HETATM   10  C   UNK N   1       3.209   1.716   0.011  0.00  0.00     0.148 C 
HETATM   11  O   UNK N   1       3.085   0.510  -0.140  0.00  0.00    -0.296 OA
BRANCH  10  12
HETATM   12  C   UNK N   1       1.976   2.583   0.103  0.00  0.00     0.140 C 
HETATM   13  C   UNK N   1       1.151   2.452  -1.163  0.00  0.00     0.039 C 
BRANCH  12  14
HETATM   14  N   UNK N   1       2.315   3.984   0.302  0.00  0.00    -0.420 N 
HETATM   15  H   UNK N   1       3.284   4.269   0.441  0.00  0.00     0.150 HD
HETATM   16  H   UNK N   1       1.576   4.688   0.302  0.00  0.00     0.150 HD
ENDBRANCH  12  14
ENDBRANCH  10  12
ENDBRANCH   9  10
ENDBRANCH   1   9
TORSDOF 9
