REMARK  7 active torsions:
REMARK  status: ('A' for Active; 'I' for Inactive)
REMARK    1  A    between atoms: C_2  and  O_1 
REMARK    2  A    between atoms: C_2  and  C_3 
REMARK    3  A    between atoms: C_2  and  C_5 
REMARK    4  A    between atoms: C_3  and  S_4 
REMARK    5  A    between atoms: C_5  and  O_6 
REMARK    6  A    between atoms: C_5  and  C_7 
REMARK    7  A    between atoms: C_7  and  S_8 
ROOT
HETATM    1  C   UNK N   1       1.138   0.297   0.000  0.00  0.00     0.156 C 
ENDROOT
BRANCH   1   2
HETATM    2  O   UNK N   1       1.747  -0.957  -0.000  0.00  0.00    -0.392 OA
HETATM    3  H   UNK N   1       1.204  -1.760  -0.000  0.00  0.00     0.210 HD
ENDBRANCH   1   2
BRANCH   1   4
HETATM    4  C   UNK N   1      -0.397   0.244  -0.000  0.00  0.00     0.105 C 
BRANCH   4   5
HETATM    5  S   UNK N   1      -1.270   1.841   0.000  0.00  0.00    -0.180 SA
HETATM    6  H   UNK N   1      -0.562   3.003   0.000  0.00  0.00     0.101 HD
ENDBRANCH   4   5
ENDBRANCH   1   4
BRANCH   1   7
HETATM    7  C   UNK N   1       2.052   1.545   0.000  0.00  0.00     0.156 C 
BRANCH   7   8
HETATM    8  O   UNK N   1       1.442   2.798  -0.000  0.00  0.00    -0.392 OA
HETATM    9  H   UNK N   1       1.985   3.602  -0.000  0.00  0.00     0.210 HD
ENDBRANCH   7   8
BRANCH   7  10
HETATM   10  C   UNK N   1       3.586   1.598  -0.000  0.00  0.00     0.105 C 
BRANCH  10  11
HETATM   11  S   UNK N   1       4.459   0.000   0.000  0.00  0.00    -0.180 SA
HETATM   12  H   UNK N   1       3.752  -1.161   0.000  0.00  0.00     0.101 HD
ENDBRANCH  10  11
ENDBRANCH   7  10
ENDBRANCH   1   7
TORSDOF 7
