REMARK  7 active torsions:
REMARK  status: ('A' for Active; 'I' for Inactive)
REMARK    1  A    between atoms: C_2  and  N_1 
REMARK    2  A    between atoms: C_2  and  C_3 
REMARK    3  A    between atoms: C_2  and  C_8 
REMARK    4  A    between atoms: C_3  and  C_4 
REMARK    5  A    between atoms: C_4  and  C_5 
REMARK    6  A    between atoms: C_5  and  C_6 
REMARK    7  A    between atoms: C_8  and  O_9 
ROOT
HETATM    1  C   UNK N   1       5.005   2.057   0.345  0.00  0.00     0.173 C 
ENDROOT
BRANCH   1   2
HETATM    2  N   UNK N   1       4.982   3.407  -0.200  0.00  0.00    -0.418 N 
HETATM    3  H   UNK N   1       5.793   3.893  -0.582  0.00  0.00     0.150 HD
HETATM    4  H   UNK N   1       4.090   3.902  -0.200  0.00  0.00     0.150 HD
ENDBRANCH   1   2
BRANCH   1   5
HETATM    5  C   UNK N   1       3.825   1.248  -0.193  0.00  0.00     0.036 C 
BRANCH   5   6
HETATM    6  C   UNK N   1       2.516   1.936   0.155  0.00  0.00     0.009 C 
BRANCH   6   7
HETATM    7  C   UNK N   1       1.342   1.017  -0.102  0.00  0.00     0.069 C 
BRANCH   7   8
HETATM    8  C   UNK N   1       0.080   1.791   0.071  0.00  0.00     0.231 C 
HETATM    9  O   UNK N   1      -1.000   1.235  -0.036  0.00  0.00    -0.307 OA
ENDBRANCH   7   8
ENDBRANCH   6   7
ENDBRANCH   5   6
ENDBRANCH   1   5
BRANCH   1  10
HETATM   10  C   UNK N   1       6.329   1.406   0.048  0.00  0.00     0.163 C 
HETATM   11  O   UNK N   1       6.419   0.190  -0.028  0.00  0.00    -0.648 OA
BRANCH  10  12
HETATM   12  O   UNK N   1       7.440   2.160  -0.060  0.00  0.00    -0.775 OA
HETATM   13  H   UNK N   1       8.281   1.753  -0.134  0.00  0.00     0.167 HD
ENDBRANCH  10  12
ENDBRANCH   1  10
TORSDOF 7
