REMARK  11 active torsions:
REMARK  status: ('A' for Active; 'I' for Inactive)
REMARK    1  A    between atoms: C_6  and  C_7 
REMARK    2  A    between atoms: C_7  and  O_8 
REMARK    3  A    between atoms: C_19  and  C_20 
REMARK    4  A    between atoms: C_20  and  C_21 
REMARK    5  A    between atoms: C_21  and  C_22 
REMARK    6  A    between atoms: C_22  and  O_23 
REMARK    7  A    between atoms: C_30  and  C_31 
REMARK    8  A    between atoms: C_37  and  C_38 
REMARK    9  A    between atoms: C_38  and  C_39 
REMARK   10  A    between atoms: C_39  and  C_40 
REMARK   11  A    between atoms: C_40  and  O_41 
ROOT
HETATM    1  C   UNK N   1      -5.519   2.040   0.070  0.00  0.00     0.047 C 
HETATM    2  C   UNK N   1      -4.440   1.008   0.067  0.00  0.00    -0.041 A 
HETATM    3  C   UNK N   1      -3.151   1.291   0.165  0.00  0.00     0.062 A 
HETATM    4  C   UNK N   1      -2.655   2.637   0.127  0.00  0.00     0.060 C 
HETATM    5  C   UNK N   1      -1.395   2.994   0.077  0.00  0.00     0.052 C 
HETATM    6  C   UNK N   1      -0.966   4.340  -0.368  0.00  0.00     0.124 C 
HETATM    7  C   UNK N   1       0.514   4.205  -0.293  0.00  0.00    -0.039 C 
HETATM    8  C   UNK N   1       1.504   5.263  -0.628  0.00  0.00     0.047 C 
HETATM    9  C   UNK N   1       0.823   2.936  -0.112  0.00  0.00     0.062 C 
HETATM   10  C   UNK N   1       2.162   2.456  -0.203  0.00  0.00     0.064 C 
HETATM   11  C   UNK N   1       2.457   1.190  -0.164  0.00  0.00     0.066 A 
HETATM   12  N   UNK N   1       1.582   0.154  -0.136  0.00  0.00    -0.248 N 
HETATM   13  C   UNK N   1       2.341  -0.942  -0.081  0.00  0.00     0.066 A 
HETATM   14  C   UNK N   1       1.945  -2.199  -0.056  0.00  0.00     0.064 C 
HETATM   15  C   UNK N   1       0.586  -2.629  -0.133  0.00  0.00     0.066 C 
HETATM   16  C   UNK N   1       0.136  -3.938  -0.026  0.00  0.00    -0.021 C 
HETATM   17  C   UNK N   1      -1.201  -3.906  -0.260  0.00  0.00    -0.025 C 
HETATM   18  C   UNK N   1      -2.129  -5.086  -0.291  0.00  0.00     0.051 C 
HETATM   19  C   UNK N   1      -1.535  -2.584  -0.361  0.00  0.00     0.066 C 
HETATM   20  C   UNK N   1      -2.891  -2.142  -0.451  0.00  0.00     0.060 C 
HETATM   21  C   UNK N   1      -3.246  -0.903  -0.198  0.00  0.00     0.049 A 
HETATM   22  C   UNK N   1      -4.664  -0.453  -0.219  0.00  0.00     0.090 A 
HETATM   23  N   UNK N   1      -2.370   0.171   0.023  0.00  0.00    -0.252 N 
HETATM   24 Fe   UNK N   1      -0.392   0.175  -0.056  0.00  0.00     0.000 Fe
HETATM   25  N   UNK N   1      -0.312   2.143   0.108  0.00  0.00    -0.252 N 
HETATM   26  N   UNK N   1      -0.450  -1.801  -0.220  0.00  0.00    -0.248 N 
HETATM   27  C   UNK N   1       3.641  -0.607  -0.010  0.00  0.00    -0.021 A 
HETATM   28  C   UNK N   1       3.745   0.742  -0.109  0.00  0.00    -0.025 A 
HETATM   29  C   UNK N   1       5.009   1.552  -0.134  0.00  0.00     0.051 C 
ENDROOT
BRANCH  16  30
HETATM   30  C   UNK N   1       0.847  -5.171   0.412  0.00  0.00     0.052 C 
BRANCH  30  31
HETATM   31  C   UNK N   1       2.201  -4.876   1.006  0.00  0.00     0.115 C 
BRANCH  31  32
HETATM   32  C   UNK N   1       3.171  -5.328  -0.006  0.00  0.00     0.139 C 
HETATM   33  O   UNK N   1       3.245  -6.512  -0.284  0.00  0.00    -0.650 OA
BRANCH  32  34
HETATM   34  O   UNK N   1       3.907  -4.431  -0.680  0.00  0.00    -0.776 OA
HETATM   35  H   UNK N   1       4.707  -4.562  -1.150  0.00  0.00     0.167 HD
ENDBRANCH  32  34
ENDBRANCH  31  32
ENDBRANCH  30  31
ENDBRANCH  16  30
BRANCH  27  36
HETATM   36  C   UNK N   1       4.662  -1.587   0.210  0.00  0.00     0.052 C 
BRANCH  36  37
HETATM   37  C   UNK N   1       5.571  -1.799  -0.927  0.00  0.00     0.115 C 
BRANCH  37  38
HETATM   38  C   UNK N   1       6.721  -2.154  -0.106  0.00  0.00     0.139 C 
HETATM   39  O   UNK N   1       7.439  -1.256   0.299  0.00  0.00    -0.650 OA
BRANCH  38  40
HETATM   40  O   UNK N   1       6.747  -3.360   0.500  0.00  0.00    -0.776 OA
HETATM   41  H   UNK N   1       6.031  -3.793   0.921  0.00  0.00     0.167 HD
ENDBRANCH  38  40
ENDBRANCH  37  38
ENDBRANCH  36  37
ENDBRANCH  27  36
BRANCH  22  42
HETATM   42  C   UNK N   1      -5.457  -1.098   0.851  0.00  0.00    -0.022 C 
HETATM   43  C   UNK N   1      -6.585  -1.724   0.543  0.00  0.00     0.008 C 
ENDBRANCH  22  42
BRANCH   6  44
HETATM   44  C   UNK N   1      -1.734   5.539  -0.005  0.00  0.00     0.048 C 
HETATM   45  C   UNK N   1      -2.997   5.631  -0.413  0.00  0.00     0.047 C 
BRANCH  44  46
HETATM   46  O   UNK N   1      -1.127   6.589   0.564  0.00  0.00    -0.365 OA
HETATM   47  H   UNK N   1      -0.279   6.589   0.962  0.00  0.00     0.217 HD
ENDBRANCH  44  46
ENDBRANCH   6  44
TORSDOF 11
