REMARK  10 active torsions:
REMARK  status: ('A' for Active; 'I' for Inactive)
REMARK    1  A    between atoms: C_3  and  C_1 
REMARK    2  A    between atoms: C_4  and  C_1 
REMARK    3  A    between atoms: C_5  and  C_2 
REMARK    4  A    between atoms: O_7  and  C_2 
REMARK    5  A    between atoms: C_5  and  C_3 
REMARK    6  A    between atoms: C_3  and  O_8 
REMARK    7  A    between atoms: C_6  and  C_4 
REMARK    8  A    between atoms: C_4  and  O_9 
REMARK    9  A    between atoms: C_5  and  O_10 
REMARK   10  A    between atoms: O_12  and  C_6 
ROOT
HETATM    1  C   UNK N   1       2.774   1.753   0.235  0.00  0.00     0.151 C 
ENDROOT
BRANCH   1   2
HETATM    2  C   UNK N   1       4.083   1.387  -0.482  0.00  0.00     0.077 C 
BRANCH   2   3
HETATM    3  C   UNK N   1       5.324   1.884   0.268  0.00  0.00     0.218 C 
BRANCH   3   4
HETATM    4  C   UNK N   1       6.566   1.246  -0.291  0.00  0.00     0.169 C 
HETATM    5  O   UNK N   1       7.474   1.932  -0.734  0.00  0.00    -0.648 OA
BRANCH   4   6
HETATM    6  O   UNK N   1       6.694  -0.096  -0.275  0.00  0.00    -0.774 OA
HETATM    7  H   UNK N   1       5.930  -0.639  -0.264  0.00  0.00     0.167 HD
ENDBRANCH   4   6
ENDBRANCH   3   4
BRANCH   3   8
HETATM    8  O   UNK N   1       5.409   3.277   0.179  0.00  0.00    -0.385 OA
HETATM    9  H   UNK N   1       6.275   3.709   0.118  0.00  0.00     0.210 HD
ENDBRANCH   3   8
ENDBRANCH   2   3
ENDBRANCH   1   2
BRANCH   1  10
HETATM   10  C   UNK N   1       1.570   1.058  -0.426  0.00  0.00     0.170 C 
BRANCH  10  11
HETATM   11  C   UNK N   1       0.276   1.302   0.350  0.00  0.00     0.198 C 
BRANCH  11  12
HETATM   12  O   UNK N   1      -0.127   2.635   0.260  0.00  0.00    -0.398 OA
HETATM   13  H   UNK N   1       0.535   3.341   0.198  0.00  0.00     0.209 HD
ENDBRANCH  11  12
ENDBRANCH  10  11
BRANCH  10  14
HETATM   14  O   UNK N   1       1.792  -0.321  -0.460  0.00  0.00    -0.391 OA
HETATM   15  H   UNK N   1       1.039  -0.933  -0.483  0.00  0.00     0.210 HD
ENDBRANCH  10  14
ENDBRANCH   1  10
BRANCH   1  16
HETATM   16  O   UNK N   1       2.600   3.139   0.219  0.00  0.00    -0.393 OA
HETATM   17  H   UNK N   1       3.373   3.725   0.208  0.00  0.00     0.210 HD
ENDBRANCH   1  16
TORSDOF 10
