REMARK  5 active torsions:
REMARK  status: ('A' for Active; 'I' for Inactive)
REMARK    1  A    between atoms: C_5  and  C_3 
REMARK    2  A    between atoms: N_6  and  C_3 
REMARK    3  A    between atoms: C_5  and  C_4 
REMARK    4  A    between atoms: C_4  and  O_7 
REMARK    5  A    between atoms: C_5  and  O_8 
ROOT
HETATM    1  C   UNK N   1       2.422  -0.231  -0.928  0.00  0.00     0.050 C 
HETATM    2  C   UNK N   1       1.039  -0.133  -0.296  0.00  0.00     0.095 C 
ENDROOT
BRANCH   2   3
HETATM    3  C   UNK N   1       0.950  -1.123   0.870  0.00  0.00     0.150 C 
BRANCH   3   4
HETATM    4  N   UNK N   1       1.133  -2.493   0.414  0.00  0.00    -0.427 N 
HETATM    5  H   UNK N   1       0.366  -3.084   0.094  0.00  0.00     0.150 HD
HETATM    6  H   UNK N   1       2.076  -2.882   0.414  0.00  0.00     0.150 HD
ENDBRANCH   3   4
ENDBRANCH   2   3
BRANCH   2   7
HETATM    7  C   UNK N   1       0.805   1.302   0.217  0.00  0.00     0.149 C 
HETATM    8  C   UNK N   1      -0.599   1.472   0.780  0.00  0.00     0.042 C 
BRANCH   7   9
HETATM    9  O   UNK N   1       0.980   2.222  -0.821  0.00  0.00    -0.393 OA
HETATM   10  H   UNK N   1       1.594   2.436  -1.541  0.00  0.00     0.210 HD
ENDBRANCH   7   9
ENDBRANCH   2   7
BRANCH   2  11
HETATM   11  O   UNK N   1       0.078  -0.455  -1.258  0.00  0.00    -0.386 OA
HETATM   12  H   UNK N   1      -0.449   0.010  -1.926  0.00  0.00     0.210 HD
ENDBRANCH   2  11
TORSDOF 5
