REMARK  7 active torsions:
REMARK  status: ('A' for Active; 'I' for Inactive)
REMARK    1  A    between atoms: C_2  and  N_5 
REMARK    2  A    between atoms: C_8  and  O_11 
REMARK    3  A    between atoms: O_11  and  C_12 
REMARK    4  A    between atoms: N_18  and  C_19 
REMARK    5  A    between atoms: C_19  and  C_20 
REMARK    6  A    between atoms: C_26  and  C_30 
REMARK    7  A    between atoms: C_30  and  N_31 
ROOT
HETATM    1  C   UNK N   1       4.865   0.336  -0.143  0.00  0.00     0.071 A 
HETATM    2  C   UNK N   1       4.769  -0.993  -0.644  0.00  0.00     0.038 A 
HETATM    3  C   UNK N   1       3.515  -1.621  -0.785  0.00  0.00     0.017 A 
HETATM    4  C   UNK N   1       2.385  -0.901  -0.400  0.00  0.00     0.003 A 
HETATM    5  C   UNK N   1       2.472   0.392   0.069  0.00  0.00     0.049 A 
HETATM    6  C   UNK N   1       3.695   1.040   0.198  0.00  0.00     0.067 A 
HETATM    7  N   UNK N   1       1.252   0.849   0.442  0.00  0.00    -0.341 N 
HETATM    8  C   UNK N   1       0.390  -0.171   0.212  0.00  0.00     0.046 A 
HETATM    9  C   UNK N   1       1.059  -1.260  -0.317  0.00  0.00     0.003 A 
HETATM   10  C   UNK N   1       0.411  -2.459  -0.600  0.00  0.00     0.014 A 
HETATM   11  C   UNK N   1      -0.969  -2.535  -0.336  0.00  0.00     0.001 A 
HETATM   12  C   UNK N   1      -1.656  -1.428   0.213  0.00  0.00     0.002 A 
HETATM   13  C   UNK N   1      -0.973  -0.233   0.499  0.00  0.00     0.030 A 
ENDROOT
BRANCH   7  14
HETATM   14  C   UNK N   1       1.007   2.125   1.126  0.00  0.00     0.168 C 
BRANCH  14  15
HETATM   15  C   UNK N   1       0.036   3.085   0.499  0.00  0.00    -0.039 A 
HETATM   16  C   UNK N   1      -1.279   2.702   0.207  0.00  0.00     0.010 A 
HETATM   17  C   UNK N   1      -2.235   3.655  -0.158  0.00  0.00     0.013 A 
HETATM   18  C   UNK N   1      -1.893   5.008  -0.190  0.00  0.00    -0.026 A 
HETATM   19  C   UNK N   1      -2.863   5.972  -0.476  0.00  0.00     0.013 A 
HETATM   20  C   UNK N   1      -0.570   5.405   0.102  0.00  0.00    -0.025 A 
HETATM   21  C   UNK N   1      -2.527   7.329  -0.456  0.00  0.00     0.016 A 
HETATM   22  C   UNK N   1      -1.216   7.735  -0.164  0.00  0.00     0.008 A 
HETATM   23  C   UNK N   1      -0.237   6.763   0.108  0.00  0.00     0.027 A 
HETATM   24  C   UNK N   1       0.386   4.442   0.444  0.00  0.00     0.021 A 
BRANCH  22  25
HETATM   25  C   UNK N   1      -0.880   9.175  -0.117  0.00  0.00     0.102 C 
HETATM   26  N   UNK N   1       0.319   9.555   0.136  0.00  0.00    -0.385 N 
HETATM   27  H   UNK N   1       1.031   8.903   0.330  0.00  0.00     0.157 HD
ATOM     28  HN  UNK N   1       0.539  10.551   0.136  1.00  0.00     0.157 HD
BRANCH  25  29
HETATM   29  N   UNK N   1      -1.888  10.148  -0.312  0.00  0.00    -0.385 N 
HETATM   30  H   UNK N   1      -1.652  11.094  -0.448  0.00  0.00     0.157 HD
HETATM   31  H   UNK N   1      -2.834   9.876  -0.312  0.00  0.00     0.157 HD
ENDBRANCH  25  29
ENDBRANCH  22  25
ENDBRANCH  14  15
ENDBRANCH   7  14
BRANCH   1  32
HETATM   32  O   UNK N   1       6.061   0.931   0.097  0.00  0.00    -0.346 OA
BRANCH  32  33
HETATM   33  C   UNK N   1       7.256   0.275   0.347  0.00  0.00     0.132 C 
HETATM   34  C   UNK N   1       7.128  -0.863   1.376  0.00  0.00     0.052 C 
HETATM   35  C   UNK N   1       7.483  -2.222   0.767  0.00  0.00     0.126 C 
HETATM   36  N   UNK N   1       8.771  -2.176   0.091  0.00  0.00    -0.371 N 
HETATM   37  C   UNK N   1       9.254  -0.929  -0.484  0.00  0.00     0.126 C 
HETATM   38  C   UNK N   1       8.076  -0.050  -0.898  0.00  0.00     0.052 C 
BRANCH  36  39
HETATM   39  C   UNK N   1       9.526  -3.377  -0.074  0.00  0.00     0.068 C 
HETATM   40  C   UNK N   1      10.877  -3.350  -0.715  0.00  0.00     0.088 C 
HETATM   41  N   UNK N   1       9.060  -4.498   0.342  0.00  0.00    -0.389 N 
HETATM   42  H   UNK N   1       8.137  -4.619   0.661  0.00  0.00     0.157 HD
ATOM     43  HN  UNK N   1       9.680  -5.308   0.342  1.00  0.00     0.157 HD
ENDBRANCH  36  39
ENDBRANCH  32  33
ENDBRANCH   1  32
TORSDOF 7
