REMARK  16 active torsions:
REMARK  status: ('A' for Active; 'I' for Inactive)
REMARK    1  A    between atoms: C_31  and  C_27 
REMARK    2  A    between atoms: C_41  and  C_27 
REMARK    3  A    between atoms: C_32  and  C_28 
REMARK    4  A    between atoms: C_42  and  C_28 
REMARK    5  A    between atoms: C_33  and  C_29 
REMARK    6  A    between atoms: N_60  and  C_29 
REMARK    7  A    between atoms: C_34  and  C_30 
REMARK    8  A    between atoms: N_61  and  C_30 
REMARK    9  A    between atoms: C_45  and  C_35 
REMARK   10  A    between atoms: C_46  and  C_36 
REMARK   11  A    between atoms: C_43  and  O_62 
REMARK   12  A    between atoms: C_44  and  O_63 
REMARK   13  A    between atoms: N_56  and  C_45 
REMARK   14  A    between atoms: O_64  and  C_45 
REMARK   15  A    between atoms: N_58  and  C_46 
REMARK   16  A    between atoms: O_65  and  C_46 
REMARK       I    between atoms: N_56  and  C_47 
REMARK       I    between atoms: N_58  and  C_48 
ROOT
HETATM    1  C   UNK N   1      -6.316   0.461   1.096  0.00  0.00     0.124 C 
HETATM    2  C   UNK N   1      -3.933  -1.531   0.239  0.00  0.00     0.124 C 
HETATM    3  C   UNK N   1      -6.308  -1.138   1.120  0.00  0.00     0.172 C 
HETATM    4  C   UNK N   1      -5.418  -1.892   0.100  0.00  0.00     0.172 C 
HETATM    5  C   UNK N   1      -4.543   0.660  -0.607  0.00  0.00     0.322 C 
HETATM    6  N   UNK N   1      -5.757   1.103  -0.133  0.00  0.00    -0.322 N 
HETATM    7  N   UNK N   1      -3.728  -0.093   0.185  0.00  0.00    -0.322 N 
HETATM    8  O   UNK N   1      -4.045   1.200  -1.589  0.00  0.00    -0.247 OA
ENDROOT
BRANCH   6   9
HETATM    9  C   UNK N   1      -5.975   2.524  -0.459  0.00  0.00     0.166 C 
BRANCH   9  10
HETATM   10  C   UNK N   1      -7.318   3.151  -0.574  0.00  0.00    -0.039 A 
HETATM   11  C   UNK N   1      -8.221   2.772  -1.568  0.00  0.00     0.009 A 
HETATM   12  C   UNK N   1      -9.467   3.400  -1.650  0.00  0.00     0.002 A 
HETATM   13  C   UNK N   1      -9.804   4.414  -0.744  0.00  0.00     0.016 A 
HETATM   14  C   UNK N   1      -8.858   4.880   0.178  0.00  0.00     0.016 A 
HETATM   15  C   UNK N   1      -7.621   4.230   0.268  0.00  0.00     0.024 A 
BRANCH  14  16
HETATM   16  C   UNK N   1      -9.255   5.794   1.267  0.00  0.00     0.165 C 
BRANCH  16  17
HETATM   17  N   UNK N   1      -8.616   6.874   1.582  0.00  0.00    -0.170 N 
HETATM   18  C   UNK N   1      -7.709   7.617   0.779  0.00  0.00     0.685 A 
HETATM   19  N   UNK N   1      -6.884   8.544   1.334  0.00  0.00    -0.189 N 
HETATM   20  N   UNK N   1      -7.957   7.861  -0.537  0.00  0.00    -0.189 N 
HETATM   21  C   UNK N   1      -6.594   9.373   0.321  0.00  0.00     0.076 A 
ATOM     22  HN  UNK N   1      -6.561   8.597   2.300  1.00  0.00     0.184 HD
HETATM   23  C   UNK N   1      -5.848  10.549   0.366  0.00  0.00     0.032 A 
HETATM   24  C   UNK N   1      -7.245   8.969  -0.801  0.00  0.00     0.076 A 
HETATM   25  C   UNK N   1      -5.791  11.328  -0.806  0.00  0.00     0.002 A 
HETATM   26  C   UNK N   1      -6.480  10.916  -1.972  0.00  0.00     0.002 A 
HETATM   27  C   UNK N   1      -7.221   9.716  -1.977  0.00  0.00     0.032 A 
HETATM   28  H   UNK N   1      -8.527   7.345  -1.153  0.00  0.00     0.184 HD
ATOM     29  HN  UNK N   1      -8.785   7.237   2.520  1.00  0.00     0.186 HD
ENDBRANCH  16  17
BRANCH  16  30
HETATM   30  O   UNK N   1     -10.307   5.435   2.024  0.00  0.00    -0.345 OA
HETATM   31  H   UNK N   1     -10.890   5.945   2.551  0.00  0.00     0.219 HD
ENDBRANCH  16  30
ENDBRANCH  14  16
ENDBRANCH   9  10
ENDBRANCH   6   9
BRANCH   1  32
HETATM   32  C   UNK N   1      -7.729   0.947   1.473  0.00  0.00     0.066 C 
BRANCH  32  33
HETATM   33  C   UNK N   1      -8.850   0.583   0.530  0.00  0.00    -0.056 A 
HETATM   34  C   UNK N   1      -8.621  -0.096  -0.681  0.00  0.00     0.007 A 
HETATM   35  C   UNK N   1      -9.679  -0.389  -1.542  0.00  0.00     0.001 A 
HETATM   36  C   UNK N   1     -10.977   0.000  -1.204  0.00  0.00     0.000 A 
HETATM   37  C   UNK N   1     -11.214   0.675  -0.002  0.00  0.00     0.001 A 
HETATM   38  C   UNK N   1     -10.153   0.966   0.861  0.00  0.00     0.007 A 
ENDBRANCH  32  33
ENDBRANCH   1  32
BRANCH   3  39
HETATM   39  O   UNK N   1      -6.012  -1.576   2.416  0.00  0.00    -0.391 OA
HETATM   40  H   UNK N   1      -6.172  -1.905   3.314  0.00  0.00     0.210 HD
ENDBRANCH   3  39
BRANCH   7  41
HETATM   41  C   UNK N   1      -3.311   0.531   1.436  0.00  0.00     0.166 C 
BRANCH  41  42
HETATM   42  C   UNK N   1      -2.743   1.885   1.159  0.00  0.00    -0.039 A 
HETATM   43  C   UNK N   1      -3.479   3.061   1.359  0.00  0.00     0.009 A 
HETATM   44  C   UNK N   1      -2.937   4.296   0.969  0.00  0.00     0.002 A 
HETATM   45  C   UNK N   1      -1.654   4.354   0.402  0.00  0.00     0.016 A 
HETATM   46  C   UNK N   1      -0.929   3.169   0.217  0.00  0.00     0.016 A 
HETATM   47  C   UNK N   1      -1.493   1.951   0.592  0.00  0.00     0.024 A 
BRANCH  46  48
HETATM   48  C   UNK N   1       0.482   3.152  -0.175  0.00  0.00     0.165 C 
BRANCH  48  49
HETATM   49  N   UNK N   1       1.097   2.026  -0.053  0.00  0.00    -0.170 N 
HETATM   50  C   UNK N   1       2.482   1.795  -0.077  0.00  0.00     0.685 A 
HETATM   51  N   UNK N   1       2.986   0.607   0.335  0.00  0.00    -0.189 N 
HETATM   52  N   UNK N   1       3.422   2.768  -0.191  0.00  0.00    -0.189 N 
HETATM   53  C   UNK N   1       4.290   0.845   0.471  0.00  0.00     0.076 A 
ATOM     54  HN  UNK N   1       2.484  -0.265   0.502  1.00  0.00     0.184 HD
HETATM   55  C   UNK N   1       5.266  -0.029   0.931  0.00  0.00     0.032 A 
HETATM   56  C   UNK N   1       4.557   2.140   0.151  0.00  0.00     0.076 A 
HETATM   57  C   UNK N   1       6.573   0.474   1.051  0.00  0.00     0.002 A 
HETATM   58  C   UNK N   1       6.858   1.819   0.710  0.00  0.00     0.002 A 
HETATM   59  C   UNK N   1       5.835   2.674   0.254  0.00  0.00     0.032 A 
HETATM   60  H   UNK N   1       3.299   3.707  -0.459  0.00  0.00     0.184 HD
ATOM     61  HN  UNK N   1       0.507   1.205   0.077  1.00  0.00     0.186 HD
ENDBRANCH  48  49
BRANCH  48  62
HETATM   62  O   UNK N   1       1.138   4.292  -0.478  0.00  0.00    -0.345 OA
HETATM   63  H   UNK N   1       2.051   4.294  -0.688  0.00  0.00     0.219 HD
ENDBRANCH  48  62
ENDBRANCH  46  48
ENDBRANCH  41  42
ENDBRANCH   7  41
BRANCH   4  64
HETATM   64  O   UNK N   1      -5.878  -1.643  -1.199  0.00  0.00    -0.391 OA
HETATM   65  H   UNK N   1      -5.887  -1.280  -2.099  0.00  0.00     0.210 HD
ENDBRANCH   4  64
BRANCH   2  66
HETATM   66  C   UNK N   1      -3.101  -2.209  -0.857  0.00  0.00     0.066 C 
BRANCH  66  67
HETATM   67  C   UNK N   1      -1.644  -2.226  -0.529  0.00  0.00    -0.056 A 
HETATM   68  C   UNK N   1      -0.775  -1.290  -1.102  0.00  0.00     0.007 A 
HETATM   69  C   UNK N   1       0.589  -1.323  -0.792  0.00  0.00     0.001 A 
HETATM   70  C   UNK N   1       1.086  -2.295   0.084  0.00  0.00     0.000 A 
HETATM   71  C   UNK N   1       0.219  -3.234   0.649  0.00  0.00     0.001 A 
HETATM   72  C   UNK N   1      -1.144  -3.199   0.344  0.00  0.00     0.007 A 
ENDBRANCH  66  67
ENDBRANCH   2  66
TORSDOF 16
