REMARK  6 active torsions:
REMARK  status: ('A' for Active; 'I' for Inactive)
REMARK    1  A    between atoms: C_2  and  O_1 
REMARK    2  A    between atoms: C_2  and  C_3 
REMARK    3  A    between atoms: C_2  and  C_8 
REMARK    4  A    between atoms: C_3  and  S_4 
REMARK    5  A    between atoms: S_4  and  O_5 
REMARK    6  A    between atoms: C_8  and  O_9 
ROOT
HETATM    1  C   UNK N   1       2.419   0.909  -0.454  0.00  0.00     0.231 C 
ENDROOT
BRANCH   1   2
HETATM    2  O   UNK N   1       2.574   2.288  -0.288  0.00  0.00    -0.384 OA
HETATM    3  H   UNK N   1       3.456   2.674  -0.173  0.00  0.00     0.210 HD
ENDBRANCH   1   2
BRANCH   1   4
HETATM    4  C   UNK N   1       1.196   0.432   0.326  0.00  0.00     0.198 C 
BRANCH   4   5
HETATM    5  S   UNK N   1      -0.328   0.868  -0.576  0.00  0.00     0.097 S 
HETATM    6  O   UNK N   1      -0.713  -0.369   0.250  0.00  0.00    -0.601 OA
HETATM    7  O   UNK N   1      -0.113   1.866   0.572  0.00  0.00    -0.601 OA
BRANCH   5   8
HETATM    8  O   UNK N   1      -1.915   1.319  -0.106  0.00  0.00    -0.296 OA
HETATM    9  H   UNK N   1      -2.143   2.224   0.160  0.00  0.00     0.232 HD
ENDBRANCH   5   8
ENDBRANCH   4   5
ENDBRANCH   1   4
BRANCH   1  10
HETATM   10  C   UNK N   1       3.662   0.187  -0.027  0.00  0.00     0.170 C 
HETATM   11  O   UNK N   1       3.719  -1.029  -0.117  0.00  0.00    -0.648 OA
BRANCH  10  12
HETATM   12  O   UNK N   1       4.733   0.872   0.419  0.00  0.00    -0.774 OA
HETATM   13  H   UNK N   1       5.518   0.465   0.729  0.00  0.00     0.167 HD
ENDBRANCH  10  12
ENDBRANCH   1  10
TORSDOF 6
