REMARK  10 active torsions:
REMARK  status: ('A' for Active; 'I' for Inactive)
REMARK    1  A    between atoms: P_1  and  O_2 
REMARK    2  A    between atoms: P_1  and  O_6 
REMARK    3  A    between atoms: P_1  and  O_7 
REMARK    4  A    between atoms: O_2  and  C_12 
REMARK    5  A    between atoms: C_10  and  O_3 
REMARK    6  A    between atoms: O_4  and  C_13 
REMARK    7  A    between atoms: C_11  and  N_9 
REMARK    8  A    between atoms: C_10  and  C_11 
REMARK    9  A    between atoms: C_10  and  C_12 
REMARK   10  A    between atoms: C_11  and  C_13 
ROOT
HETATM    1  C   UNK N   1      17.378  -3.341   0.471  0.00  0.00     0.175 C 
ENDROOT
BRANCH   1   2
HETATM    2  O   UNK N   1      17.007  -2.022   0.735  0.00  0.00    -0.391 OA
HETATM    3  H   UNK N   1      17.671  -1.340   0.917  0.00  0.00     0.210 HD
ENDBRANCH   1   2
BRANCH   1   4
HETATM    4  C   UNK N   1      16.173  -4.286   0.620  0.00  0.00     0.204 C 
BRANCH   4   5
HETATM    5  N   UNK N   1      16.566  -5.667   0.388  0.00  0.00    -0.416 N 
HETATM    6  H   UNK N   1      15.864  -6.390   0.225  0.00  0.00     0.150 HD
HETATM    7  H   UNK N   1      17.555  -5.916   0.388  0.00  0.00     0.150 HD
ENDBRANCH   4   5
BRANCH   4   8
HETATM    8  C   UNK N   1      14.963  -3.946  -0.209  0.00  0.00     0.165 C 
HETATM    9  O   UNK N   1      14.981  -3.014  -0.998  0.00  0.00    -0.648 OA
BRANCH   8  10
HETATM   10  O   UNK N   1      13.835  -4.664  -0.054  0.00  0.00    -0.775 OA
HETATM   11  H   UNK N   1      13.009  -4.234   0.053  0.00  0.00     0.167 HD
ENDBRANCH   8  10
ENDBRANCH   4   8
ENDBRANCH   1   4
BRANCH   1  12
HETATM   12  C   UNK N   1      18.120  -3.417  -0.868  0.00  0.00     0.214 C 
BRANCH  12  13
HETATM   13  O   UNK N   1      18.768  -4.651  -1.031  0.00  0.00    -0.294 OA
BRANCH  13  14
HETATM   14  P   UNK N   1      20.196  -4.621  -0.022  0.00  0.00     0.390 P 
HETATM   15  O   UNK N   1      19.830  -5.353   1.297  0.00  0.00    -0.632 OA
BRANCH  14  16
HETATM   16  O   UNK N   1      21.508  -5.503  -0.736  0.00  0.00    -0.307 OA
HETATM   17  H   UNK N   1      21.448  -6.385  -1.135  0.00  0.00     0.222 HD
ENDBRANCH  14  16
BRANCH  14  18
HETATM   18  O   UNK N   1      20.689  -3.012   0.412  0.00  0.00    -0.307 OA
HETATM   19  H   UNK N   1      21.605  -2.802   0.654  0.00  0.00     0.222 HD
ENDBRANCH  14  18
ENDBRANCH  13  14
ENDBRANCH  12  13
ENDBRANCH   1  12
TORSDOF 10
