REMARK  19 active torsions:
REMARK  status: ('A' for Active; 'I' for Inactive)
REMARK    1  A    between atoms: C_2  and  C_1 
REMARK    2  A    between atoms: C_3  and  C_1 
REMARK    3  A    between atoms: C_4  and  C_2 
REMARK    4  A    between atoms: N_19  and  C_3 
REMARK    5  A    between atoms: O_31  and  C_4 
REMARK    6  A    between atoms: C_7  and  C_5 
REMARK    7  A    between atoms: N_20  and  C_5 
REMARK    8  A    between atoms: C_8  and  C_6 
REMARK    9  A    between atoms: O_21  and  C_6 
REMARK   10  A    between atoms: C_10  and  C_7 
REMARK   11  A    between atoms: C_7  and  O_22 
REMARK   12  A    between atoms: C_10  and  C_8 
REMARK   13  A    between atoms: C_8  and  O_23 
REMARK   14  A    between atoms: C_10  and  O_24 
REMARK   15  A    between atoms: O_25  and  C_12 
REMARK   16  A    between atoms: O_26  and  C_13 
REMARK   17  A    between atoms: P_32  and  O_28 
REMARK   18  A    between atoms: P_32  and  O_29 
REMARK   19  A    between atoms: P_32  and  O_31 
ROOT
HETATM    1  C   UNK N   1      -1.158   0.647   0.193  0.00  0.00     0.135 A 
HETATM    2  C   UNK N   1       0.145   0.274   0.333  0.00  0.00     0.146 A 
HETATM    3  C   UNK N   1      -1.497   1.991   0.142  0.00  0.00     0.174 A 
HETATM    4  C   UNK N   1       0.817   2.516   0.382  0.00  0.00     0.224 A 
HETATM    5  C   UNK N   1      -1.053  -1.498   0.189  0.00  0.00     0.331 A 
HETATM    6  N   UNK N   1       1.143   1.186   0.428  0.00  0.00    -0.306 N 
ATOM      7  HN  UNK N   1       2.113   0.889   0.533  1.00  0.00     0.171 HD
HETATM    8  N   UNK N   1      -0.492   2.908   0.240  0.00  0.00    -0.301 N 
ATOM      9  HN  UNK N   1      -0.716   3.903   0.207  1.00  0.00     0.171 HD
HETATM   10  N   UNK N   1      -1.928  -0.451   0.099  0.00  0.00    -0.292 N 
HETATM   11  N   UNK N   1       0.238  -1.076   0.328  0.00  0.00    -0.281 N 
HETATM   12  O   UNK N   1      -1.382  -2.670   0.133  0.00  0.00    -0.246 OA
ENDROOT
BRANCH  11  13
HETATM   13  C   UNK N   1       1.386  -1.984   0.405  0.00  0.00     0.170 C 
BRANCH  13  14
HETATM   14  C   UNK N   1       2.718  -1.399  -0.064  0.00  0.00     0.168 C 
BRANCH  14  15
HETATM   15  C   UNK N   1       3.717  -2.552  -0.330  0.00  0.00     0.179 C 
BRANCH  15  16
HETATM   16  C   UNK N   1       5.162  -2.084  -0.604  0.00  0.00     0.173 C 
BRANCH  16  17
HETATM   17  C   UNK N   1       5.798  -1.490   0.653  0.00  0.00     0.198 C 
BRANCH  17  18
HETATM   18  O   UNK N   1       7.136  -1.168   0.430  0.00  0.00    -0.398 OA
HETATM   19  H   UNK N   1       7.795  -1.862   0.274  0.00  0.00     0.209 HD
ENDBRANCH  17  18
ENDBRANCH  16  17
BRANCH  16  20
HETATM   20  O   UNK N   1       5.188  -1.149  -1.641  0.00  0.00    -0.391 OA
HETATM   21  H   UNK N   1       5.759  -0.840  -2.362  0.00  0.00     0.210 HD
ENDBRANCH  16  20
ENDBRANCH  15  16
BRANCH  15  22
HETATM   22  O   UNK N   1       3.731  -3.446   0.747  0.00  0.00    -0.390 OA
HETATM   23  H   UNK N   1       3.200  -3.764   1.493  0.00  0.00     0.210 HD
ENDBRANCH  15  22
ENDBRANCH  14  15
BRANCH  14  24
HETATM   24  O   UNK N   1       3.201  -0.535   0.919  0.00  0.00    -0.391 OA
HETATM   25  H   UNK N   1       3.889  -0.526   1.602  0.00  0.00     0.210 HD
ENDBRANCH  14  24
ENDBRANCH  13  14
ENDBRANCH  11  13
BRANCH  10  26
HETATM   26  C   UNK N   1      -3.366  -0.503  -0.122  0.00  0.00     0.134 C 
BRANCH  26  27
HETATM   27  C   UNK N   1      -4.059  -1.338   0.935  0.00  0.00     0.022 C 
BRANCH  27  28
HETATM   28  C   UNK N   1      -5.113  -2.183   0.251  0.00  0.00     0.028 C 
BRANCH  28  29
HETATM   29  C   UNK N   1      -4.449  -3.334  -0.494  0.00  0.00     0.180 C 
BRANCH  29  30
HETATM   30  O   UNK N   1      -5.397  -4.073  -1.208  0.00  0.00    -0.297 OA
BRANCH  30  31
HETATM   31  P   UNK N   1      -6.078  -5.217  -0.080  0.00  0.00     0.390 P 
HETATM   32  O   UNK N   1      -4.942  -5.765   0.827  0.00  0.00    -0.632 OA
BRANCH  31  33
HETATM   33  O   UNK N   1      -6.762  -6.580  -0.907  0.00  0.00    -0.307 OA
HETATM   34  H   UNK N   1      -7.613  -6.630  -1.369  0.00  0.00     0.222 HD
ENDBRANCH  31  33
BRANCH  31  35
HETATM   35  O   UNK N   1      -7.254  -4.458   0.947  0.00  0.00    -0.307 OA
HETATM   36  H   UNK N   1      -7.216  -3.677   1.521  0.00  0.00     0.222 HD
ENDBRANCH  31  35
ENDBRANCH  30  31
ENDBRANCH  29  30
ENDBRANCH  28  29
ENDBRANCH  27  28
ENDBRANCH  26  27
ENDBRANCH  10  26
BRANCH   3  37
HETATM   37  O   UNK N   1      -2.772   2.389  -0.006  0.00  0.00    -0.344 OA
HETATM   38  H   UNK N   1      -2.977   3.297  -0.110  0.00  0.00     0.219 HD
ENDBRANCH   3  37
BRANCH   4  39
HETATM   39  O   UNK N   1       1.784   3.443   0.468  0.00  0.00    -0.332 OA
HETATM   40  H   UNK N   1       2.682   3.183   0.528  0.00  0.00     0.221 HD
ENDBRANCH   4  39
TORSDOF 19
