REMARK  8 active torsions:
REMARK  status: ('A' for Active; 'I' for Inactive)
REMARK    1  A    between atoms: C_4  and  C_2 
REMARK    2  A    between atoms: C_5  and  C_3 
REMARK    3  A    between atoms: C_3  and  O_8 
REMARK    4  A    between atoms: C_6  and  C_4 
REMARK    5  A    between atoms: C_4  and  O_9 
REMARK    6  A    between atoms: C_6  and  C_5 
REMARK    7  A    between atoms: C_5  and  O_10 
REMARK    8  A    between atoms: C_6  and  O_11 
ROOT
HETATM    1  C   UNK N   1      -0.043  -0.928  -0.418  0.00  0.00     0.184 C 
ENDROOT
BRANCH   1   2
HETATM    2  C   UNK N   1      -1.342  -1.479   0.215  0.00  0.00     0.210 C 
BRANCH   2   3
HETATM    3  C   UNK N   1      -2.532  -1.130  -0.631  0.00  0.00     0.265 C 
HETATM    4  O   UNK N   1      -3.455  -0.482  -0.171  0.00  0.00    -0.304 OA
ENDBRANCH   2   3
BRANCH   2   5
HETATM    5  O   UNK N   1      -1.289  -2.869   0.324  0.00  0.00    -0.386 OA
HETATM    6  H   UNK N   1      -2.107  -3.384   0.399  0.00  0.00     0.210 HD
ENDBRANCH   2   5
ENDBRANCH   1   2
BRANCH   1   7
HETATM    7  C   UNK N   1       1.217  -1.287   0.417  0.00  0.00     0.178 C 
BRANCH   7   8
HETATM    8  C   UNK N   1       2.521  -0.756  -0.211  0.00  0.00     0.145 C 
HETATM    9  C   UNK N   1       3.720  -1.170   0.628  0.00  0.00     0.042 C 
BRANCH   8  10
HETATM   10  O   UNK N   1       2.507   0.637  -0.295  0.00  0.00    -0.393 OA
HETATM   11  H   UNK N   1       3.340   1.129  -0.354  0.00  0.00     0.210 HD
ENDBRANCH   8  10
ENDBRANCH   7   8
BRANCH   7  12
HETATM   12  O   UNK N   1       1.321  -2.676   0.533  0.00  0.00    -0.390 OA
HETATM   13  H   UNK N   1       0.522  -3.221   0.614  0.00  0.00     0.210 HD
ENDBRANCH   7  12
ENDBRANCH   1   7
BRANCH   1  14
HETATM   14  O   UNK N   1      -0.154   0.461  -0.530  0.00  0.00    -0.390 OA
HETATM   15  H   UNK N   1       0.642   1.010  -0.607  0.00  0.00     0.210 HD
ENDBRANCH   1  14
TORSDOF 8
