REMARK  0 active torsions:
REMARK  status: ('A' for Active; 'I' for Inactive)
ROOT
HETATM    1  C   UNK N   1      14.025  -9.279   0.000  0.00  0.00     0.146 A 
HETATM    2  C   UNK N   1      14.038 -10.625   0.000  0.00  0.00     0.143 A 
HETATM    3  C   UNK N   1      15.208  -8.563   0.000  0.00  0.00     0.280 A 
HETATM    4  N   UNK N   1      12.758  -8.843  -0.000  0.00  0.00    -0.345 N 
HETATM    5  N   UNK N   1      15.182 -11.346   0.000  0.00  0.00    -0.292 N 
HETATM    6  N   UNK N   1      12.790 -11.101   0.000  0.00  0.00    -0.336 N 
ATOM      7  HN  UNK N   1      12.489 -12.076   0.000  1.00  0.00     0.168 HD
HETATM    8  N   UNK N   1      16.389  -9.273  -0.000  0.00  0.00    -0.273 N 
HETATM    9  O   UNK N   1      15.213  -7.345   0.000  0.00  0.00    -0.265 OA
HETATM   10  C   UNK N   1      12.015  -9.983  -0.000  0.00  0.00     0.182 A 
HETATM   11  C   UNK N   1      16.378 -10.659  -0.000  0.00  0.00     0.328 A 
HETATM   12  O   UNK N   1      17.427 -11.275  -0.000  0.00  0.00    -0.247 OA
HETATM   13  H   UNK N   1      12.439  -7.911  -0.000  0.00  0.00     0.167 HD
HETATM   14  H   UNK N   1      15.162 -12.330   0.000  0.00  0.00     0.172 HD
HETATM   15  H   UNK N   1      17.248  -8.792  -0.000  0.00  0.00     0.173 HD
ENDROOT
TORSDOF 0
