REMARK  15 active torsions:
REMARK  status: ('A' for Active; 'I' for Inactive)
REMARK    1  A    between atoms: C_5  and  C_1 
REMARK    2  A    between atoms: O_30  and  C_1 
REMARK    3  A    between atoms: As_12  and  C_2 
REMARK    4  A    between atoms: P_33  and  C_2 
REMARK    5  A    between atoms: C_7  and  O_21 
REMARK    6  A    between atoms: C_8  and  O_22 
REMARK    7  A    between atoms: N_13  and  C_9 
REMARK    8  A    between atoms: C_11  and  N_20 
REMARK    9  A    between atoms: O_23  and  As_12 
REMARK   10  A    between atoms: O_24  and  As_12 
REMARK   11  A    between atoms: P_33  and  O_26 
REMARK   12  A    between atoms: P_34  and  O_28 
REMARK   13  A    between atoms: P_34  and  O_30 
REMARK   14  A    between atoms: P_33  and  O_32 
REMARK   15  A    between atoms: P_34  and  O_32 
ROOT
HETATM    1  C   UNK N   1       0.000  -1.121   0.635  0.00  0.00     0.180 C 
HETATM    2  C   UNK N   1       1.150  -1.995   0.156  0.00  0.00     0.182 C 
HETATM    3  C   UNK N   1       2.169  -0.902   0.002  0.00  0.00     0.198 C 
HETATM    4  C   UNK N   1       1.311   0.164  -0.692  0.00  0.00     0.262 C 
HETATM    5  O   UNK N   1      -0.026  -0.035  -0.259  0.00  0.00    -0.353 OA
ENDROOT
BRANCH   1   6
HETATM    6  C   UNK N   1      -1.387  -1.739   0.654  0.00  0.00     0.215 C 
BRANCH   6   7
HETATM    7  O   UNK N   1      -1.387  -3.102   0.916  0.00  0.00    -0.294 OA
BRANCH   7   8
HETATM    8  P   UNK N   1      -2.399  -3.735  -0.350  0.00  0.00     0.400 P 
HETATM    9  O   UNK N   1      -1.671  -5.002  -0.869  0.00  0.00    -0.631 OA
BRANCH   8  10
HETATM   10  O   UNK N   1      -2.514  -2.691  -1.737  0.00  0.00    -0.307 OA
HETATM   11  H   UNK N   1      -2.042  -2.345  -2.511  0.00  0.00     0.222 HD
ENDBRANCH   8  10
BRANCH   8  12
HETATM   12  O   UNK N   1      -3.947  -4.291   0.223  0.00  0.00    -0.218 OA
BRANCH  12  13
HETATM   13  P   UNK N   1      -5.013  -2.918   0.413  0.00  0.00     0.247 P 
HETATM   14  O   UNK N   1      -4.612  -2.253   1.758  0.00  0.00    -0.653 OA
BRANCH  13  15
HETATM   15  C   UNK N   1      -5.198  -1.636  -0.930  0.00  0.00     0.137 C 
BRANCH  15  16
HETATM   16 As   UNK N   1      -7.031  -0.896  -0.869  0.00  0.00     0.000 As
HETATM   17  O   UNK N   1      -8.021  -1.969  -1.627  0.00  0.00     0.000 OA
BRANCH  16  18
HETATM   18  O   UNK N   1      -7.818  -0.766   0.788  0.00  0.00    -0.253 OA
HETATM   19  H   UNK N   1      -7.966  -0.372   1.662  0.00  0.00     0.253 HD
ENDBRANCH  16  18
BRANCH  16  20
HETATM   20  O   UNK N   1      -7.383   0.664  -1.777  0.00  0.00    -0.253 OA
HETATM   21  H   UNK N   1      -6.764   1.237  -2.255  0.00  0.00     0.253 HD
ENDBRANCH  16  20
ENDBRANCH  15  16
ENDBRANCH  13  15
BRANCH  13  22
HETATM   22  O   UNK N   1      -6.549  -3.625   0.799  0.00  0.00    -0.329 OA
HETATM   23  H   UNK N   1      -7.321  -3.078   1.016  0.00  0.00     0.220 HD
ENDBRANCH  13  22
ENDBRANCH  12  13
ENDBRANCH   8  12
ENDBRANCH   7   8
ENDBRANCH   6   7
ENDBRANCH   1   6
BRANCH   2  24
HETATM   24  O   UNK N   1       1.540  -2.954   1.094  0.00  0.00    -0.390 OA
HETATM   25  H   UNK N   1       1.099  -3.522   1.745  0.00  0.00     0.210 HD
ENDBRANCH   2  24
BRANCH   3  26
HETATM   26  O   UNK N   1       3.275  -1.296  -0.757  0.00  0.00    -0.388 OA
HETATM   27  H   UNK N   1       3.422  -2.097  -1.284  0.00  0.00     0.210 HD
ENDBRANCH   3  26
BRANCH   4  28
HETATM   28  N   UNK N   1       1.701   1.534  -0.343  0.00  0.00    -0.297 N 
HETATM   29  C   UNK N   1       0.825   2.528  -0.032  0.00  0.00     0.188 A 
HETATM   30  N   UNK N   1       1.468   3.675   0.310  0.00  0.00    -0.346 N 
HETATM   31  C   UNK N   1       2.771   3.361   0.219  0.00  0.00     0.122 A 
ATOM     32  HN  UNK N   1       1.056   4.569   0.576  1.00  0.00     0.167 HD
HETATM   33  C   UNK N   1       3.881   4.132   0.500  0.00  0.00     0.131 A 
HETATM   34  C   UNK N   1       2.912   2.081  -0.182  0.00  0.00     0.142 A 
HETATM   35  N   UNK N   1       5.111   3.556   0.361  0.00  0.00    -0.337 N 
HETATM   36  C   UNK N   1       5.236   2.249  -0.050  0.00  0.00     0.183 A 
ATOM     37  HN  UNK N   1       5.949   4.101   0.564  1.00  0.00     0.168 HD
HETATM   38  N   UNK N   1       4.126   1.495  -0.324  0.00  0.00    -0.336 N 
ATOM     39  HN  UNK N   1       4.209   0.525  -0.626  1.00  0.00     0.168 HD
BRANCH  33  40
HETATM   40  N   UNK N   1       3.753   5.465   0.940  0.00  0.00    -0.383 N 
HETATM   41  H   UNK N   1       4.514   6.008   1.247  0.00  0.00     0.157 HD
HETATM   42  H   UNK N   1       2.857   5.874   0.940  0.00  0.00     0.157 HD
ENDBRANCH  33  40
ENDBRANCH   4  28
TORSDOF 15
