REMARK  4 active torsions:
REMARK  status: ('A' for Active; 'I' for Inactive)
REMARK    1  A    between atoms: C_10  and  C_7 
REMARK    2  A    between atoms: C_9  and  C_8 
REMARK    3  A    between atoms: C_11  and  O_19 
REMARK    4  A    between atoms: C_12  and  O_20 
ROOT
HETATM    1  C   UNK N   1       2.027  -1.277  -0.031  0.00  0.00     0.192 C 
HETATM    2  O   UNK N   1       1.820  -1.409  -1.404  0.00  0.00    -0.399 OA
HETATM    3  H   UNK N   1       1.668  -1.331  -2.359  0.00  0.00     0.209 HD
ENDROOT
BRANCH   1   4
HETATM    4  C   UNK N   1       2.159   0.193   0.380  0.00  0.00     0.145 C 
HETATM    5  C   UNK N   1       3.366   0.878  -0.311  0.00  0.00     0.175 C 
HETATM    6  C   UNK N   1       3.361   2.373   0.044  0.00  0.00     0.185 C 
HETATM    7  C   UNK N   1       2.099   3.079  -0.507  0.00  0.00     0.217 C 
HETATM    8  C   UNK N   1       0.880   2.245  -0.257  0.00  0.00     0.116 A 
HETATM    9  O   UNK N   1       2.209   3.315  -1.879  0.00  0.00    -0.385 OA
HETATM   10  N   UNK N   1      -0.384   2.707  -0.321  0.00  0.00    -0.342 N 
HETATM   11  N   UNK N   1       0.927   0.955   0.132  0.00  0.00    -0.333 N 
HETATM   12  C   UNK N   1      -1.146   1.665   0.072  0.00  0.00     0.059 A 
ATOM     13  HN  UNK N   1      -0.695   3.637  -0.603  1.00  0.00     0.167 HD
HETATM   14  C   UNK N   1      -0.340   0.575   0.362  0.00  0.00     0.123 A 
HETATM   15  H   UNK N   1       2.389   3.330  -2.832  0.00  0.00     0.210 HD
BRANCH   5  16
HETATM   16  O   UNK N   1       4.552   0.281   0.125  0.00  0.00    -0.391 OA
HETATM   17  H   UNK N   1       4.606  -0.639   0.427  0.00  0.00     0.210 HD
ENDBRANCH   5  16
BRANCH   6  18
HETATM   18  O   UNK N   1       4.509   3.007  -0.438  0.00  0.00    -0.390 OA
HETATM   19  H   UNK N   1       5.289   2.537  -0.773  0.00  0.00     0.210 HD
ENDBRANCH   6  18
BRANCH  12  20
HETATM   20  C   UNK N   1      -2.597   1.747   0.296  0.00  0.00    -0.008 A 
HETATM   21  C   UNK N   1      -3.315   0.620   0.721  0.00  0.00     0.014 A 
HETATM   22  C   UNK N   1      -4.677   0.724   1.017  0.00  0.00     0.001 A 
HETATM   23  C   UNK N   1      -5.324   1.957   0.907  0.00  0.00     0.000 A 
HETATM   24  C   UNK N   1      -4.615   3.084   0.483  0.00  0.00     0.001 A 
HETATM   25  C   UNK N   1      -3.255   2.979   0.177  0.00  0.00     0.014 A 
ENDBRANCH  12  20
ENDBRANCH   1   4
TORSDOF 4
