REMARK  7 active torsions:
REMARK  status: ('A' for Active; 'I' for Inactive)
REMARK    1  A    between atoms: C_16  and  C_7 
REMARK    2  A    between atoms: C_10  and  C_8 
REMARK    3  A    between atoms: C_11  and  C_8 
REMARK    4  A    between atoms: C_16  and  C_10 
REMARK    5  A    between atoms: C_17  and  C_11 
REMARK    6  A    between atoms: C_14  and  C_13 
REMARK    7  A    between atoms: C_17  and  C_13 
ROOT
HETATM    1  C   UNK N   1       2.118   1.713  -0.097  0.00  0.00     0.007 C 
ENDROOT
BRANCH   1   2
HETATM    2  C   UNK N   1       1.874   0.243  -0.054  0.00  0.00     0.009 C 
HETATM    3  C   UNK N   1       0.631  -0.320   0.025  0.00  0.00    -0.044 C 
HETATM    4  C   UNK N   1       0.504  -1.821   0.055  0.00  0.00    -0.059 C 
HETATM    5  C   UNK N   1      -0.661   0.523   0.092  0.00  0.00    -0.020 C 
HETATM    6  C   UNK N   1       1.692  -2.708   0.251  0.00  0.00     0.048 C 
HETATM    7  C   UNK N   1      -0.687  -2.409  -0.123  0.00  0.00    -0.019 C 
HETATM    8  C   UNK N   1      -1.920  -1.611  -0.419  0.00  0.00     0.029 C 
HETATM    9  C   UNK N   1      -1.896  -0.332   0.393  0.00  0.00     0.017 C 
HETATM   10  C   UNK N   1      -0.882   1.263  -1.220  0.00  0.00     0.020 C 
HETATM   11  C   UNK N   1      -0.612   1.520   1.241  0.00  0.00     0.020 C 
ENDBRANCH   1   2
BRANCH   1  12
HETATM   12  C   UNK N   1       3.341   2.276  -0.022  0.00  0.00    -0.062 C 
HETATM   13  C   UNK N   1       4.581   1.438   0.103  0.00  0.00     0.048 C 
BRANCH  12  14
HETATM   14  C   UNK N   1       3.426   3.762  -0.021  0.00  0.00     0.007 C 
BRANCH  14  15
HETATM   15  C   UNK N   1       4.576   4.444   0.092  0.00  0.00     0.001 C 
BRANCH  15  16
HETATM   16  C   UNK N   1       4.540   5.929   0.118  0.00  0.00     0.007 C 
BRANCH  16  17
HETATM   17  C   UNK N   1       5.640   6.698   0.209  0.00  0.00    -0.063 C 
HETATM   18  C   UNK N   1       7.013   6.093   0.281  0.00  0.00     0.048 C 
BRANCH  17  19
HETATM   19  C   UNK N   1       5.474   8.167   0.233  0.00  0.00    -0.004 C 
HETATM   20  C   UNK N   1       6.511   9.000   0.318  0.00  0.00     0.012 C 
ENDBRANCH  17  19
ENDBRANCH  16  17
ENDBRANCH  15  16
ENDBRANCH  14  15
ENDBRANCH  12  14
ENDBRANCH   1  12
TORSDOF 7
