REMARK  13 active torsions:
REMARK  status: ('A' for Active; 'I' for Inactive)
REMARK    1  A    between atoms: C_2  and  C_4 
REMARK    2  A    between atoms: C_4  and  C_5 
REMARK    3  A    between atoms: C_5  and  N_6 
REMARK    4  A    between atoms: C_5  and  C_11 
REMARK       I    between atoms: N_6  and  C_7 
REMARK       I    between atoms: C_7  and  N_8 
REMARK       I    between atoms: C_11  and  N_13 
REMARK    5  A    between atoms: N_13  and  C_14 
REMARK    6  A    between atoms: C_14  and  C_15 
REMARK       I    between atoms: C_15  and  N_17 
REMARK    7  A    between atoms: C_20  and  C_23 
REMARK    8  A    between atoms: C_25  and  C_30 
REMARK    9  A    between atoms: C_33  and  O_34 
REMARK   10  A    between atoms: O_34  and  C_35 
REMARK   11  A    between atoms: C_35  and  C_36 
REMARK   12  A    between atoms: C_39  and  C_41 
REMARK   13  A    between atoms: C_41  and  O_42 
ROOT
HETATM    1  C   UNK N   1      -0.238  -6.807   0.144  0.00  0.00     0.237 C 
HETATM    2  O   UNK N   1       0.207  -5.681   0.317  0.00  0.00    -0.272 OA
HETATM    3  N   UNK N   1       0.544  -7.755  -0.450  0.00  0.00    -0.351 N 
HETATM    4  C   UNK N   1       1.953  -7.518  -0.544  0.00  0.00     0.126 C 
HETATM    5  C   UNK N   1       2.529  -8.320   0.622  0.00  0.00     0.030 C 
HETATM    6  C   UNK N   1       2.206  -9.828   0.434  0.00  0.00     0.040 C 
HETATM    7  C   UNK N   1       0.738 -10.126   0.160  0.00  0.00     0.030 C 
HETATM    8  C   UNK N   1       0.083  -9.095  -0.756  0.00  0.00     0.126 C 
ENDROOT
BRANCH   6   9
HETATM    9  C   UNK N   1       3.242 -10.477  -0.427  0.00  0.00     0.034 A 
HETATM   10  C   UNK N   1       4.055  -9.712  -1.210  0.00  0.00     0.059 A 
HETATM   11  C   UNK N   1       5.280 -10.328  -1.168  0.00  0.00     0.062 A 
HETATM   12  N   UNK N   1       5.160 -11.488  -0.480  0.00  0.00    -0.298 N 
HETATM   13  N   UNK N   1       3.921 -11.574  -0.049  0.00  0.00    -0.300 N 
ATOM     14  HN  UNK N   1       5.900 -12.173  -0.324  1.00  0.00     0.187 HD
HETATM   15  C   UNK N   1       3.495 -12.536   0.957  0.00  0.00     0.177 C 
BRANCH  11  16
HETATM   16  C   UNK N   1       6.419  -9.398  -0.956  0.00  0.00     0.016 A 
HETATM   17  C   UNK N   1       6.186  -8.053  -1.278  0.00  0.00     0.018 A 
HETATM   18  C   UNK N   1       6.981  -7.043  -0.791  0.00  0.00     0.039 A 
HETATM   19  C   UNK N   1       8.035  -7.316   0.061  0.00  0.00     0.092 A 
HETATM   20  C   UNK N   1       8.347  -8.683   0.369  0.00  0.00     0.090 A 
HETATM   21 Cl   UNK N   1       9.651  -9.143   1.471  0.00  0.00    -0.080 Cl
HETATM   22  C   UNK N   1       7.541  -9.724  -0.156  0.00  0.00     0.071 A 
HETATM   23 Cl   UNK N   1       7.892 -11.400   0.299  0.00  0.00    -0.081 Cl
BRANCH  19  24
HETATM   24  O   UNK N   1       8.682  -6.227   0.552  0.00  0.00    -0.343 OA
BRANCH  24  25
HETATM   25  C   UNK N   1       9.750  -6.218   1.405  0.00  0.00     0.240 C 
BRANCH  25  26
HETATM   26  C   UNK N   1      11.002  -6.275   0.614  0.00  0.00     0.078 A 
HETATM   27  C   UNK N   1      11.524  -5.278  -0.188  0.00  0.00     0.038 A 
HETATM   28  C   UNK N   1      12.717  -5.791  -0.678  0.00  0.00     0.047 A 
HETATM   29  C   UNK N   1      12.816  -7.064  -0.143  0.00  0.00     0.148 A 
HETATM   30  O   UNK N   1      11.786  -7.315   0.613  0.00  0.00    -0.306 OA
BRANCH  29  31
HETATM   31  C   UNK N   1      13.913  -8.016  -0.329  0.00  0.00     0.201 C 
HETATM   32  O   UNK N   1      13.825  -9.140   0.139  0.00  0.00    -0.645 OA
BRANCH  31  33
HETATM   33  O   UNK N   1      15.029  -7.649  -0.985  0.00  0.00    -0.771 OA
HETATM   34  H   UNK N   1      15.639  -8.194  -1.442  0.00  0.00     0.167 HD
ENDBRANCH  31  33
ENDBRANCH  29  31
ENDBRANCH  25  26
ENDBRANCH  24  25
ENDBRANCH  19  24
ENDBRANCH  11  16
ENDBRANCH   6   9
BRANCH   1  35
HETATM   35  C   UNK N   1      -1.547  -7.135   0.803  0.00  0.00     0.225 C 
BRANCH  35  36
HETATM   36  N   UNK N   1      -2.419  -8.023   0.085  0.00  0.00    -0.351 N 
HETATM   37  C   UNK N   1      -2.661  -9.280   0.537  0.00  0.00     0.241 C 
HETATM   38  O   UNK N   1      -2.009  -9.737   1.469  0.00  0.00    -0.271 OA
HETATM   39  H   UNK N   1      -2.847  -7.715  -0.747  0.00  0.00     0.163 HD
BRANCH  37  40
HETATM   40  C   UNK N   1      -3.765 -10.095  -0.090  0.00  0.00     0.192 C 
BRANCH  40  41
HETATM   41  C   UNK N   1      -3.760 -11.529   0.434  0.00  0.00     0.039 C 
BRANCH  41  42
HETATM   42  C   UNK N   1      -3.646 -12.528  -0.699  0.00  0.00    -0.020 C 
HETATM   43  C   UNK N   1      -2.184 -12.826  -0.969  0.00  0.00     0.009 C 
HETATM   44  C   UNK N   1      -4.346 -13.810  -0.299  0.00  0.00     0.009 C 
ENDBRANCH  41  42
ENDBRANCH  40  41
BRANCH  40  45
HETATM   45  N   UNK N   1      -5.046  -9.523   0.272  0.00  0.00    -0.214 N 
HETATM   46  C   UNK N   1      -5.519  -8.245  -0.134  0.00  0.00     0.666 C 
HETATM   47  N   UNK N   1      -6.741  -7.765   0.382  0.00  0.00    -0.235 N 
HETATM   48  N   UNK N   1      -4.885  -7.551  -1.005  0.00  0.00    -0.235 N 
HETATM   49  H   UNK N   1      -6.877  -6.859   0.743  0.00  0.00     0.174 HD
HETATM   50  H   UNK N   1      -7.511  -8.378   0.382  0.00  0.00     0.174 HD
HETATM   51  H   UNK N   1      -4.179  -7.706  -1.674  0.00  0.00     0.174 HD
ATOM     52  HN  UNK N   1      -5.193  -6.578  -1.005  1.00  0.00     0.174 HD
HETATM   53  H   UNK N   1      -5.636 -10.063   0.846  0.00  0.00     0.178 HD
ENDBRANCH  40  45
ENDBRANCH  37  40
ENDBRANCH  35  36
ENDBRANCH   1  35
TORSDOF 13
