REMARK  31 active torsions:
REMARK  status: ('A' for Active; 'I' for Inactive)
REMARK    1  A    between atoms: S_1  and  C_2 
REMARK    2  A    between atoms: S_1  and  C_52 
REMARK    3  A    between atoms: C_2  and  C_3 
REMARK    4  A    between atoms: C_3  and  N_4 
REMARK       I    between atoms: N_4  and  C_5 
REMARK    5  A    between atoms: C_5  and  C_6 
REMARK    6  A    between atoms: C_6  and  C_7 
REMARK    7  A    between atoms: C_7  and  N_8 
REMARK       I    between atoms: N_8  and  C_9 
REMARK    8  A    between atoms: C_9  and  C_10 
REMARK    9  A    between atoms: C_10  and  C_11 
REMARK   10  A    between atoms: C_10  and  O_16 
REMARK   11  A    between atoms: C_11  and  C_12 
REMARK   12  A    between atoms: C_12  and  O_13 
REMARK   13  A    between atoms: O_13  and  P_19 
REMARK   14  A    between atoms: P_19  and  O_21 
REMARK   15  A    between atoms: P_19  and  O_51 
REMARK   16  A    between atoms: C_22  and  O_28 
REMARK   17  A    between atoms: C_23  and  O_29 
REMARK   18  A    between atoms: C_24  and  C_27 
REMARK   19  A    between atoms: C_26  and  N_36 
REMARK   20  A    between atoms: C_27  and  O_47 
REMARK   21  A    between atoms: O_29  and  P_30 
REMARK   22  A    between atoms: P_30  and  O_31 
REMARK   23  A    between atoms: P_30  and  O_32 
REMARK   24  A    between atoms: C_40  and  N_46 
REMARK   25  A    between atoms: O_47  and  P_48 
REMARK   26  A    between atoms: P_48  and  O_49 
REMARK   27  A    between atoms: P_48  and  O_51 
REMARK   28  A    between atoms: C_52  and  C_53 
REMARK   29  A    between atoms: C_53  and  C_54 
REMARK   30  A    between atoms: C_54  and  C_55 
REMARK   31  A    between atoms: C_55  and  C_56 
ROOT
HETATM    1  P   UNK N   1      18.783  -8.460   0.552  0.00  0.00     0.401 P 
HETATM    2  O   UNK N   1      19.635  -8.690   1.829  0.00  0.00    -0.631 OA
ENDROOT
BRANCH   1   3
HETATM    3  O   UNK N   1      17.586  -7.232   0.958  0.00  0.00    -0.294 OA
BRANCH   3   4
HETATM    4  C   UNK N   1      16.396  -7.879   1.325  0.00  0.00     0.215 C 
BRANCH   4   5
HETATM    5  C   UNK N   1      15.332  -7.737   0.229  0.00  0.00     0.180 C 
HETATM    6  C   UNK N   1      14.515  -8.985   0.182  0.00  0.00     0.197 C 
HETATM    7  C   UNK N   1      13.316  -8.601  -0.624  0.00  0.00     0.199 C 
HETATM    8  C   UNK N   1      13.275  -7.087  -0.360  0.00  0.00     0.262 C 
HETATM    9  O   UNK N   1      14.380  -6.718   0.466  0.00  0.00    -0.353 OA
BRANCH   6  10
HETATM   10  O   UNK N   1      15.186 -10.168  -0.190  0.00  0.00    -0.286 OA
BRANCH  10  11
HETATM   11  P   UNK N   1      15.697 -10.090  -1.864  0.00  0.00     0.391 P 
HETATM   12  O   UNK N   1      16.595 -11.333  -2.094  0.00  0.00    -0.632 OA
BRANCH  11  13
HETATM   13  O   UNK N   1      14.366 -10.240  -2.962  0.00  0.00    -0.307 OA
HETATM   14  H   UNK N   1      13.921  -9.637  -3.578  0.00  0.00     0.222 HD
ENDBRANCH  11  13
BRANCH  11  15
HETATM   15  O   UNK N   1      16.688  -8.704  -2.204  0.00  0.00    -0.307 OA
HETATM   16  H   UNK N   1      17.635  -8.797  -2.394  0.00  0.00     0.222 HD
ENDBRANCH  11  15
ENDBRANCH  10  11
ENDBRANCH   6  10
BRANCH   7  17
HETATM   17  O   UNK N   1      12.237  -9.307  -0.118  0.00  0.00    -0.388 OA
HETATM   18  H   UNK N   1      11.431  -8.899   0.236  0.00  0.00     0.210 HD
ENDBRANCH   7  17
BRANCH   8  19
HETATM   19  N   UNK N   1      11.989  -6.463   0.040  0.00  0.00    -0.297 N 
HETATM   20  C   UNK N   1      10.701  -6.843  -0.155  0.00  0.00     0.142 A 
HETATM   21  C   UNK N   1       9.876  -5.902   0.353  0.00  0.00     0.122 A 
HETATM   22  N   UNK N   1      10.223  -7.957  -0.760  0.00  0.00    -0.336 N 
HETATM   23  N   UNK N   1      10.594  -4.892   0.867  0.00  0.00    -0.346 N 
HETATM   24  C   UNK N   1       8.497  -6.068   0.285  0.00  0.00     0.131 A 
HETATM   25  C   UNK N   1      11.893  -5.254   0.656  0.00  0.00     0.188 A 
ATOM     26  HN  UNK N   1      10.247  -4.044   1.314  1.00  0.00     0.167 HD
HETATM   27  N   UNK N   1       8.014  -7.202  -0.300  0.00  0.00    -0.337 N 
HETATM   28  C   UNK N   1       8.867  -8.142  -0.822  0.00  0.00     0.183 A 
ATOM     29  HN  UNK N   1       7.006  -7.353  -0.352  1.00  0.00     0.168 HD
ATOM     30  HN  UNK N   1      10.860  -8.644  -1.161  1.00  0.00     0.168 HD
BRANCH  24  31
HETATM   31  N   UNK N   1       7.615  -5.097   0.802  0.00  0.00    -0.383 N 
HETATM   32  H   UNK N   1       7.894  -4.224   1.162  0.00  0.00     0.157 HD
HETATM   33  H   UNK N   1       6.653  -5.306   0.802  0.00  0.00     0.157 HD
ENDBRANCH  24  31
ENDBRANCH   8  19
ENDBRANCH   4   5
ENDBRANCH   3   4
ENDBRANCH   1   3
BRANCH   1  34
HETATM   34  O   UNK N   1      19.842  -7.772  -0.643  0.00  0.00    -0.307 OA
HETATM   35  H   UNK N   1      20.470  -8.091  -1.310  0.00  0.00     0.222 HD
ENDBRANCH   1  34
BRANCH   1  36
HETATM   36  O   UNK N   1      18.035  -9.971   0.020  0.00  0.00    -0.195 OA
BRANCH  36  37
HETATM   37  P   UNK N   1      19.043 -11.408   0.241  0.00  0.00     0.401 P 
HETATM   38  O   UNK N   1      20.177 -11.180   1.280  0.00  0.00    -0.631 OA
BRANCH  37  39
HETATM   39  O   UNK N   1      18.189 -12.864   0.740  0.00  0.00    -0.296 OA
BRANCH  39  40
HETATM   40  C   UNK N   1      16.796 -12.657   0.704  0.00  0.00     0.192 C 
BRANCH  40  41
HETATM   41  C   UNK N   1      16.048 -13.994   0.462  0.00  0.00     0.009 C 
HETATM   42  C   UNK N   1      16.294 -14.468  -0.963  0.00  0.00     0.020 C 
HETATM   43  C   UNK N   1      16.603 -15.074   1.381  0.00  0.00     0.020 C 
BRANCH  41  44
HETATM   44  C   UNK N   1      14.527 -13.894   0.751  0.00  0.00     0.219 C 
BRANCH  44  45
HETATM   45  C   UNK N   1      13.726 -13.020  -0.213  0.00  0.00     0.247 C 
HETATM   46  N   UNK N   1      12.902 -12.015   0.182  0.00  0.00    -0.358 N 
HETATM   47  H   UNK N   1      12.516 -11.446  -0.522  0.00  0.00     0.162 HD
HETATM   48  O   UNK N   1      13.800 -13.262  -1.407  0.00  0.00    -0.271 OA
BRANCH  46  49
HETATM   49  C   UNK N   1      12.543 -11.708   1.549  0.00  0.00     0.132 C 
BRANCH  49  50
HETATM   50  C   UNK N   1      11.030 -11.507   1.668  0.00  0.00     0.122 C 
BRANCH  50  51
HETATM   51  C   UNK N   1      10.279 -12.455   0.786  0.00  0.00     0.219 C 
HETATM   52  N   UNK N   1       9.599 -11.969  -0.279  0.00  0.00    -0.360 N 
HETATM   53  H   UNK N   1       9.534 -10.994  -0.404  0.00  0.00     0.162 HD
HETATM   54  O   UNK N   1      10.336 -13.659   0.994  0.00  0.00    -0.274 OA
BRANCH  52  55
HETATM   55  C   UNK N   1       8.969 -12.844  -1.235  0.00  0.00     0.133 C 
BRANCH  55  56
HETATM   56  C   UNK N   1       7.461 -12.726  -1.157  0.00  0.00     0.102 C 
BRANCH  56  57
HETATM   57  S   UNK N   1       6.860 -13.419   0.413  0.00  0.00    -0.091 SA
BRANCH  57  58
HETATM   58  C   UNK N   1       6.370 -11.808   1.029  0.00  0.00     0.186 C 
HETATM   59  O   UNK N   1       7.167 -11.126   1.653  0.00  0.00    -0.286 OA
BRANCH  58  60
HETATM   60  C   UNK N   1       4.978 -11.311   0.815  0.00  0.00     0.091 C 
BRANCH  60  61
HETATM   61  C   UNK N   1       4.689 -11.129  -0.668  0.00  0.00     0.008 C 
BRANCH  61  62
HETATM   62  C   UNK N   1       3.692 -12.164  -1.167  0.00  0.00     0.000 C 
BRANCH  62  63
HETATM   63  C   UNK N   1       2.281 -11.817  -0.721  0.00  0.00    -0.005 C 
HETATM   64  C   UNK N   1       1.924 -12.599   0.527  0.00  0.00     0.005 C 
ENDBRANCH  62  63
ENDBRANCH  61  62
ENDBRANCH  60  61
ENDBRANCH  58  60
ENDBRANCH  57  58
ENDBRANCH  56  57
ENDBRANCH  55  56
ENDBRANCH  52  55
ENDBRANCH  50  51
ENDBRANCH  49  50
ENDBRANCH  46  49
ENDBRANCH  44  45
BRANCH  44  65
HETATM   65  O   UNK N   1      14.325 -13.559   2.095  0.00  0.00    -0.385 OA
HETATM   66  H   UNK N   1      14.457 -13.321   3.026  0.00  0.00     0.210 HD
ENDBRANCH  44  65
ENDBRANCH  41  44
ENDBRANCH  40  41
ENDBRANCH  39  40
ENDBRANCH  37  39
BRANCH  37  67
HETATM   67  O   UNK N   1      19.852 -11.796  -1.239  0.00  0.00    -0.307 OA
HETATM   68  H   UNK N   1      19.890 -12.298  -2.068  0.00  0.00     0.222 HD
ENDBRANCH  37  67
ENDBRANCH  36  37
ENDBRANCH   1  36
TORSDOF 31
