REMARK  4 active torsions:
REMARK  status: ('A' for Active; 'I' for Inactive)
REMARK    1  A    between atoms: C_2  and  C_4 
REMARK    2  A    between atoms: C_4  and  N_5 
REMARK    3  A    between atoms: C_4  and  C_6 
REMARK       I    between atoms: C_6  and  N_8 
REMARK    4  A    between atoms: N_8  and  O_9 
ROOT
HETATM    1  C   UNK N   1       1.053   0.548   0.310  0.00  0.00     0.172 C 
ENDROOT
BRANCH   1   2
HETATM    2  C   UNK N   1      -0.263   1.034  -0.334  0.00  0.00     0.009 C 
HETATM    3  C   UNK N   1      -1.417   0.129   0.069  0.00  0.00     0.012 C 
HETATM    4  C   UNK N   1      -0.636   2.443   0.097  0.00  0.00     0.012 C 
ENDBRANCH   1   2
BRANCH   1   5
HETATM    5  N   UNK N   1       1.294  -0.835  -0.081  0.00  0.00    -0.418 N 
HETATM    6  H   UNK N   1       0.540  -1.465  -0.354  0.00  0.00     0.150 HD
HETATM    7  H   UNK N   1       2.252  -1.186  -0.081  0.00  0.00     0.150 HD
ENDBRANCH   1   5
BRANCH   1   8
HETATM    8  C   UNK N   1       2.268   1.441   0.025  0.00  0.00     0.263 C 
HETATM    9  O   UNK N   1       2.112   2.648  -0.032  0.00  0.00    -0.269 OA
HETATM   10  N   UNK N   1       3.533   0.954  -0.091  0.00  0.00    -0.236 N 
HETATM   11  H   UNK N   1       4.264   1.587  -0.278  0.00  0.00     0.197 HD
BRANCH  10  12
HETATM   12  O   UNK N   1       3.830  -0.344   0.037  0.00  0.00    -0.287 OA
HETATM   13  H   UNK N   1       3.123  -1.002   0.130  0.00  0.00     0.244 HD
ENDBRANCH  10  12
ENDBRANCH   1   8
TORSDOF 4
