REMARK  10 active torsions:
REMARK  status: ('A' for Active; 'I' for Inactive)
REMARK    1  A    between atoms: C_8  and  C_4 
REMARK    2  A    between atoms: O_32  and  C_4 
REMARK    3  A    between atoms: C_7  and  C_14 
REMARK    4  A    between atoms: C_10  and  O_27 
REMARK    5  A    between atoms: C_11  and  O_28 
REMARK    6  A    between atoms: N_16  and  C_12 
REMARK    7  A    between atoms: O_29  and  C_14 
REMARK    8  A    between atoms: C_15  and  N_26 
REMARK    9  A    between atoms: N_24  and  S_34 
REMARK   10  A    between atoms: S_34  and  O_32 
ROOT
HETATM    1  C   UNK N   1       0.907  -1.854   0.137  0.00  0.00     0.180 C 
HETATM    2  C   UNK N   1       2.379  -2.136  -0.150  0.00  0.00     0.182 C 
HETATM    3  C   UNK N   1       2.982  -0.737  -0.055  0.00  0.00     0.198 C 
HETATM    4  C   UNK N   1       1.788   0.116   0.372  0.00  0.00     0.262 C 
HETATM    5  O   UNK N   1       0.684  -0.510  -0.248  0.00  0.00    -0.353 OA
ENDROOT
BRANCH   1   6
HETATM    6  C   UNK N   1      -0.047  -2.851  -0.497  0.00  0.00     0.226 C 
BRANCH   6   7
HETATM    7  O   UNK N   1      -1.384  -2.514  -0.193  0.00  0.00    -0.257 OA
BRANCH   7   8
HETATM    8  S   UNK N   1      -2.203  -3.618   0.911  0.00  0.00     0.363 S 
HETATM    9  O   UNK N   1      -1.658  -4.742   0.008  0.00  0.00    -0.175 OA
HETATM   10  O   UNK N   1      -1.224  -3.057   1.953  0.00  0.00    -0.175 OA
BRANCH   8  11
HETATM   11  N   UNK N   1      -3.488  -2.585   0.310  0.00  0.00    -0.243 N 
HETATM   12  C   UNK N   1      -4.580  -2.937  -0.287  0.00  0.00     0.149 C 
ATOM     13  HN  UNK N   1      -3.357  -1.583   0.448  1.00  0.00     0.182 HD
BRANCH  12  14
HETATM   14  C   UNK N   1      -5.045  -4.369  -0.516  0.00  0.00     0.152 C 
HETATM   15  C   UNK N   1      -4.395  -5.476   0.281  0.00  0.00     0.035 C 
HETATM   16  C   UNK N   1      -5.405  -6.592   0.231  0.00  0.00     0.022 C 
HETATM   17  C   UNK N   1      -6.726  -5.894  -0.029  0.00  0.00     0.114 C 
HETATM   18  N   UNK N   1      -6.459  -4.468  -0.186  0.00  0.00    -0.410 N 
HETATM   19  H   UNK N   1      -7.124  -3.701  -0.087  0.00  0.00     0.154 HD
ENDBRANCH  12  14
BRANCH  12  20
HETATM   20  O   UNK N   1      -5.357  -1.957  -0.788  0.00  0.00    -0.347 OA
HETATM   21  H   UNK N   1      -5.037  -1.149  -1.137  0.00  0.00     0.219 HD
ENDBRANCH  12  20
ENDBRANCH   8  11
ENDBRANCH   7   8
ENDBRANCH   6   7
ENDBRANCH   1   6
BRANCH   2  22
HETATM   22  O   UNK N   1       2.552  -2.622  -1.452  0.00  0.00    -0.390 OA
HETATM   23  H   UNK N   1       2.321  -2.894  -2.354  0.00  0.00     0.210 HD
ENDBRANCH   2  22
BRANCH   3  24
HETATM   24  O   UNK N   1       4.037  -0.675   0.858  0.00  0.00    -0.388 OA
HETATM   25  H   UNK N   1       4.441  -1.287   1.492  0.00  0.00     0.210 HD
ENDBRANCH   3  24
BRANCH   4  26
HETATM   26  N   UNK N   1       1.887   1.547   0.052  0.00  0.00    -0.297 N 
HETATM   27  C   UNK N   1       0.851   2.428   0.063  0.00  0.00     0.188 A 
HETATM   28  N   UNK N   1       1.282   3.709  -0.113  0.00  0.00    -0.346 N 
HETATM   29  C   UNK N   1       2.619   3.602  -0.202  0.00  0.00     0.122 A 
ATOM     30  HN  UNK N   1       0.717   4.557  -0.166  1.00  0.00     0.167 HD
HETATM   31  C   UNK N   1       3.584   4.590  -0.316  0.00  0.00     0.131 A 
HETATM   32  C   UNK N   1       2.983   2.307  -0.111  0.00  0.00     0.142 A 
HETATM   33  N   UNK N   1       4.895   4.207  -0.335  0.00  0.00    -0.337 N 
HETATM   34  C   UNK N   1       5.245   2.882  -0.243  0.00  0.00     0.183 A 
ATOM     35  HN  UNK N   1       5.625   4.914  -0.420  1.00  0.00     0.168 HD
HETATM   36  N   UNK N   1       4.280   1.919  -0.120  0.00  0.00    -0.336 N 
ATOM     37  HN  UNK N   1       4.532   0.934  -0.037  1.00  0.00     0.168 HD
BRANCH  31  38
HETATM   38  N   UNK N   1       3.234   5.954  -0.373  0.00  0.00    -0.383 N 
HETATM   39  H   UNK N   1       3.937   6.642  -0.413  0.00  0.00     0.157 HD
HETATM   40  H   UNK N   1       2.286   6.219  -0.373  0.00  0.00     0.157 HD
ENDBRANCH  31  38
ENDBRANCH   4  26
TORSDOF 10
