REMARK  13 active torsions:
REMARK  status: ('A' for Active; 'I' for Inactive)
REMARK    1  A    between atoms: C_22  and  C_17 
REMARK    2  A    between atoms: C_25  and  C_17 
REMARK    3  A    between atoms: C_23  and  C_18 
REMARK    4  A    between atoms: N_33  and  C_18 
REMARK    5  A    between atoms: C_29  and  C_24 
REMARK    6  A    between atoms: C_27  and  C_25 
REMARK    7  A    between atoms: C_25  and  N_35 
REMARK    8  A    between atoms: O_38  and  C_26 
REMARK    9  A    between atoms: C_31  and  C_27 
REMARK   10  A    between atoms: C_27  and  O_39 
REMARK   11  A    between atoms: C_28  and  C_30 
REMARK   12  A    between atoms: C_29  and  O_40 
REMARK   13  A    between atoms: O_41  and  C_30 
REMARK       I    between atoms: N_37  and  C_31 
ROOT
HETATM    1  C   UNK N   1       0.027  -4.283  -0.962  0.00  0.00     0.233 C 
ENDROOT
BRANCH   1   2
HETATM    2  C   UNK N   1      -1.182  -4.481  -0.033  0.00  0.00     0.125 C 
BRANCH   2   3
HETATM    3  C   UNK N   1      -2.095  -5.648  -0.430  0.00  0.00     0.066 C 
BRANCH   3   4
HETATM    4  C   UNK N   1      -1.500  -7.002  -0.287  0.00  0.00    -0.056 A 
HETATM    5  C   UNK N   1      -0.674  -7.318   0.800  0.00  0.00     0.007 A 
HETATM    6  C   UNK N   1      -0.096  -8.584   0.890  0.00  0.00     0.001 A 
HETATM    7  C   UNK N   1      -0.355  -9.538  -0.098  0.00  0.00     0.000 A 
HETATM    8  C   UNK N   1      -1.193  -9.227  -1.173  0.00  0.00     0.001 A 
HETATM    9  C   UNK N   1      -1.760  -7.956  -1.269  0.00  0.00     0.007 A 
ENDBRANCH   3   4
ENDBRANCH   2   3
BRANCH   2  10
HETATM   10  N   UNK N   1      -2.094  -3.364  -0.100  0.00  0.00    -0.362 N 
HETATM   11  C   UNK N   1      -2.711  -2.942   0.943  0.00  0.00     0.147 C 
ATOM     12  HN  UNK N   1      -2.251  -2.900  -0.995  1.00  0.00     0.162 HD
BRANCH  11  13
HETATM   13  C   UNK N   1      -4.179  -3.074   0.859  0.00  0.00     0.023 A 
HETATM   14  C   UNK N   1      -4.815  -3.643   1.970  0.00  0.00     0.016 A 
HETATM   15  C   UNK N   1      -6.125  -4.104   1.882  0.00  0.00     0.004 A 
HETATM   16  C   UNK N   1      -6.816  -4.012   0.676  0.00  0.00     0.037 A 
HETATM   17  C   UNK N   1      -6.213  -3.426  -0.440  0.00  0.00     0.072 A 
HETATM   18  C   UNK N   1      -4.893  -2.950  -0.363  0.00  0.00    -0.014 A 
HETATM   19  C   UNK N   1      -4.260  -2.360  -1.587  0.00  0.00     0.052 C 
BRANCH  17  20
HETATM   20  O   UNK N   1      -6.897  -3.356  -1.595  0.00  0.00    -0.360 OA
HETATM   21  H   UNK N   1      -7.093  -2.918  -2.400  0.00  0.00     0.217 HD
ENDBRANCH  17  20
ENDBRANCH  11  13
BRANCH  11  22
HETATM   22  O   UNK N   1      -2.131  -3.035   2.160  0.00  0.00    -0.346 OA
HETATM   23  H   UNK N   1      -1.986  -3.415   3.004  0.00  0.00     0.219 HD
ENDBRANCH  11  22
ENDBRANCH   2  10
ENDBRANCH   1   2
BRANCH   1  24
HETATM   24  C   UNK N   1       1.151  -3.645  -0.169  0.00  0.00     0.252 C 
HETATM   25  N   UNK N   1       2.434  -4.155  -0.089  0.00  0.00    -0.327 N 
HETATM   26  C   UNK N   1       2.795  -5.455  -0.610  0.00  0.00     0.201 C 
HETATM   27  C   UNK N   1       3.503  -3.475   0.622  0.00  0.00     0.180 C 
HETATM   28  S   UNK N   1       4.200  -6.039   0.393  0.00  0.00    -0.137 SA
HETATM   29  C   UNK N   1       4.775  -4.321   0.404  0.00  0.00     0.030 C 
HETATM   30  C   UNK N   1       5.793  -4.099   1.508  0.00  0.00     0.029 C 
HETATM   31  C   UNK N   1       5.444  -4.063  -0.944  0.00  0.00     0.029 C 
HETATM   32  O   UNK N   1       0.883  -2.606   0.432  0.00  0.00    -0.270 OA
BRANCH  27  33
HETATM   33  C   UNK N   1       3.671  -2.019   0.192  0.00  0.00     0.136 C 
HETATM   34  N   UNK N   1       2.925  -1.551  -0.750  0.00  0.00    -0.368 N 
ATOM     35  HN  UNK N   1       2.365  -2.213  -1.287  1.00  0.00     0.161 HD
BRANCH  34  36
HETATM   36  C   UNK N   1       2.831  -0.158  -1.095  0.00  0.00     0.160 C 
BRANCH  36  37
HETATM   37  C   UNK N   1       1.412   0.270  -0.820  0.00  0.00    -0.035 A 
HETATM   38  C   UNK N   1       0.356  -0.336  -1.522  0.00  0.00     0.009 A 
HETATM   39  C   UNK N   1      -0.971   0.007  -1.243  0.00  0.00     0.001 A 
HETATM   40  C   UNK N   1      -1.255   0.959  -0.262  0.00  0.00     0.001 A 
HETATM   41  C   UNK N   1      -0.212   1.571   0.439  0.00  0.00     0.007 A 
HETATM   42  C   UNK N   1       1.119   1.231   0.167  0.00  0.00    -0.054 A 
HETATM   43  C   UNK N   1       2.205   1.889   0.948  0.00  0.00     0.049 C 
ENDBRANCH  36  37
ENDBRANCH  34  36
BRANCH  33  44
HETATM   44  O   UNK N   1       4.531  -1.217   0.852  0.00  0.00    -0.348 OA
HETATM   45  H   UNK N   1       5.312  -1.456   1.311  0.00  0.00     0.219 HD
ENDBRANCH  33  44
ENDBRANCH  27  33
ENDBRANCH   1  24
BRANCH   1  46
HETATM   46  O   UNK N   1       0.413  -5.489  -1.552  0.00  0.00    -0.384 OA
HETATM   47  H   UNK N   1      -0.178  -6.140  -1.961  0.00  0.00     0.210 HD
ENDBRANCH   1  46
TORSDOF 13
