REMARK  22 active torsions:
REMARK  status: ('A' for Active; 'I' for Inactive)
REMARK    1  A    between atoms: C_5  and  C_1 
REMARK    2  A    between atoms: N_10  and  C_1 
REMARK    3  A    between atoms: C_7  and  C_2 
REMARK    4  A    between atoms: N_10  and  C_2 
REMARK    5  A    between atoms: C_6  and  C_3 
REMARK    6  A    between atoms: O_23  and  C_3 
REMARK    7  A    between atoms: N_10  and  C_4 
REMARK    8  A    between atoms: P_24  and  C_4 
REMARK    9  A    between atoms: C_8  and  C_5 
REMARK   10  A    between atoms: C_5  and  O_11 
REMARK   11  A    between atoms: C_9  and  C_6 
REMARK   12  A    between atoms: C_6  and  O_12 
REMARK   13  A    between atoms: O_13  and  C_7 
REMARK   14  A    between atoms: O_14  and  C_7 
REMARK   15  A    between atoms: C_9  and  C_8 
REMARK   16  A    between atoms: C_8  and  O_15 
REMARK   17  A    between atoms: C_9  and  O_16 
REMARK   18  A    between atoms: P_24  and  O_17 
REMARK   19  A    between atoms: P_24  and  O_18 
REMARK   20  A    between atoms: P_25  and  O_20 
REMARK   21  A    between atoms: P_25  and  O_21 
REMARK   22  A    between atoms: P_25  and  O_23 
ROOT
HETATM    1  C   UNK N   1       2.306  -0.070  -0.924  0.00  0.00     0.177 C 
ENDROOT
BRANCH   1   2
HETATM    2  C   UNK N   1       1.666  -0.260   0.455  0.00  0.00     0.307 C 
BRANCH   2   3
HETATM    3  N   UNK N   1       0.214  -0.378   0.357  0.00  0.00     0.112 N 
BRANCH   3   4
HETATM    4  C   UNK N   1      -0.113  -1.709   0.850  0.00  0.00     0.379 C 
BRANCH   4   5
HETATM    5  C   UNK N   1      -0.299  -2.684  -0.269  0.00  0.00     0.135 C 
BRANCH   5   6
HETATM    6  O   UNK N   1       0.721  -2.958  -1.110  0.00  0.00    -0.777 OA
HETATM    7  H   UNK N   1       0.910  -3.666  -1.694  0.00  0.00     0.167 HD
ENDBRANCH   5   6
BRANCH   5   8
HETATM    8  O   UNK N   1      -1.470  -3.321  -0.412  0.00  0.00    -0.777 OA
HETATM    9  H   UNK N   1      -2.265  -2.835  -0.513  0.00  0.00     0.167 HD
ENDBRANCH   5   8
ENDBRANCH   4   5
ENDBRANCH   3   4
BRANCH   3  10
HETATM   10  C   UNK N   1      -0.385   0.541   1.313  0.00  0.00     0.397 C 
BRANCH  10  11
HETATM   11  P   UNK N   1      -0.699   2.211   0.547  0.00  0.00     0.264 P 
HETATM   12  O   UNK N   1       0.637   2.943   0.257  0.00  0.00    -0.652 OA
BRANCH  11  13
HETATM   13  O   UNK N   1      -1.556   3.317   1.575  0.00  0.00    -0.328 OA
HETATM   14  H   UNK N   1      -1.261   4.040   2.149  0.00  0.00     0.220 HD
ENDBRANCH  11  13
BRANCH  11  15
HETATM   15  O   UNK N   1      -1.523   2.198  -0.981  0.00  0.00    -0.328 OA
HETATM   16  H   UNK N   1      -1.759   2.593  -1.835  0.00  0.00     0.220 HD
ENDBRANCH  11  15
ENDBRANCH  10  11
ENDBRANCH   3  10
ENDBRANCH   2   3
ENDBRANCH   1   2
BRANCH   1  17
HETATM   17  C   UNK N   1       3.715  -0.699  -0.986  0.00  0.00     0.179 C 
BRANCH  17  18
HETATM   18  C   UNK N   1       4.726  -0.106   0.030  0.00  0.00     0.180 C 
BRANCH  18  19
HETATM   19  C   UNK N   1       6.122  -0.760  -0.078  0.00  0.00     0.173 C 
BRANCH  19  20
HETATM   20  C   UNK N   1       7.076  -0.113   0.922  0.00  0.00     0.214 C 
BRANCH  20  21
HETATM   21  O   UNK N   1       8.342  -0.716   0.889  0.00  0.00    -0.294 OA
BRANCH  21  22
HETATM   22  P   UNK N   1       9.407   0.461   0.169  0.00  0.00     0.390 P 
HETATM   23  O   UNK N   1       9.647   0.733   1.680  0.00  0.00    -0.632 OA
BRANCH  22  24
HETATM   24  O   UNK N   1      11.131   0.326   0.315  0.00  0.00    -0.307 OA
HETATM   25  H   UNK N   1      11.548  -0.546   0.396  0.00  0.00     0.222 HD
ENDBRANCH  22  24
BRANCH  22  26
HETATM   26  O   UNK N   1       9.947  -1.147  -0.205  0.00  0.00    -0.307 OA
HETATM   27  H   UNK N   1       9.320  -1.857  -0.414  0.00  0.00     0.222 HD
ENDBRANCH  22  26
ENDBRANCH  21  22
ENDBRANCH  20  21
ENDBRANCH  19  20
BRANCH  19  28
HETATM   28  O   UNK N   1       6.045  -2.128   0.197  0.00  0.00    -0.391 OA
HETATM   29  H   UNK N   1       5.197  -2.557   0.389  0.00  0.00     0.210 HD
ENDBRANCH  19  28
ENDBRANCH  18  19
BRANCH  18  30
HETATM   30  O   UNK N   1       4.855   1.269  -0.193  0.00  0.00    -0.390 OA
HETATM   31  H   UNK N   1       5.726   1.668  -0.347  0.00  0.00     0.210 HD
ENDBRANCH  18  30
ENDBRANCH  17  18
BRANCH  17  32
HETATM   32  O   UNK N   1       3.586  -2.076  -0.780  0.00  0.00    -0.390 OA
HETATM   33  H   UNK N   1       2.714  -2.476  -0.637  0.00  0.00     0.210 HD
ENDBRANCH  17  32
ENDBRANCH   1  17
BRANCH   1  34
HETATM   34  O   UNK N   1       2.352   1.288  -1.242  0.00  0.00    -0.391 OA
HETATM   35  H   UNK N   1       3.186   1.733  -1.463  0.00  0.00     0.210 HD
ENDBRANCH   1  34
TORSDOF 22
