REMARK  6 active torsions:
REMARK  status: ('A' for Active; 'I' for Inactive)
REMARK    1  A    between atoms: C_2  and  C_3 
REMARK    2  A    between atoms: C_3  and  N_4 
REMARK    3  A    between atoms: C_5  and  C_33 
REMARK    4  A    between atoms: C_8  and  C_9 
REMARK    5  A    between atoms: C_17  and  C_18 
REMARK       I    between atoms: C_23  and  N_24 
REMARK    6  A    between atoms: N_24  and  C_25 
ROOT
HETATM    1  N   UNK N   1       1.165  -1.237   0.601  0.00  0.00    -0.333 N 
HETATM    2  C   UNK N   1       2.259  -2.045   0.571  0.00  0.00     0.088 A 
HETATM    3  N   UNK N   1       1.930  -3.316   0.261  0.00  0.00    -0.343 N 
ATOM      4  HN  UNK N   1       2.567  -4.109   0.177  1.00  0.00     0.167 HD
HETATM    5  C   UNK N   1       0.591  -3.331   0.085  0.00  0.00     0.073 A 
HETATM    6  C   UNK N   1       0.102  -2.022   0.289  0.00  0.00     0.091 A 
ENDROOT
BRANCH   6   7
HETATM    7  C   UNK N   1      -1.321  -1.531   0.300  0.00  0.00     0.079 A 
HETATM    8  C   UNK N   1      -2.362  -2.405   0.599  0.00  0.00     0.050 A 
HETATM    9  C   UNK N   1      -3.670  -1.955   0.593  0.00  0.00     0.108 A 
HETATM   10  N   UNK N   1      -3.929  -0.663   0.297  0.00  0.00    -0.202 N 
HETATM   11  C   UNK N   1      -2.927   0.211   0.024  0.00  0.00     0.678 A 
ATOM     12  HN  UNK N   1      -4.896  -0.338   0.278  1.00  0.00     0.183 HD
HETATM   13  N   UNK N   1      -3.283   1.556  -0.272  0.00  0.00    -0.221 N 
HETATM   14  N   UNK N   1      -1.625  -0.221   0.041  0.00  0.00    -0.190 N 
HETATM   15  H   UNK N   1      -4.251   1.735  -0.300  0.00  0.00     0.178 HD
ATOM     16  HN  UNK N   1      -0.873   0.443  -0.142  1.00  0.00     0.184 HD
BRANCH  13  17
HETATM   17  C   UNK N   1      -2.439   2.703  -0.539  0.00  0.00     0.099 C 
HETATM   18  C   UNK N   1      -2.687   3.743   0.552  0.00  0.00     0.026 C 
HETATM   19  C   UNK N   1      -1.881   5.009   0.289  0.00  0.00     0.002 C 
HETATM   20  C   UNK N   1      -0.398   4.672   0.197  0.00  0.00     0.000 C 
HETATM   21  C   UNK N   1      -0.167   3.672  -0.931  0.00  0.00     0.002 C 
HETATM   22  C   UNK N   1      -0.952   2.391  -0.662  0.00  0.00     0.026 C 
ENDBRANCH  13  17
ENDBRANCH   6   7
BRANCH   5  23
HETATM   23  C   UNK N   1      -0.124  -4.617  -0.190  0.00  0.00    -0.005 A 
HETATM   24  C   UNK N   1       0.556  -5.829   0.010  0.00  0.00     0.015 A 
HETATM   25  C   UNK N   1      -0.116  -7.052  -0.102  0.00  0.00     0.026 A 
HETATM   26  C   UNK N   1      -1.477  -7.082  -0.422  0.00  0.00     0.055 A 
HETATM   27 Cl   UNK N   1      -2.311  -8.626  -0.490  0.00  0.00    -0.083 Cl
HETATM   28  C   UNK N   1      -2.154  -5.880  -0.670  0.00  0.00     0.056 A 
HETATM   29 Cl   UNK N   1      -3.863  -5.853  -1.075  0.00  0.00    -0.083 Cl
HETATM   30  C   UNK N   1      -1.472  -4.669  -0.556  0.00  0.00     0.039 A 
ENDBRANCH   5  23
BRANCH   1  31
HETATM   31  C   UNK N   1       1.100   0.150   1.055  0.00  0.00     0.130 C 
BRANCH  31  32
HETATM   32  C   UNK N   1       1.752   1.107   0.081  0.00  0.00     0.016 C 
HETATM   33  C   UNK N   1       2.176   2.347   0.842  0.00  0.00     0.006 C 
ENDBRANCH  31  32
ENDBRANCH   1  31
BRANCH   2  34
HETATM   34  C   UNK N   1       3.662  -1.678   1.043  0.00  0.00     0.057 C 
HETATM   35  C   UNK N   1       4.196  -0.287   0.699  0.00  0.00     0.031 C 
HETATM   36  C   UNK N   1       4.724  -0.236  -0.730  0.00  0.00     0.114 C 
HETATM   37  N   UNK N   1       5.793  -1.217  -0.893  0.00  0.00    -0.421 N 
HETATM   38  C   UNK N   1       5.216  -2.551  -0.737  0.00  0.00     0.114 C 
HETATM   39  H   UNK N   1       6.774  -1.007  -1.083  0.00  0.00     0.153 HD
HETATM   40  C   UNK N   1       4.713  -2.742   0.698  0.00  0.00     0.031 C 
ENDBRANCH   2  34
TORSDOF 6
