REMARK  14 active torsions:
REMARK  status: ('A' for Active; 'I' for Inactive)
REMARK    1  A    between atoms: C_6  and  C_5 
REMARK    2  A    between atoms: C_9  and  C_5 
REMARK    3  A    between atoms: C_10  and  C_6 
REMARK    4  A    between atoms: C_13  and  C_7 
REMARK    5  A    between atoms: N_21  and  C_8 
REMARK    6  A    between atoms: C_15  and  C_9 
REMARK    7  A    between atoms: C_9  and  N_22 
REMARK    8  A    between atoms: O_29  and  C_10 
REMARK    9  A    between atoms: N_18  and  C_11 
REMARK   10  A    between atoms: N_24  and  C_12 
REMARK       I    between atoms: N_22  and  C_13 
REMARK   11  A    between atoms: O_31  and  C_14 
REMARK   12  A    between atoms: O_33  and  C_15 
REMARK       I    between atoms: N_19  and  C_16 
REMARK   13  A    between atoms: N_21  and  C_17 
REMARK   14  A    between atoms: O_34  and  C_17 
ROOT
HETATM    1  N   UNK N   1       1.132  -2.956   0.735  0.00  0.00    -0.322 N 
HETATM    2  H   UNK N   1       2.008  -3.395   0.836  0.00  0.00     0.169 HD
ENDROOT
BRANCH   1   3
HETATM    3  C   UNK N   1      -0.012  -3.741   0.430  0.00  0.00     0.035 A 
HETATM    4  C   UNK N   1       0.177  -4.940  -0.248  0.00  0.00     0.030 A 
HETATM    5  C   UNK N   1      -0.908  -5.591  -0.828  0.00  0.00     0.019 A 
HETATM    6  C   UNK N   1      -2.215  -5.083  -0.717  0.00  0.00     0.032 A 
HETATM    7  C   UNK N   1      -2.417  -3.914   0.028  0.00  0.00     0.019 A 
HETATM    8  C   UNK N   1      -1.320  -3.236   0.581  0.00  0.00     0.030 A 
BRANCH   6   9
HETATM    9  C   UNK N   1      -3.269  -5.702  -1.579  0.00  0.00     0.252 C 
HETATM   10  N   UNK N   1      -4.621  -5.550  -1.453  0.00  0.00    -0.343 N 
HETATM   11  H   UNK N   1      -5.120  -5.839  -2.251  0.00  0.00     0.163 HD
HETATM   12  O   UNK N   1      -2.879  -6.390  -2.509  0.00  0.00    -0.268 OA
BRANCH  10  13
HETATM   13  C   UNK N   1      -5.477  -5.053  -0.393  0.00  0.00     0.183 C 
BRANCH  13  14
HETATM   14  C   UNK N   1      -5.303  -3.570  -0.056  0.00  0.00     0.046 C 
BRANCH  14  15
HETATM   15  C   UNK N   1      -6.378  -3.095   0.932  0.00  0.00     0.112 C 
BRANCH  15  16
HETATM   16  C   UNK N   1      -7.740  -3.072   0.304  0.00  0.00     0.139 C 
HETATM   17  O   UNK N   1      -8.612  -3.822   0.711  0.00  0.00    -0.650 OA
BRANCH  16  18
HETATM   18  O   UNK N   1      -8.001  -2.232  -0.715  0.00  0.00    -0.776 OA
HETATM   19  H   UNK N   1      -7.585  -1.782  -1.424  0.00  0.00     0.167 HD
ENDBRANCH  16  18
ENDBRANCH  15  16
ENDBRANCH  14  15
ENDBRANCH  13  14
BRANCH  13  20
HETATM   20  C   UNK N   1      -5.388  -5.955   0.807  0.00  0.00     0.163 C 
HETATM   21  O   UNK N   1      -4.352  -6.040   1.446  0.00  0.00    -0.648 OA
BRANCH  20  22
HETATM   22  O   UNK N   1      -6.456  -6.695   1.166  0.00  0.00    -0.775 OA
HETATM   23  H   UNK N   1      -7.272  -6.309   1.415  0.00  0.00     0.167 HD
ENDBRANCH  20  22
ENDBRANCH  13  20
ENDBRANCH  10  13
ENDBRANCH   6   9
ENDBRANCH   1   3
BRANCH   1  24
HETATM   24  C   UNK N   1       1.030  -1.554   0.897  0.00  0.00     0.223 C 
HETATM   25  N   UNK N   1       1.785  -0.786   0.183  0.00  0.00    -0.306 N 
ATOM     26  HN  UNK N   1       2.564  -1.208  -0.322  1.00  0.00     0.171 HD
BRANCH  25  27
HETATM   27  C   UNK N   1       1.587   0.618   0.064  0.00  0.00     0.154 A 
HETATM   28  C   UNK N   1       0.312   1.161  -0.210  0.00  0.00     0.123 A 
HETATM   29  C   UNK N   1       0.186   2.543  -0.331  0.00  0.00     0.185 A 
HETATM   30  N   UNK N   1       1.282   3.335  -0.204  0.00  0.00    -0.168 N 
HETATM   31  C   UNK N   1       2.508   2.798   0.028  0.00  0.00     0.679 A 
ATOM     32  HN  UNK N   1       1.183   4.347  -0.285  1.00  0.00     0.186 HD
HETATM   33  N   UNK N   1       3.527   3.563   0.130  0.00  0.00    -0.234 N 
HETATM   34  N   UNK N   1       2.656   1.453   0.153  0.00  0.00    -0.174 N 
HETATM   35  H   UNK N   1       4.430   3.178   0.208  0.00  0.00     0.174 HD
ATOM     36  HN  UNK N   1       3.405   4.576   0.130  1.00  0.00     0.174 HD
HETATM   37  H   UNK N   1       3.552   1.077   0.310  0.00  0.00     0.186 HD
BRANCH  28  38
HETATM   38  N   UNK N   1      -0.820   0.334  -0.397  0.00  0.00    -0.393 N 
HETATM   39  H   UNK N   1      -1.713   0.729  -0.527  0.00  0.00     0.156 HD
HETATM   40  H   UNK N   1      -0.715  -0.645  -0.397  0.00  0.00     0.156 HD
ENDBRANCH  28  38
BRANCH  29  41
HETATM   41  O   UNK N   1      -1.013   3.097  -0.583  0.00  0.00    -0.344 OA
HETATM   42  H   UNK N   1      -1.097   4.013  -0.758  0.00  0.00     0.219 HD
ENDBRANCH  29  41
ENDBRANCH  25  27
BRANCH  24  43
HETATM   43  O   UNK N   1       0.089  -1.038   1.716  0.00  0.00    -0.332 OA
HETATM   44  H   UNK N   1       0.073  -0.293   2.284  0.00  0.00     0.220 HD
ENDBRANCH  24  43
ENDBRANCH   1  24
TORSDOF 14
