REMARK  7 active torsions:
REMARK  status: ('A' for Active; 'I' for Inactive)
REMARK    1  A    between atoms: C_4  and  C_3 
REMARK    2  A    between atoms: C_5  and  C_4 
REMARK    3  A    between atoms: C_6  and  C_5 
REMARK    4  A    between atoms: C_7  and  C_6 
REMARK    5  A    between atoms: C_9  and  C_7 
REMARK    6  A    between atoms: C_8  and  O_12 
REMARK    7  A    between atoms: N_10  and  C_9 
ROOT
HETATM    1  C   UNK N   1       6.142   0.172  -1.051  0.00  0.00     0.032 C 
HETATM    2  C   UNK N   1       6.017   1.250   0.021  0.00  0.00     0.078 C 
ENDROOT
BRANCH   2   3
HETATM    3  C   UNK N   1       4.739   2.054  -0.189  0.00  0.00     0.024 C 
BRANCH   3   4
HETATM    4  C   UNK N   1       3.493   1.218   0.047  0.00  0.00     0.002 C 
BRANCH   4   5
HETATM    5  C   UNK N   1       2.263   2.091  -0.086  0.00  0.00     0.000 C 
BRANCH   5   6
HETATM    6  C   UNK N   1       1.031   1.224   0.061  0.00  0.00    -0.000 C 
BRANCH   6   7
HETATM    7  C   UNK N   1      -0.218   2.070  -0.051  0.00  0.00    -0.005 C 
HETATM    8  C   UNK N   1      -1.434   1.170   0.015  0.00  0.00     0.005 C 
ENDBRANCH   6   7
ENDBRANCH   5   6
ENDBRANCH   4   5
ENDBRANCH   3   4
ENDBRANCH   2   3
BRANCH   2   9
HETATM    9  N   UNK N   1       7.134   2.160  -0.049  0.00  0.00    -0.377 N 
HETATM   10  C   UNK N   1       8.342   1.768   0.164  0.00  0.00     0.219 C 
ATOM     11  HN  UNK N   1       6.962   3.141  -0.273  1.00  0.00     0.161 HD
BRANCH  10  12
HETATM   12  O   UNK N   1       9.354   2.649   0.093  0.00  0.00    -0.357 OA
HETATM   13  H   UNK N   1      10.239   2.345   0.043  0.00  0.00     0.218 HD
ENDBRANCH  10  12
ENDBRANCH   2   9
TORSDOF 7
