REMARK  12 active torsions:
REMARK  status: ('A' for Active; 'I' for Inactive)
REMARK       I    between atoms: C_2  and  N_4 
REMARK    1  A    between atoms: N_4  and  C_5 
REMARK    2  A    between atoms: C_5  and  C_6 
REMARK    3  A    between atoms: C_5  and  B_17 
REMARK    4  A    between atoms: C_6  and  C_7 
REMARK    5  A    between atoms: B_17  and  O_18 
REMARK    6  A    between atoms: B_17  and  O_19 
REMARK    7  A    between atoms: B_17  and  O_20 
REMARK    8  A    between atoms: O_20  and  C_21 
REMARK    9  A    between atoms: C_21  and  C_22 
REMARK   10  A    between atoms: C_22  and  N_23 
REMARK   11  A    between atoms: C_22  and  C_24 
REMARK   12  A    between atoms: C_24  and  O_25 
ROOT
HETATM    1  C   UNK N   1       0.254   2.066   0.690  0.00  0.00     0.153 C 
ENDROOT
BRANCH   1   2
HETATM    2  N   UNK N   1       0.246   0.744   0.113  0.00  0.00    -0.356 N 
HETATM    3  C   UNK N   1       0.698  -0.339   0.789  0.00  0.00     0.213 C 
HETATM    4  C   UNK N   1       1.213  -0.223   2.189  0.00  0.00     0.117 C 
HETATM    5  O   UNK N   1       0.678  -1.434   0.251  0.00  0.00    -0.274 OA
HETATM    6  H   UNK N   1      -0.100   0.625  -0.801  0.00  0.00     0.162 HD
ENDBRANCH   1   2
BRANCH   1   7
HETATM    7  C   UNK N   1      -1.031   2.423   1.459  0.00  0.00     0.063 C 
BRANCH   7   8
HETATM    8  C   UNK N   1      -2.326   2.487   0.683  0.00  0.00    -0.046 A 
HETATM    9  C   UNK N   1      -2.921   3.743   0.513  0.00  0.00     0.008 A 
HETATM   10  C   UNK N   1      -4.146   3.872  -0.146  0.00  0.00     0.001 A 
HETATM   11  C   UNK N   1      -4.801   2.744  -0.640  0.00  0.00     0.012 A 
HETATM   12  C   UNK N   1      -4.237   1.479  -0.473  0.00  0.00    -0.025 A 
HETATM   13  C   UNK N   1      -2.995   1.335   0.197  0.00  0.00    -0.020 A 
HETATM   14  C   UNK N   1      -4.908   0.352  -0.959  0.00  0.00     0.012 A 
HETATM   15  C   UNK N   1      -2.470   0.048   0.376  0.00  0.00     0.013 A 
HETATM   16  C   UNK N   1      -3.143  -1.072  -0.118  0.00  0.00     0.001 A 
HETATM   17  C   UNK N   1      -4.358  -0.920  -0.787  0.00  0.00     0.001 A 
ENDBRANCH   7   8
ENDBRANCH   1   7
BRANCH   1  18
HETATM   18  B   UNK N   1       0.978   3.185  -0.251  0.00  0.00     0.629 B 
BRANCH  18  19
HETATM   19  O   UNK N   1       1.548   2.552  -1.454  0.00  0.00    -0.408 OA
HETATM   20  H   UNK N   1       1.374   2.019  -2.246  0.00  0.00     0.188 HD
ENDBRANCH  18  19
BRANCH  18  21
HETATM   21  O   UNK N   1      -0.016   4.176  -0.688  0.00  0.00    -0.408 OA
HETATM   22  H   UNK N   1       0.222   5.071  -0.976  0.00  0.00     0.188 HD
ENDBRANCH  18  21
BRANCH  18  23
HETATM   23  O   UNK N   1       2.061   3.904   0.481  0.00  0.00    -0.395 OA
BRANCH  23  24
HETATM   24  C   UNK N   1       2.922   2.984   1.114  0.00  0.00     0.184 C 
BRANCH  24  25
HETATM   25  C   UNK N   1       4.239   2.754   0.352  0.00  0.00     0.195 C 
BRANCH  25  26
HETATM   26  N   UNK N   1       4.461   3.778  -0.658  0.00  0.00    -0.416 N 
HETATM   27  H   UNK N   1       5.160   4.002  -1.366  0.00  0.00     0.150 HD
HETATM   28  H   UNK N   1       3.706   4.464  -0.658  0.00  0.00     0.150 HD
ENDBRANCH  25  26
BRANCH  25  29
HETATM   29  C   UNK N   1       4.339   1.384  -0.263  0.00  0.00     0.165 C 
HETATM   30  O   UNK N   1       3.425   0.582  -0.162  0.00  0.00    -0.648 OA
BRANCH  29  31
HETATM   31  O   UNK N   1       5.463   1.027  -0.913  0.00  0.00    -0.775 OA
HETATM   32  H   UNK N   1       5.639   0.226  -1.366  0.00  0.00     0.167 HD
ENDBRANCH  29  31
ENDBRANCH  25  29
ENDBRANCH  24  25
ENDBRANCH  23  24
ENDBRANCH  18  23
ENDBRANCH   1  18
TORSDOF 12
