REMARK  0 active torsions:
REMARK  status: ('A' for Active; 'I' for Inactive)
ROOT
HETATM    1  O   UNK N   1      -0.950  -2.971  -0.283  0.00  0.00    -0.297 OA
HETATM    2  C   UNK N   1      -0.002  -2.214  -0.155  0.00  0.00     0.135 C 
HETATM    3  C   UNK N   1       0.589  -1.915   1.191  0.00  0.00     0.056 C 
HETATM    4  C   UNK N   1       0.546  -0.387   1.389  0.00  0.00     0.017 C 
HETATM    5  C   UNK N   1       1.281   0.325   0.233  0.00  0.00    -0.013 C 
HETATM    6  C   UNK N   1       2.745  -0.145   0.199  0.00  0.00     0.009 C 
HETATM    7  C   UNK N   1       2.801  -1.665  -0.014  0.00  0.00    -0.013 C 
HETATM    8  C   UNK N   1       2.061  -2.363   1.147  0.00  0.00     0.017 C 
HETATM    9  C   UNK N   1       2.117  -2.009  -1.356  0.00  0.00     0.017 C 
HETATM   10  C   UNK N   1       0.646  -1.557  -1.338  0.00  0.00     0.056 C 
HETATM   11  C   UNK N   1       0.603  -0.034  -1.107  0.00  0.00     0.017 C 
ENDROOT
TORSDOF 0
