REMARK  6 active torsions:
REMARK  status: ('A' for Active; 'I' for Inactive)
REMARK    1  A    between atoms: O_1  and  C_2 
REMARK    2  A    between atoms: C_2  and  C_4 
REMARK    3  A    between atoms: C_4  and  O_5 
REMARK    4  A    between atoms: O_5  and  P_6 
REMARK    5  A    between atoms: P_6  and  O_7 
REMARK    6  A    between atoms: P_6  and  O_8 
ROOT
HETATM    1  O   UNK N   1       2.052  -1.129   0.183  0.00  0.00    -0.287 OA
ENDROOT
BRANCH   1   2
HETATM    2  C   UNK N   1       0.978  -1.010  -0.707  0.00  0.00     0.290 C 
BRANCH   2   3
HETATM    3  C   UNK N   1      -0.294  -1.395  -0.029  0.00  0.00     0.165 C 
HETATM    4  O   UNK N   1      -0.478  -2.551   0.317  0.00  0.00    -0.648 OA
BRANCH   3   5
HETATM    5  O   UNK N   1      -1.249  -0.471   0.183  0.00  0.00    -0.775 OA
HETATM    6  H   UNK N   1      -1.024   0.427   0.331  0.00  0.00     0.167 HD
ENDBRANCH   3   5
ENDBRANCH   2   3
ENDBRANCH   1   2
BRANCH   1   7
HETATM    7  P   UNK N   1       3.385  -0.343  -0.615  0.00  0.00     0.391 P 
HETATM    8  O   UNK N   1       2.897   0.765   0.358  0.00  0.00    -0.632 OA
BRANCH   7   9
HETATM    9  O   UNK N   1       4.813   0.080   0.275  0.00  0.00    -0.307 OA
HETATM   10  H   UNK N   1       5.417  -0.493   0.773  0.00  0.00     0.222 HD
ENDBRANCH   7   9
BRANCH   7  11
HETATM   11  O   UNK N   1       3.974  -1.709   0.283  0.00  0.00    -0.307 OA
HETATM   12  H   UNK N   1       3.477  -2.375   0.784  0.00  0.00     0.222 HD
ENDBRANCH   7  11
ENDBRANCH   1   7
TORSDOF 6
