REMARK  12 active torsions:
REMARK  status: ('A' for Active; 'I' for Inactive)
REMARK    1  A    between atoms: C_2  and  C_4 
REMARK    2  A    between atoms: C_5  and  C_31 
REMARK    3  A    between atoms: C_8  and  N_9 
REMARK       I    between atoms: N_9  and  C_10 
REMARK    4  A    between atoms: C_10  and  C_12 
REMARK    5  A    between atoms: C_14  and  N_15 
REMARK       I    between atoms: N_15  and  C_16 
REMARK    6  A    between atoms: C_16  and  C_18 
REMARK    7  A    between atoms: C_20  and  N_21 
REMARK    8  A    between atoms: N_21  and  C_22 
REMARK       I    between atoms: C_31  and  N_33 
REMARK    9  A    between atoms: N_33  and  C_34 
REMARK   10  A    between atoms: C_34  and  C_35 
REMARK   11  A    between atoms: C_35  and  C_36 
REMARK   12  A    between atoms: C_36  and  N_37 
ROOT
HETATM    1  N   UNK N   1      -5.891  -8.121   0.338  0.00  0.00    -0.302 N 
HETATM    2  C   UNK N   1      -7.234  -8.070   0.549  0.00  0.00     0.274 C 
HETATM    3  O   UNK N   1      -7.743  -7.104   1.115  0.00  0.00    -0.266 OA
HETATM    4  H   UNK N   1      -5.421  -8.984   0.282  0.00  0.00     0.171 HD
ENDROOT
BRANCH   2   5
HETATM    5  C   UNK N   1      -8.088  -9.115   0.031  0.00  0.00     0.105 A 
HETATM    6  C   UNK N   1      -7.574 -10.224  -0.550  0.00  0.00     0.066 A 
HETATM    7  C   UNK N   1      -8.649 -11.043  -0.791  0.00  0.00     0.053 A 
HETATM    8  C   UNK N   1      -9.796 -10.392  -0.385  0.00  0.00     0.120 A 
HETATM    9  N   UNK N   1      -9.430  -9.189   0.089  0.00  0.00    -0.354 N 
HETATM   10  C   UNK N   1     -10.342  -8.208   0.661  0.00  0.00     0.156 C 
BRANCH   7  11
HETATM   11  N   UNK N   1      -8.490 -12.445  -0.761  0.00  0.00    -0.320 N 
HETATM   12  C   UNK N   1      -7.614 -12.951   0.160  0.00  0.00     0.273 C 
HETATM   13  O   UNK N   1      -7.134 -12.229   1.025  0.00  0.00    -0.266 OA
HETATM   14  H   UNK N   1      -8.986 -13.032  -1.376  0.00  0.00     0.169 HD
BRANCH  12  15
HETATM   15  C   UNK N   1      -7.134 -14.314   0.099  0.00  0.00     0.105 A 
HETATM   16  C   UNK N   1      -5.973 -14.689   0.735  0.00  0.00     0.066 A 
HETATM   17  C   UNK N   1      -5.790 -15.994   0.391  0.00  0.00     0.052 A 
HETATM   18  C   UNK N   1      -6.838 -16.395  -0.425  0.00  0.00     0.120 A 
HETATM   19  N   UNK N   1      -7.658 -15.341  -0.590  0.00  0.00    -0.354 N 
HETATM   20  C   UNK N   1      -8.886 -15.340  -1.370  0.00  0.00     0.156 C 
BRANCH  17  21
HETATM   21  N   UNK N   1      -4.650 -16.737   0.761  0.00  0.00    -0.333 N 
HETATM   22  H   UNK N   1      -3.999 -16.337   1.382  0.00  0.00     0.168 HD
BRANCH  21  23
HETATM   23  C   UNK N   1      -4.426 -17.975   0.289  0.00  0.00     0.353 C 
HETATM   24  O   UNK N   1      -3.404 -18.562   0.599  0.00  0.00    -0.283 OA
ENDBRANCH  21  23
ENDBRANCH  17  21
ENDBRANCH  12  15
ENDBRANCH   7  11
ENDBRANCH   2   5
BRANCH   1  25
HETATM   25  C   UNK N   1      -5.194  -6.909   0.202  0.00  0.00     0.152 A 
HETATM   26  N   UNK N   1      -3.926  -6.634   0.594  0.00  0.00    -0.331 N 
HETATM   27  C   UNK N   1      -3.616  -5.297   0.371  0.00  0.00     0.116 A 
ATOM     28  HN  UNK N   1      -3.285  -7.317   0.999  1.00  0.00     0.168 HD
HETATM   29  C   UNK N   1      -4.679  -4.546  -0.246  0.00  0.00     0.022 A 
HETATM   30  S   UNK N   1      -5.885  -5.601  -0.470  0.00  0.00    -0.056 SA
BRANCH  27  31
HETATM   31  C   UNK N   1      -2.309  -4.718   0.811  0.00  0.00     0.269 C 
HETATM   32  O   UNK N   1      -2.241  -3.530   1.057  0.00  0.00    -0.266 OA
HETATM   33  N   UNK N   1      -1.182  -5.461   0.966  0.00  0.00    -0.356 N 
HETATM   34  H   UNK N   1      -0.389  -5.011   1.338  0.00  0.00     0.162 HD
BRANCH  33  35
HETATM   35  C   UNK N   1      -1.057  -6.855   0.629  0.00  0.00     0.125 C 
BRANCH  35  36
HETATM   36  C   UNK N   1      -0.340  -7.011  -0.712  0.00  0.00     0.050 C 
BRANCH  36  37
HETATM   37  C   UNK N   1       1.022  -6.304  -0.792  0.00  0.00     0.273 C 
BRANCH  37  38
HETATM   38  N   UNK N   1       1.981  -6.785   0.200  0.00  0.00     0.080 N 
HETATM   39  C   UNK N   1       3.240  -6.117  -0.082  0.00  0.00     0.309 C 
HETATM   40  C   UNK N   1       2.222  -8.206  -0.005  0.00  0.00     0.309 C 
ENDBRANCH  37  38
ENDBRANCH  36  37
ENDBRANCH  35  36
ENDBRANCH  33  35
ENDBRANCH  27  31
BRANCH  29  41
HETATM   41  C   UNK N   1      -4.910  -3.132  -0.704  0.00  0.00     0.020 C 
HETATM   42  C   UNK N   1      -6.168  -2.566  -0.062  0.00  0.00     0.015 C 
HETATM   43  C   UNK N   1      -3.781  -2.147  -0.572  0.00  0.00     0.015 C 
ENDBRANCH  29  41
ENDBRANCH   1  25
TORSDOF 12
