REMARK  5 active torsions:
REMARK  status: ('A' for Active; 'I' for Inactive)
REMARK    1  A    between atoms: C_3  and  C_2 
REMARK    2  A    between atoms: O_8  and  C_2 
REMARK    3  A    between atoms: C_4  and  O_9 
REMARK    4  A    between atoms: C_6  and  S_13 
REMARK    5  A    between atoms: C_7  and  O_11 
ROOT
HETATM    1  C   UNK N   1       2.087   0.242   0.113  0.00  0.00     0.164 C 
HETATM    2  C   UNK N   1      -0.391   0.734  -0.317  0.00  0.00     0.168 C 
HETATM    3  C   UNK N   1      -0.459  -0.730   0.110  0.00  0.00     0.203 C 
HETATM    4  C   UNK N   1       0.970   1.337   0.114  0.00  0.00     0.109 C 
HETATM    5  C   UNK N   1       0.670  -1.471  -0.672  0.00  0.00     0.288 C 
HETATM    6  O   UNK N   1      -0.281  -0.829   1.495  0.00  0.00    -0.388 OA
HETATM    7  O   UNK N   1       1.865  -0.710  -0.903  0.00  0.00    -0.350 OA
HETATM    8  H   UNK N   1      -0.279  -0.971   2.455  0.00  0.00     0.210 HD
ENDROOT
BRANCH   2   9
HETATM    9  O   UNK N   1      -1.449   1.478   0.212  0.00  0.00    -0.392 OA
HETATM   10  H   UNK N   1      -1.368   2.372   0.578  0.00  0.00     0.210 HD
ENDBRANCH   2   9
BRANCH   5  11
HETATM   11  O   UNK N   1       0.973  -2.694  -0.072  0.00  0.00    -0.369 OA
HETATM   12  H   UNK N   1       0.343  -3.302   0.344  0.00  0.00     0.212 HD
ENDBRANCH   5  11
BRANCH   4  13
HETATM   13  S   UNK N   1       1.325   2.782  -0.967  0.00  0.00    -0.163 SA
HETATM   14  C   UNK N   1       1.676   3.935   0.399  0.00  0.00     0.090 C 
ENDBRANCH   4  13
BRANCH   1  15
HETATM   15  C   UNK N   1       3.500   0.807  -0.012  0.00  0.00     0.197 C 
BRANCH  15  16
HETATM   16  O   UNK N   1       3.801   1.638   1.068  0.00  0.00    -0.398 OA
HETATM   17  H   UNK N   1       4.406   1.746   1.819  0.00  0.00     0.209 HD
ENDBRANCH  15  16
ENDBRANCH   1  15
TORSDOF 5
