REMARK  4 active torsions:
REMARK  status: ('A' for Active; 'I' for Inactive)
REMARK    1  A    between atoms: C_4  and  C_5 
REMARK    2  A    between atoms: C_5  and  N_6 
REMARK       I    between atoms: N_6  and  C_7 
REMARK    3  A    between atoms: C_7  and  C_9 
REMARK    4  A    between atoms: C_14  and  N_15 
ROOT
HETATM    1  C   UNK N   1      -1.899  -1.820  -0.022  0.00  0.00     0.059 A 
HETATM    2  C   UNK N   1      -2.039  -3.218  -0.022  0.00  0.00     0.019 A 
HETATM    3  C   UNK N   1      -0.920  -4.056  -0.020  0.00  0.00     0.002 A 
HETATM    4  C   UNK N   1       0.366  -3.514  -0.016  0.00  0.00     0.016 A 
HETATM    5  C   UNK N   1       0.545  -2.126  -0.014  0.00  0.00     0.019 A 
HETATM    6  C   UNK N   1       1.835  -1.559  -0.006  0.00  0.00     0.051 A 
HETATM    7  C   UNK N   1       1.975  -0.159  -0.002  0.00  0.00     0.019 A 
HETATM    8  C   UNK N   1       0.818   0.648  -0.007  0.00  0.00     0.062 A 
HETATM    9  N   UNK N   1      -0.405   0.071  -0.015  0.00  0.00    -0.353 N 
HETATM   10  C   UNK N   1      -0.587  -1.277  -0.018  0.00  0.00     0.061 A 
HETATM   11  C   UNK N   1       0.933   2.047  -0.003  0.00  0.00     0.038 A 
HETATM   12 Br   UNK N   1      -0.624   3.161  -0.009  0.00  0.00    -0.049 Br
HETATM   13  C   UNK N   1       2.197   2.640   0.006  0.00  0.00     0.021 A 
HETATM   14  C   UNK N   1       3.346   1.845   0.010  0.00  0.00     0.002 A 
HETATM   15  C   UNK N   1       3.238   0.450   0.007  0.00  0.00     0.016 A 
HETATM   16  H   UNK N   1      -1.199   0.653  -0.018  0.00  0.00     0.166 HD
ENDROOT
BRANCH   1  17
HETATM   17  C   UNK N   1      -3.107  -0.913  -0.017  0.00  0.00     0.253 C 
HETATM   18  N   UNK N   1      -4.391  -1.348   0.014  0.00  0.00    -0.355 N 
HETATM   19  H   UNK N   1      -5.082  -0.648   0.041  0.00  0.00     0.162 HD
HETATM   20  O   UNK N   1      -2.936   0.296  -0.025  0.00  0.00    -0.268 OA
BRANCH  18  21
HETATM   21  C   UNK N   1      -4.868  -2.704   0.011  0.00  0.00     0.150 C 
BRANCH  21  22
HETATM   22  C   UNK N   1      -6.343  -2.711   0.424  0.00  0.00     0.253 A 
HETATM   23  N   UNK N   1      -7.130  -1.745  -0.340  0.00  0.00    -0.077 N 
HETATM   24  C   UNK N   1      -8.511  -2.188  -0.297  0.00  0.00     0.269 C 
HETATM   25  C   UNK N   1      -7.098  -0.469   0.361  0.00  0.00     0.269 A 
HETATM   26  H   UNK N   1      -6.641  -1.557   0.536  0.00  0.00     0.279 HD
ENDBRANCH  21  22
ENDBRANCH  18  21
ENDBRANCH   1  17
BRANCH   6  27
HETATM   27  N   UNK N   1       2.981  -2.389  -0.000  0.00  0.00    -0.398 N 
HETATM   28  H   UNK N   1       2.880  -3.368   0.004  0.00  0.00     0.156 HD
HETATM   29  H   UNK N   1       3.880  -1.986  -0.000  0.00  0.00     0.156 HD
ENDBRANCH   6  27
TORSDOF 4
