REMARK  5 active torsions:
REMARK  status: ('A' for Active; 'I' for Inactive)
REMARK    1  A    between atoms: N_1  and  C_2 
REMARK    2  A    between atoms: C_2  and  C_3 
REMARK    3  A    between atoms: C_3  and  C_4 
REMARK    4  A    between atoms: C_4  and  C_5 
REMARK    5  A    between atoms: C_5  and  O_6 
ROOT
HETATM    1  C   UNK N   1      -0.252   1.303  -0.000  0.00  0.00     0.230 C 
ENDROOT
BRANCH   1   2
HETATM    2  N   UNK N   1      -1.405   0.424   0.000  0.00  0.00    -0.079 N 
HETATM    3  H   UNK N   1      -2.346   0.818   0.000  0.00  0.00     0.274 HD
HETATM    4  H   UNK N   1      -1.276  -0.587   0.000  0.00  0.00     0.274 HD
HETATM    5  H   UNK N   1      -2.217  -0.194   0.000  0.00  0.00     0.274 HD
ENDBRANCH   1   2
BRANCH   1   6
HETATM    6  C   UNK N   1       1.009   0.471   0.000  0.00  0.00     0.029 C 
BRANCH   6   7
HETATM    7  C   UNK N   1       2.212   1.385   0.000  0.00  0.00     0.028 C 
BRANCH   7   8
HETATM    8  C   UNK N   1       3.470   0.547  -0.000  0.00  0.00     0.164 C 
BRANCH   8   9
HETATM    9  O   UNK N   1       4.582   1.385   0.000  0.00  0.00    -0.401 OA
HETATM   10  H   UNK N   1       5.475   1.006   0.000  0.00  0.00     0.209 HD
ENDBRANCH   8   9
ENDBRANCH   7   8
ENDBRANCH   6   7
ENDBRANCH   1   6
TORSDOF 5
