REMARK  2 active torsions:
REMARK  status: ('A' for Active; 'I' for Inactive)
REMARK    1  A    between atoms: C_2  and  N_4 
REMARK       I    between atoms: N_4  and  C_5 
REMARK       I    between atoms: C_5  and  N_8 
REMARK    2  A    between atoms: N_8  and  O_9 
ROOT
HETATM    1  N   UNK N   1       0.909   0.342   0.000  0.00  0.00    -0.221 N 
HETATM    2  C   UNK N   1       2.193   0.959   0.000  0.00  0.00     0.691 C 
HETATM    3  N   UNK N   1       2.317   2.236  -0.000  0.00  0.00    -0.233 N 
ATOM      4  HN  UNK N   1       1.487   2.829  -0.000  1.00  0.00     0.174 HD
HETATM    5  N   UNK N   1       3.345   0.135   0.000  0.00  0.00    -0.099 N 
HETATM    6  H   UNK N   1       0.891  -0.643   0.000  0.00  0.00     0.178 HD
HETATM    7  H   UNK N   1       3.213   2.644  -0.000  0.00  0.00     0.174 HD
HETATM    8  H   UNK N   1       3.241  -0.844   0.000  0.00  0.00     0.213 HD
ENDROOT
BRANCH   1   9
HETATM    9  C   UNK N   1      -0.375   1.016  -0.000  0.00  0.00     0.091 C 
HETATM   10  C   UNK N   1      -1.605   0.134   0.000  0.00  0.00     0.032 C 
HETATM   11  C   UNK N   1      -0.494   2.531   0.000  0.00  0.00     0.032 C 
ENDBRANCH   1   9
BRANCH   5  12
HETATM   12  O   UNK N   1       4.575   0.668  -0.000  0.00  0.00    -0.276 OA
HETATM   13  H   UNK N   1       5.354   0.090  -0.000  0.00  0.00     0.245 HD
ENDBRANCH   5  12
TORSDOF 2
