REMARK  1 active torsions:
REMARK  status: ('A' for Active; 'I' for Inactive)
REMARK    1  A    between atoms: N_1  and  C_2 
ROOT
HETATM    1  C   UNK N   1       0.675   1.689   0.000  0.00  0.00     0.183 A 
HETATM    2  C   UNK N   1       2.022   1.004  -0.000  0.00  0.00     0.033 A 
HETATM    3  C   UNK N   1       2.005  -0.519   0.000  0.00  0.00     0.002 A 
HETATM    4  C   UNK N   1       0.671  -1.270  -0.000  0.00  0.00     0.000 A 
HETATM    5  C   UNK N   1      -0.662  -0.516   0.000  0.00  0.00     0.002 A 
HETATM    6  C   UNK N   1      -0.677   1.009  -0.000  0.00  0.00     0.033 A 
ENDROOT
BRANCH   1   7
HETATM    7  N   UNK N   1       0.682   3.140  -0.000  0.00  0.00    -0.075 N 
HETATM    8  H   UNK N   1       1.568   3.646  -0.000  0.00  0.00     0.274 HD
HETATM    9  H   UNK N   1      -0.199   3.655  -0.000  0.00  0.00     0.274 HD
HETATM   10  H   UNK N   1       0.687   4.160  -0.000  0.00  0.00     0.274 HD
ENDBRANCH   1   7
TORSDOF 1
