REMARK  7 active torsions:
REMARK  status: ('A' for Active; 'I' for Inactive)
REMARK    1  A    between atoms: O_1  and  C_2 
REMARK    2  A    between atoms: C_2  and  C_3 
REMARK    3  A    between atoms: C_3  and  S_4 
REMARK    4  A    between atoms: S_4  and  S_5 
REMARK    5  A    between atoms: S_5  and  C_6 
REMARK    6  A    between atoms: C_6  and  C_7 
REMARK    7  A    between atoms: C_7  and  O_8 
ROOT
HETATM    1  S   UNK N   1       2.865   2.449   0.000  0.00  0.00    -0.096 SA
ENDROOT
BRANCH   1   2
HETATM    2  C   UNK N   1       1.461   1.310  -0.000  0.00  0.00     0.112 C 
BRANCH   2   3
HETATM    3  C   UNK N   1       0.173   2.099   0.000  0.00  0.00     0.175 C 
BRANCH   3   4
HETATM    4  O   UNK N   1      -0.903   1.216  -0.000  0.00  0.00    -0.400 OA
HETATM    5  H   UNK N   1      -1.811   1.558  -0.000  0.00  0.00     0.209 HD
ENDBRANCH   3   4
ENDBRANCH   2   3
ENDBRANCH   1   2
BRANCH   1   6
HETATM    6  S   UNK N   1       4.228   0.822   0.000  0.00  0.00    -0.096 SA
BRANCH   6   7
HETATM    7  C   UNK N   1       5.632   1.960  -0.000  0.00  0.00     0.112 C 
BRANCH   7   8
HETATM    8  C   UNK N   1       6.921   1.171   0.000  0.00  0.00     0.175 C 
BRANCH   8   9
HETATM    9  O   UNK N   1       7.996   2.054  -0.000  0.00  0.00    -0.400 OA
HETATM   10  H   UNK N   1       8.904   1.713  -0.000  0.00  0.00     0.209 HD
ENDBRANCH   8   9
ENDBRANCH   7   8
ENDBRANCH   6   7
ENDBRANCH   1   6
TORSDOF 7
