REMARK  17 active torsions:
REMARK  status: ('A' for Active; 'I' for Inactive)
REMARK    1  A    between atoms: C_23  and  C_19 
REMARK    2  A    between atoms: O_51  and  C_19 
REMARK    3  A    between atoms: C_24  and  C_20 
REMARK    4  A    between atoms: O_52  and  C_20 
REMARK    5  A    between atoms: C_31  and  N_41 
REMARK    6  A    between atoms: C_32  and  N_43 
REMARK    7  A    between atoms: C_34  and  C_33 
REMARK    8  A    between atoms: C_35  and  C_33 
REMARK    9  A    between atoms: C_33  and  O_47 
REMARK   10  A    between atoms: C_36  and  C_34 
REMARK   11  A    between atoms: C_34  and  O_48 
REMARK   12  A    between atoms: C_37  and  C_35 
REMARK   13  A    between atoms: C_35  and  O_51 
REMARK   14  A    between atoms: C_38  and  C_36 
REMARK   15  A    between atoms: C_36  and  O_52 
REMARK   16  A    between atoms: C_37  and  O_49 
REMARK   17  A    between atoms: C_38  and  O_50 
ROOT
HETATM    1  C   UNK N   1       2.476  10.241   0.559  0.00  0.00     0.001 A 
HETATM    2  C   UNK N   1       2.107   8.885   0.513  0.00  0.00     0.001 A 
HETATM    3  C   UNK N   1       3.782  10.628   0.217  0.00  0.00     0.008 A 
HETATM    4  C   UNK N   1       3.041   7.916   0.118  0.00  0.00     0.010 A 
HETATM    5  C   UNK N   1       6.115   9.858  -0.502  0.00  0.00     0.073 C 
HETATM    6  C   UNK N   1       4.689   9.645  -0.181  0.00  0.00    -0.047 A 
HETATM    7  C   UNK N   1       4.328   8.330  -0.237  0.00  0.00    -0.027 A 
HETATM    8  C   UNK N   1       6.566   8.465  -0.988  0.00  0.00     0.149 C 
HETATM    9  C   UNK N   1       5.450   7.449  -0.613  0.00  0.00     0.146 C 
HETATM   10  O   UNK N   1       6.687   8.521  -2.379  0.00  0.00    -0.393 OA
HETATM   11  H   UNK N   1       6.763   8.468  -3.345  0.00  0.00     0.210 HD
ENDROOT
BRANCH   9  12
HETATM   12  N   UNK N   1       5.817   6.689   0.569  0.00  0.00    -0.361 N 
HETATM   13  C   UNK N   1       5.903   5.405   0.720  0.00  0.00     0.144 C 
ATOM     14  HN  UNK N   1       6.037   7.243   1.396  1.00  0.00     0.162 HD
BRANCH  13  15
HETATM   15  C   UNK N   1       5.647   4.374  -0.384  0.00  0.00     0.227 C 
BRANCH  15  16
HETATM   16  C   UNK N   1       6.928   3.559  -0.719  0.00  0.00     0.186 C 
BRANCH  16  17
HETATM   17  C   UNK N   1       7.535   2.768   0.483  0.00  0.00     0.186 C 
BRANCH  17  18
HETATM   18  C   UNK N   1       8.700   1.792   0.094  0.00  0.00     0.227 C 
BRANCH  18  19
HETATM   19  C   UNK N   1       8.730   0.607   1.053  0.00  0.00     0.144 C 
HETATM   20  N   UNK N   1       9.034  -0.593   0.681  0.00  0.00    -0.361 N 
ATOM     21  HN  UNK N   1       8.938  -1.327   1.383  1.00  0.00     0.162 HD
BRANCH  20  22
HETATM   22  C   UNK N   1       9.498  -1.005  -0.631  0.00  0.00     0.146 C 
HETATM   23  C   UNK N   1      10.561  -2.004  -0.404  0.00  0.00    -0.027 A 
HETATM   24  C   UNK N   1      11.859  -1.752   0.043  0.00  0.00     0.010 A 
HETATM   25  C   UNK N   1      10.092  -3.282  -0.544  0.00  0.00    -0.047 A 
HETATM   26  C   UNK N   1      12.703  -2.842   0.304  0.00  0.00     0.001 A 
HETATM   27  C   UNK N   1      12.226  -4.156   0.146  0.00  0.00     0.001 A 
HETATM   28  C   UNK N   1      10.903  -4.383  -0.268  0.00  0.00     0.008 A 
HETATM   29  C   UNK N   1       8.656  -3.316  -0.908  0.00  0.00     0.073 C 
HETATM   30  C   UNK N   1       8.432  -1.861  -1.359  0.00  0.00     0.149 C 
HETATM   31  O   UNK N   1       8.692  -1.819  -2.733  0.00  0.00    -0.393 OA
HETATM   32  H   UNK N   1       8.808  -1.960  -3.685  0.00  0.00     0.210 HD
ENDBRANCH  20  22
BRANCH  19  33
HETATM   33  O   UNK N   1       8.456   0.818   2.356  0.00  0.00    -0.348 OA
HETATM   34  H   UNK N   1       8.488   1.057   3.262  0.00  0.00     0.219 HD
ENDBRANCH  19  33
ENDBRANCH  18  19
BRANCH  18  35
HETATM   35  O   UNK N   1       9.991   2.353   0.213  0.00  0.00    -0.370 OA
BRANCH  35  36
HETATM   36  C   UNK N   1      10.234   3.374  -0.707  0.00  0.00     0.210 C 
BRANCH  36  37
HETATM   37  C   UNK N   1      11.143   4.359  -0.046  0.00  0.00     0.004 A 
HETATM   38  C   UNK N   1      12.412   3.938   0.373  0.00  0.00     0.012 A 
HETATM   39  C   UNK N   1      13.267   4.824   1.031  0.00  0.00     0.001 A 
HETATM   40  C   UNK N   1      12.859   6.137   1.275  0.00  0.00     0.003 A 
HETATM   41  C   UNK N   1      11.596   6.565   0.857  0.00  0.00     0.043 A 
HETATM   42  C   UNK N   1      10.736   5.682   0.198  0.00  0.00     0.124 A 
HETATM   43  F   UNK N   1       9.513   6.118  -0.186  0.00  0.00    -0.205 F 
ENDBRANCH  36  37
ENDBRANCH  35  36
ENDBRANCH  18  35
ENDBRANCH  17  18
BRANCH  17  44
HETATM   44  O   UNK N   1       6.489   2.033   1.049  0.00  0.00    -0.390 OA
HETATM   45  H   UNK N   1       5.685   2.407   1.443  0.00  0.00     0.210 HD
ENDBRANCH  17  44
ENDBRANCH  16  17
BRANCH  16  46
HETATM   46  O   UNK N   1       7.855   4.424  -1.293  0.00  0.00    -0.390 OA
HETATM   47  H   UNK N   1       8.700   4.166  -1.694  0.00  0.00     0.210 HD
ENDBRANCH  16  46
ENDBRANCH  15  16
BRANCH  15  48
HETATM   48  O   UNK N   1       4.602   3.522   0.053  0.00  0.00    -0.370 OA
BRANCH  48  49
HETATM   49  C   UNK N   1       3.928   2.986  -1.062  0.00  0.00     0.210 C 
BRANCH  49  50
HETATM   50  C   UNK N   1       3.216   1.728  -0.682  0.00  0.00     0.004 A 
HETATM   51  C   UNK N   1       1.824   1.755  -0.552  0.00  0.00     0.012 A 
HETATM   52  C   UNK N   1       1.128   0.598  -0.191  0.00  0.00     0.001 A 
HETATM   53  C   UNK N   1       1.822  -0.593   0.040  0.00  0.00     0.003 A 
HETATM   54  C   UNK N   1       3.211  -0.630  -0.100  0.00  0.00     0.043 A 
HETATM   55  C   UNK N   1       3.912   0.525  -0.462  0.00  0.00     0.124 A 
HETATM   56  F   UNK N   1       5.256   0.461  -0.615  0.00  0.00    -0.205 F 
ENDBRANCH  49  50
ENDBRANCH  48  49
ENDBRANCH  15  48
ENDBRANCH  13  15
BRANCH  13  57
HETATM   57  O   UNK N   1       6.216   4.946   1.948  0.00  0.00    -0.348 OA
HETATM   58  H   UNK N   1       6.048   4.599   2.802  0.00  0.00     0.219 HD
ENDBRANCH  13  57
ENDBRANCH   9  12
TORSDOF 17
