REMARK  1 active torsions:
REMARK  status: ('A' for Active; 'I' for Inactive)
REMARK    1  A    between atoms: N_1  and  C_2 
ROOT
HETATM    1  C   UNK N   1       1.705   0.966  -0.000  0.00  0.00     0.064 A 
HETATM    2  C   UNK N   1       1.613  -0.429   0.000  0.00  0.00     0.032 A 
HETATM    3  C   UNK N   1       0.359  -1.048   0.000  0.00  0.00     0.002 A 
HETATM    4  C   UNK N   1      -0.805  -0.273   0.000  0.00  0.00     0.003 A 
HETATM    5  C   UNK N   1      -0.715   1.122   0.000  0.00  0.00     0.044 A 
HETATM    6  C   UNK N   1       0.540   1.742  -0.000  0.00  0.00     0.142 A 
HETATM    7  F   UNK N   1       0.623   3.094  -0.000  0.00  0.00    -0.204 F 
ENDROOT
BRANCH   1   8
HETATM    8  N   UNK N   1       2.971   1.587  -0.000  0.00  0.00    -0.397 N 
HETATM    9  H   UNK N   1       3.788   1.039  -0.000  0.00  0.00     0.156 HD
HETATM   10  H   UNK N   1       3.037   2.570  -0.000  0.00  0.00     0.156 HD
ENDBRANCH   1   8
TORSDOF 1
