REMARK  4 active torsions:
REMARK  status: ('A' for Active; 'I' for Inactive)
REMARK    1  A    between atoms: C_10  and  N_4 
REMARK    2  A    between atoms: C_12  and  O_13 
REMARK    3  A    between atoms: C_14  and  C_15 
REMARK    4  A    between atoms: C_15  and  O_16 
ROOT
HETATM    1  C   UNK N   1       1.705   0.104   0.694  0.00  0.00     0.048 A 
HETATM    2  C   UNK N   1       3.193   0.193   1.060  0.00  0.00     0.064 C 
HETATM    3  C   UNK N   1       3.893  -0.778   0.135  0.00  0.00     0.127 C 
HETATM    4  C   UNK N   1       2.863  -1.861  -0.067  0.00  0.00     0.044 C 
HETATM    5  C   UNK N   1       1.572  -1.093  -0.254  0.00  0.00     0.025 A 
HETATM    6  C   UNK N   1       0.897  -1.112   1.104  0.00  0.00     0.039 A 
ENDROOT
BRANCH   1   7
HETATM    7  N   UNK N   1       0.985   1.331   0.259  0.00  0.00    -0.299 N 
HETATM    8  C   UNK N   1       1.721   2.474   0.121  0.00  0.00     0.109 A 
HETATM    9  C   UNK N   1       1.127   3.688  -0.210  0.00  0.00     0.022 A 
HETATM   10  C   UNK N   1       1.968   4.913  -0.331  0.00  0.00     0.056 C 
HETATM   11  C   UNK N   1      -0.253   3.730  -0.404  0.00  0.00     0.256 A 
HETATM   12  N   UNK N   1      -0.984   2.583  -0.282  0.00  0.00    -0.275 N 
HETATM   13  O   UNK N   1      -0.812   4.778  -0.679  0.00  0.00    -0.267 OA
HETATM   14  C   UNK N   1      -0.390   1.392   0.045  0.00  0.00     0.330 A 
HETATM   15  H   UNK N   1      -1.957   2.612  -0.432  0.00  0.00     0.173 HD
HETATM   16  O   UNK N   1      -1.089   0.400   0.152  0.00  0.00    -0.246 OA
ENDBRANCH   1   7
BRANCH   3  17
HETATM   17  O   UNK N   1       5.049  -1.282   0.732  0.00  0.00    -0.395 OA
HETATM   18  H   UNK N   1       5.147  -2.153   1.146  0.00  0.00     0.210 HD
ENDBRANCH   3  17
BRANCH   4  19
HETATM   19  C   UNK N   1       3.188  -2.790  -1.223  0.00  0.00     0.171 C 
BRANCH  19  20
HETATM   20  O   UNK N   1       4.223  -3.651  -0.853  0.00  0.00    -0.400 OA
HETATM   21  H   UNK N   1       4.065  -4.573  -0.596  0.00  0.00     0.209 HD
ENDBRANCH  19  20
ENDBRANCH   4  19
TORSDOF 4
