REMARK  9 active torsions:
REMARK  status: ('A' for Active; 'I' for Inactive)
REMARK    1  A    between atoms: C_6  and  C_1 
REMARK    2  A    between atoms: C_8  and  C_1 
REMARK    3  A    between atoms: C_9  and  C_3 
REMARK    4  A    between atoms: N_18  and  C_3 
REMARK    5  A    between atoms: C_7  and  C_4 
REMARK    6  A    between atoms: O_19  and  C_4 
REMARK    7  A    between atoms: C_10  and  C_7 
REMARK    8  A    between atoms: C_7  and  N_12 
REMARK    9  A    between atoms: O_21  and  C_9 
ROOT
HETATM    1  C   UNK N   1      -0.319  -0.022   0.165  0.00  0.00     0.081 A 
HETATM    2  C   UNK N   1       1.229   1.587   0.577  0.00  0.00     0.212 A 
HETATM    3  C   UNK N   1       0.975  -0.655   0.243  0.00  0.00     0.268 A 
HETATM    4  N   UNK N   1      -0.175   1.238   0.355  0.00  0.00    -0.365 N 
ATOM      5  HN  UNK N   1      -0.942   1.911   0.351  1.00  0.00     0.161 HD
HETATM    6  N   UNK N   1       1.896   0.292   0.480  0.00  0.00    -0.314 N 
HETATM    7  O   UNK N   1       1.216  -1.847   0.144  0.00  0.00    -0.266 OA
ENDROOT
BRANCH   1   8
HETATM    8  C   UNK N   1      -1.678  -0.642  -0.035  0.00  0.00     0.121 C 
BRANCH   8   9
HETATM    9  C   UNK N   1      -1.719  -2.136   0.003  0.00  0.00     0.031 A 
HETATM   10  C   UNK N   1      -1.377  -2.934   1.069  0.00  0.00     0.114 A 
HETATM   11  N   UNK N   1      -1.602  -4.211   0.711  0.00  0.00    -0.360 N 
HETATM   12  C   UNK N   1      -2.083  -4.164  -0.550  0.00  0.00     0.180 A 
ATOM     13  HN  UNK N   1      -1.441  -5.045   1.276  1.00  0.00     0.166 HD
HETATM   14  N   UNK N   1      -2.168  -2.898  -1.005  0.00  0.00    -0.354 N 
HETATM   15  H   UNK N   1      -2.490  -2.598  -1.886  0.00  0.00     0.166 HD
ENDBRANCH   8   9
ENDBRANCH   1   8
BRANCH   6  16
HETATM   16  C   UNK N   1       3.307   0.071   0.751  0.00  0.00     0.238 C 
BRANCH  16  17
HETATM   17  C   UNK N   1       3.989  -0.785  -0.274  0.00  0.00     0.158 C 
HETATM   18  O   UNK N   1       4.711  -0.274  -1.113  0.00  0.00    -0.649 OA
BRANCH  17  19
HETATM   19  O   UNK N   1       3.901  -2.126  -0.196  0.00  0.00    -0.775 OA
HETATM   20  H   UNK N   1       3.062  -2.540  -0.142  0.00  0.00     0.167 HD
ENDBRANCH  17  19
ENDBRANCH  16  17
ENDBRANCH   6  16
BRANCH   2  21
HETATM   21  C   UNK N   1       1.717   2.610  -0.471  0.00  0.00     0.140 C 
BRANCH  21  22
HETATM   22  C   UNK N   1       0.962   3.935  -0.352  0.00  0.00     0.192 C 
BRANCH  22  23
HETATM   23  O   UNK N   1      -0.385   3.789  -0.694  0.00  0.00    -0.399 OA
HETATM   24  H   UNK N   1      -0.940   4.548  -0.931  0.00  0.00     0.209 HD
ENDBRANCH  22  23
ENDBRANCH  21  22
BRANCH  21  25
HETATM   25  N   UNK N   1       3.129   2.888  -0.269  0.00  0.00    -0.421 N 
HETATM   26  H   UNK N   1       3.793   2.127  -0.127  0.00  0.00     0.150 HD
HETATM   27  H   UNK N   1       3.459   3.853  -0.269  0.00  0.00     0.150 HD
ENDBRANCH  21  25
ENDBRANCH   2  21
TORSDOF 9
