REMARK  13 active torsions:
REMARK  status: ('A' for Active; 'I' for Inactive)
REMARK    1  A    between atoms: C_3  and  C_2 
REMARK    2  A    between atoms: C_4  and  C_2 
REMARK    3  A    between atoms: C_5  and  C_3 
REMARK    4  A    between atoms: C_6  and  C_4 
REMARK    5  A    between atoms: C_9  and  C_5 
REMARK    6  A    between atoms: N_15  and  C_6 
REMARK    7  A    between atoms: C_8  and  C_7 
REMARK    8  A    between atoms: O_19  and  C_7 
REMARK    9  A    between atoms: C_9  and  O_20 
REMARK   10  A    between atoms: C_10  and  O_21 
REMARK   11  A    between atoms: C_13  and  N_17 
REMARK   12  A    between atoms: O_24  and  C_14 
REMARK   13  A    between atoms: O_25  and  C_14 
ROOT
HETATM    1  C   UNK N   1      -3.362   2.821  -0.184  0.00  0.00     0.179 C 
HETATM    2  C   UNK N   1      -3.383   1.358   0.314  0.00  0.00     0.180 C 
HETATM    3  C   UNK N   1      -2.071   0.672  -0.087  0.00  0.00     0.182 C 
HETATM    4  C   UNK N   1      -0.893   1.488   0.461  0.00  0.00     0.198 C 
HETATM    5  C   UNK N   1      -1.013   2.963  -0.008  0.00  0.00     0.254 C 
HETATM    6  O   UNK N   1      -1.983   0.585  -1.481  0.00  0.00    -0.390 OA
HETATM    7  O   UNK N   1      -0.904   1.439   1.858  0.00  0.00    -0.389 OA
HETATM    8  O   UNK N   1      -2.263   3.507   0.384  0.00  0.00    -0.354 OA
HETATM    9  H   UNK N   1      -2.004   0.502  -2.448  0.00  0.00     0.210 HD
HETATM   10  H   UNK N   1      -0.937   1.429   2.828  0.00  0.00     0.210 HD
ENDROOT
BRANCH   2  11
HETATM   11  O   UNK N   1      -4.466   0.656  -0.222  0.00  0.00    -0.390 OA
HETATM   12  H   UNK N   1      -5.264   1.063  -0.593  0.00  0.00     0.210 HD
ENDBRANCH   2  11
BRANCH   1  13
HETATM   13  C   UNK N   1      -4.615   3.573   0.266  0.00  0.00     0.198 C 
BRANCH  13  14
HETATM   14  O   UNK N   1      -5.769   3.046  -0.314  0.00  0.00    -0.398 OA
HETATM   15  H   UNK N   1      -6.487   3.558  -0.718  0.00  0.00     0.209 HD
ENDBRANCH  13  14
ENDBRANCH   1  13
BRANCH   5  16
HETATM   16  N   UNK N   1      -0.003   3.786   0.628  0.00  0.00    -0.346 N 
HETATM   17  C   UNK N   1       1.269   3.691   0.461  0.00  0.00     0.113 C 
ATOM     18  HN  UNK N   1      -0.332   4.509   1.269  1.00  0.00     0.164 HD
BRANCH  17  19
HETATM   19  C   UNK N   1       2.153   4.632   1.228  0.00  0.00     0.083 C 
BRANCH  19  20
HETATM   20  C   UNK N   1       3.618   4.529   0.848  0.00  0.00     0.008 C 
BRANCH  20  21
HETATM   21  C   UNK N   1       3.837   5.203  -0.493  0.00  0.00     0.002 C 
BRANCH  21  22
HETATM   22  C   UNK N   1       4.588   4.274  -1.427  0.00  0.00     0.020 C 
BRANCH  22  23
HETATM   23  C   UNK N   1       6.072   4.260  -1.081  0.00  0.00     0.123 C 
BRANCH  23  24
HETATM   24  N   UNK N   1       6.579   3.069  -0.409  0.00  0.00    -0.350 N 
HETATM   25  C   UNK N   1       5.966   1.948  -0.191  0.00  0.00     0.257 C 
ATOM     26  HN  UNK N   1       7.538   3.126  -0.066  1.00  0.00     0.163 HD
BRANCH  25  27
HETATM   27  O   UNK N   1       4.693   1.750  -0.592  0.00  0.00    -0.327 OA
HETATM   28  H   UNK N   1       4.131   2.447  -0.869  0.00  0.00     0.221 HD
ENDBRANCH  25  27
BRANCH  25  29
HETATM   29  O   UNK N   1       6.637   0.957   0.439  0.00  0.00    -0.322 OA
HETATM   30  C   UNK N   1       6.071  -0.274   0.673  0.00  0.00     0.213 C 
ENDBRANCH  25  29
ENDBRANCH  23  24
ENDBRANCH  22  23
ENDBRANCH  21  22
ENDBRANCH  20  21
ENDBRANCH  19  20
ENDBRANCH  17  19
BRANCH  17  31
HETATM   31  O   UNK N   1       1.793   2.777  -0.385  0.00  0.00    -0.350 OA
HETATM   32  H   UNK N   1       1.426   2.145  -0.972  0.00  0.00     0.219 HD
ENDBRANCH  17  31
ENDBRANCH   5  16
TORSDOF 13
