REMARK  4 active torsions:
REMARK  status: ('A' for Active; 'I' for Inactive)
REMARK    1  A    between atoms: C_2  and  N_3 
REMARK    2  A    between atoms: N_3  and  C_4 
REMARK    3  A    between atoms: N_3  and  C_6 
REMARK    4  A    between atoms: C_6  and  S_7 
ROOT
HETATM    1  N   UNK N   1       1.383  -0.615  -0.000  0.00  0.00    -0.367 N 
ENDROOT
BRANCH   1   2
HETATM    2  C   UNK N   1       0.883  -1.997  -0.000  0.00  0.00     0.120 C 
HETATM    3  C   UNK N   1      -0.608  -2.295   0.000  0.00  0.00     0.026 C 
ENDBRANCH   1   2
BRANCH   1   4
HETATM    4  C   UNK N   1       2.848  -0.599   0.000  0.00  0.00     0.120 C 
HETATM    5  C   UNK N   1       3.612   0.710   0.000  0.00  0.00     0.026 C 
ENDBRANCH   1   4
BRANCH   1   6
HETATM    6  C   UNK N   1       0.541   0.594  -0.000  0.00  0.00     0.133 C 
HETATM    7  S   UNK N   1      -0.898   0.530  -0.000  0.00  0.00    -0.053 SA
BRANCH   6   8
HETATM    8  S   UNK N   1       1.211   2.266   0.000  0.00  0.00    -0.114 SA
HETATM    9  H   UNK N   1       2.557   2.459   0.000  0.00  0.00     0.109 HD
ENDBRANCH   6   8
ENDBRANCH   1   6
TORSDOF 4
