REMARK  8 active torsions:
REMARK  status: ('A' for Active; 'I' for Inactive)
REMARK    1  A    between atoms: O_1  and  C_2 
REMARK    2  A    between atoms: C_2  and  C_3 
REMARK    3  A    between atoms: C_3  and  O_4 
REMARK    4  A    between atoms: C_3  and  C_5 
REMARK    5  A    between atoms: C_5  and  O_6 
REMARK    6  A    between atoms: O_6  and  P_7 
REMARK    7  A    between atoms: P_7  and  O_8 
REMARK    8  A    between atoms: P_7  and  O_9 
ROOT
HETATM    1  C   UNK N   1       3.749  -1.323   0.480  0.00  0.00     0.214 C 
ENDROOT
BRANCH   1   2
HETATM    2  C   UNK N   1       2.488  -1.796  -0.214  0.00  0.00     0.166 C 
BRANCH   2   3
HETATM    3  C   UNK N   1       1.302  -1.031   0.342  0.00  0.00     0.198 C 
BRANCH   3   4
HETATM    4  O   UNK N   1       0.135  -1.408  -0.323  0.00  0.00    -0.398 OA
HETATM    5  H   UNK N   1      -0.497  -0.836  -0.785  0.00  0.00     0.209 HD
ENDBRANCH   3   4
ENDBRANCH   2   3
BRANCH   2   6
HETATM    6  O   UNK N   1       2.318  -3.163   0.013  0.00  0.00    -0.391 OA
HETATM    7  H   UNK N   1       1.436  -3.535   0.171  0.00  0.00     0.210 HD
ENDBRANCH   2   6
ENDBRANCH   1   2
BRANCH   1   8
HETATM    8  O   UNK N   1       4.879  -1.711  -0.248  0.00  0.00    -0.294 OA
BRANCH   8   9
HETATM    9  P   UNK N   1       6.229  -1.053   0.635  0.00  0.00     0.390 P 
HETATM   10  O   UNK N   1       6.008   0.054  -0.431  0.00  0.00    -0.632 OA
BRANCH   9  11
HETATM   11  O   UNK N   1       7.799  -0.890  -0.083  0.00  0.00    -0.307 OA
HETATM   12  H   UNK N   1       8.318  -1.605  -0.484  0.00  0.00     0.222 HD
ENDBRANCH   9  11
BRANCH   9  13
HETATM   13  O   UNK N   1       6.703  -2.517  -0.170  0.00  0.00    -0.307 OA
HETATM   14  H   UNK N   1       6.128  -3.155  -0.620  0.00  0.00     0.222 HD
ENDBRANCH   9  13
ENDBRANCH   8   9
ENDBRANCH   1   8
TORSDOF 8
