REMARK  17 active torsions:
REMARK  status: ('A' for Active; 'I' for Inactive)
REMARK    1  A    between atoms: O_1  and  C_2 
REMARK    2  A    between atoms: C_2  and  C_3 
REMARK    3  A    between atoms: C_3  and  O_4 
REMARK    4  A    between atoms: C_3  and  C_5 
REMARK    5  A    between atoms: C_5  and  O_6 
REMARK    6  A    between atoms: C_5  and  C_7 
REMARK    7  A    between atoms: C_7  and  O_8 
REMARK    8  A    between atoms: C_7  and  C_9 
REMARK    9  A    between atoms: C_9  and  N_10 
REMARK   10  A    between atoms: N_13  and  C_14 
REMARK   11  A    between atoms: C_14  and  C_15 
REMARK   12  A    between atoms: C_15  and  C_16 
REMARK   13  A    between atoms: C_16  and  C_17 
REMARK   14  A    between atoms: C_17  and  O_18 
REMARK   15  A    between atoms: O_18  and  P_19 
REMARK   16  A    between atoms: P_19  and  O_20 
REMARK   17  A    between atoms: P_19  and  O_21 
ROOT
HETATM    1  N   UNK N   1      -1.312  -1.748  -0.226  0.00  0.00    -0.280 N 
HETATM    2  C   UNK N   1      -0.321  -2.686  -0.248  0.00  0.00     0.331 A 
HETATM    3  O   UNK N   1      -0.518  -3.888  -0.262  0.00  0.00    -0.246 OA
HETATM    4  N   UNK N   1       0.917  -2.116  -0.178  0.00  0.00    -0.291 N 
HETATM    5  C   UNK N   1       0.685  -0.787  -0.131  0.00  0.00     0.152 A 
HETATM    6  C   UNK N   1      -0.659  -0.570  -0.170  0.00  0.00     0.148 A 
HETATM    7  N   UNK N   1      -1.196   0.670  -0.098  0.00  0.00    -0.292 N 
HETATM    8  C   UNK N   1      -0.347   1.750  -0.007  0.00  0.00     0.328 A 
HETATM    9  O   UNK N   1      -0.804   2.877   0.035  0.00  0.00    -0.247 OA
HETATM   10  N   UNK N   1       1.022   1.557   0.041  0.00  0.00    -0.273 N 
HETATM   11  C   UNK N   1       1.559   0.289  -0.012  0.00  0.00     0.280 A 
HETATM   12  O   UNK N   1       2.763   0.127   0.056  0.00  0.00    -0.265 OA
HETATM   13  H   UNK N   1      -2.172   0.796  -0.110  0.00  0.00     0.172 HD
HETATM   14  H   UNK N   1       1.621   2.335   0.115  0.00  0.00     0.173 HD
ENDROOT
BRANCH   1  15
HETATM   15  C   UNK N   1      -2.744  -2.012  -0.093  0.00  0.00     0.170 C 
BRANCH  15  16
HETATM   16  C   UNK N   1      -3.678  -1.389  -1.131  0.00  0.00     0.168 C 
BRANCH  16  17
HETATM   17  C   UNK N   1      -5.028  -1.087  -0.460  0.00  0.00     0.179 C 
BRANCH  17  18
HETATM   18  C   UNK N   1      -5.023  -0.052   0.686  0.00  0.00     0.173 C 
BRANCH  18  19
HETATM   19  C   UNK N   1      -6.071   1.020   0.442  0.00  0.00     0.198 C 
BRANCH  19  20
HETATM   20  O   UNK N   1      -5.756   1.755  -0.703  0.00  0.00    -0.398 OA
HETATM   21  H   UNK N   1      -5.204   1.820  -1.499  0.00  0.00     0.209 HD
ENDBRANCH  19  20
ENDBRANCH  18  19
BRANCH  18  22
HETATM   22  O   UNK N   1      -3.780   0.546   0.900  0.00  0.00    -0.391 OA
HETATM   23  H   UNK N   1      -2.988   0.006   1.050  0.00  0.00     0.210 HD
ENDBRANCH  18  22
ENDBRANCH  17  18
BRANCH  17  24
HETATM   24  O   UNK N   1      -5.614  -2.268   0.002  0.00  0.00    -0.390 OA
HETATM   25  H   UNK N   1      -6.527  -2.326   0.324  0.00  0.00     0.210 HD
ENDBRANCH  17  24
ENDBRANCH  16  17
BRANCH  16  26
HETATM   26  O   UNK N   1      -3.169  -0.229  -1.717  0.00  0.00    -0.391 OA
HETATM   27  H   UNK N   1      -2.294  -0.133  -2.124  0.00  0.00     0.210 HD
ENDBRANCH  16  26
ENDBRANCH  15  16
ENDBRANCH   1  15
BRANCH   4  28
HETATM   28  C   UNK N   1       2.184  -2.820  -0.063  0.00  0.00     0.134 C 
BRANCH  28  29
HETATM   29  C   UNK N   1       2.613  -2.807   1.399  0.00  0.00     0.022 C 
BRANCH  29  30
HETATM   30  C   UNK N   1       3.961  -3.477   1.591  0.00  0.00     0.028 C 
BRANCH  30  31
HETATM   31  C   UNK N   1       5.080  -2.576   1.102  0.00  0.00     0.180 C 
BRANCH  31  32
HETATM   32  O   UNK N   1       5.060  -2.518  -0.314  0.00  0.00    -0.297 OA
BRANCH  32  33
HETATM   33  P   UNK N   1       6.291  -1.438  -1.009  0.00  0.00     0.390 P 
HETATM   34  O   UNK N   1       5.628  -0.384  -0.076  0.00  0.00    -0.632 OA
BRANCH  33  35
HETATM   35  O   UNK N   1       7.521  -0.897   0.089  0.00  0.00    -0.307 OA
HETATM   36  H   UNK N   1       8.127  -1.341   0.702  0.00  0.00     0.222 HD
ENDBRANCH  33  35
BRANCH  33  37
HETATM   37  O   UNK N   1       7.248  -2.713  -0.306  0.00  0.00    -0.307 OA
HETATM   38  H   UNK N   1       6.900  -3.529   0.085  0.00  0.00     0.222 HD
ENDBRANCH  33  37
ENDBRANCH  32  33
ENDBRANCH  31  32
ENDBRANCH  30  31
ENDBRANCH  29  30
ENDBRANCH  28  29
ENDBRANCH   4  28
TORSDOF 17
