REMARK  12 active torsions:
REMARK  status: ('A' for Active; 'I' for Inactive)
REMARK    1  A    between atoms: O_1  and  C_2 
REMARK    2  A    between atoms: C_2  and  C_3 
REMARK    3  A    between atoms: C_3  and  C_4 
REMARK    4  A    between atoms: C_4  and  C_5 
REMARK    5  A    between atoms: C_5  and  C_6 
REMARK    6  A    between atoms: C_6  and  C_7 
REMARK    7  A    between atoms: C_7  and  C_8 
REMARK    8  A    between atoms: C_8  and  C_9 
REMARK    9  A    between atoms: C_9  and  C_10 
REMARK   10  A    between atoms: C_10  and  C_11 
REMARK   11  A    between atoms: C_11  and  C_12 
REMARK   12  A    between atoms: C_12  and  C_13 
ROOT
HETATM    1  C   UNK N   1       8.629   3.353  -0.000  0.00  0.00     0.000 C 
ENDROOT
BRANCH   1   2
HETATM    2  C   UNK N   1       7.390   4.211  -0.000  0.00  0.00     0.000 C 
BRANCH   2   3
HETATM    3  C   UNK N   1       6.181   3.309   0.000  0.00  0.00     0.000 C 
BRANCH   3   4
HETATM    4  C   UNK N   1       4.935   4.159   0.000  0.00  0.00     0.002 C 
BRANCH   4   5
HETATM    5  C   UNK N   1       3.726   3.255   0.000  0.00  0.00     0.026 C 
BRANCH   5   6
HETATM    6  C   UNK N   1       2.474   4.102   0.000  0.00  0.00     0.164 C 
BRANCH   6   7
HETATM    7  O   UNK N   1       1.357   3.271  -0.000  0.00  0.00    -0.401 OA
HETATM    8  H   UNK N   1       0.467   3.656  -0.000  0.00  0.00     0.209 HD
ENDBRANCH   6   7
ENDBRANCH   5   6
ENDBRANCH   4   5
ENDBRANCH   3   4
ENDBRANCH   2   3
ENDBRANCH   1   2
BRANCH   1   9
HETATM    9  C   UNK N   1       9.845   4.243  -0.000  0.00  0.00     0.000 C 
BRANCH   9  10
HETATM   10  C   UNK N   1      11.074   3.372  -0.000  0.00  0.00     0.000 C 
BRANCH  10  11
HETATM   11  C   UNK N   1      12.299   4.250   0.000  0.00  0.00     0.000 C 
BRANCH  11  12
HETATM   12  C   UNK N   1      13.526   3.372   0.000  0.00  0.00     0.001 C 
BRANCH  12  13
HETATM   13  C   UNK N   1      14.754   4.249   0.000  0.00  0.00     0.011 C 
BRANCH  13  14
HETATM   14  C   UNK N   1      15.989   3.377   0.000  0.00  0.00     0.085 C 
HETATM   15 Br   UNK N   1      17.553   4.509  -0.000  0.00  0.00    -0.097 Br
ENDBRANCH  13  14
ENDBRANCH  12  13
ENDBRANCH  11  12
ENDBRANCH  10  11
ENDBRANCH   9  10
ENDBRANCH   1   9
TORSDOF 12
