REMARK  8 active torsions:
REMARK  status: ('A' for Active; 'I' for Inactive)
REMARK    1  A    between atoms: N_1  and  C_2 
REMARK    2  A    between atoms: C_2  and  C_5 
REMARK    3  A    between atoms: C_8  and  O_9 
REMARK    4  A    between atoms: C_10  and  C_11 
REMARK    5  A    between atoms: C_11  and  N_12 
REMARK    6  A    between atoms: C_15  and  N_16 
REMARK    7  A    between atoms: N_16  and  S_17 
REMARK    8  A    between atoms: S_17  and  C_20 
ROOT
HETATM    1  N   UNK N   1      -3.719  -2.077  -0.733  0.00  0.00    -0.346 N 
HETATM    2  C   UNK N   1      -4.571  -1.153  -1.426  0.00  0.00     0.129 A 
HETATM    3  C   UNK N   1      -4.765   0.018  -0.439  0.00  0.00     0.055 A 
HETATM    4  C   UNK N   1      -3.910  -0.305   0.801  0.00  0.00     0.186 A 
HETATM    5  C   UNK N   1      -3.331  -1.624   0.463  0.00  0.00     0.243 A 
HETATM    6  O   UNK N   1      -2.605  -2.263   1.213  0.00  0.00    -0.271 OA
ENDROOT
BRANCH   1   7
HETATM    7  C   UNK N   1      -3.386  -3.369  -1.288  0.00  0.00     0.167 C 
BRANCH   7   8
HETATM    8  C   UNK N   1      -4.117  -4.497  -0.599  0.00  0.00    -0.006 A 
HETATM    9  C   UNK N   1      -5.485  -4.405  -0.252  0.00  0.00     0.073 A 
HETATM   10  C   UNK N   1      -6.130  -5.489   0.340  0.00  0.00     0.038 A 
HETATM   11  C   UNK N   1      -5.442  -6.678   0.570  0.00  0.00     0.018 A 
HETATM   12  C   UNK N   1      -4.093  -6.795   0.219  0.00  0.00     0.008 A 
HETATM   13  C   UNK N   1      -3.433  -5.697  -0.360  0.00  0.00     0.026 A 
BRANCH   9  14
HETATM   14  O   UNK N   1      -6.189  -3.286  -0.486  0.00  0.00    -0.360 OA
HETATM   15  H   UNK N   1      -5.759  -2.470  -0.650  0.00  0.00     0.217 HD
ENDBRANCH   9  14
BRANCH  12  16
HETATM   16  C   UNK N   1      -3.394  -8.081   0.430  0.00  0.00     0.102 C 
HETATM   17  N   UNK N   1      -2.161  -8.213   0.103  0.00  0.00    -0.385 N 
HETATM   18  H   UNK N   1      -1.776  -9.083  -0.148  0.00  0.00     0.157 HD
ATOM     19  HN  UNK N   1      -1.560  -7.389   0.103  1.00  0.00     0.157 HD
BRANCH  16  20
HETATM   20  N   UNK N   1      -4.098  -9.194   0.947  0.00  0.00    -0.385 N 
HETATM   21  H   UNK N   1      -5.013  -9.158   1.307  0.00  0.00     0.157 HD
HETATM   22  H   UNK N   1      -3.640 -10.066   0.947  0.00  0.00     0.157 HD
ENDBRANCH  16  20
ENDBRANCH  12  16
ENDBRANCH   7   8
ENDBRANCH   1   7
BRANCH   4  23
HETATM   23  N   UNK N   1      -2.921   0.740   1.093  0.00  0.00    -0.301 N 
HETATM   24  H   UNK N   1      -2.932   1.266   1.967  0.00  0.00     0.173 HD
BRANCH  23  25
HETATM   25  S   UNK N   1      -1.700   1.036  -0.175  0.00  0.00     0.266 S 
HETATM   26  O   UNK N   1      -2.275   0.602  -1.530  0.00  0.00    -0.200 OA
HETATM   27  O   UNK N   1      -1.690   2.563  -0.341  0.00  0.00    -0.200 OA
BRANCH  25  28
HETATM   28  C   UNK N   1      -0.050   0.421   0.079  0.00  0.00     0.123 A 
HETATM   29  C   UNK N   1       0.395  -0.876  -0.216  0.00  0.00     0.063 A 
HETATM   30  C   UNK N   1       1.784  -1.017   0.042  0.00  0.00     0.051 A 
HETATM   31  C   UNK N   1       2.401   0.133   0.519  0.00  0.00     0.033 A 
HETATM   32  N   UNK N   1       2.498  -2.153  -0.158  0.00  0.00    -0.365 N 
HETATM   33  S   UNK N   1       1.250   1.310   0.625  0.00  0.00    -0.074 SA
HETATM   34  C   UNK N   1       3.756   0.167   0.807  0.00  0.00     0.022 A 
HETATM   35  C   UNK N   1       4.488  -1.012   0.597  0.00  0.00     0.018 A 
HETATM   36  C   UNK N   1       3.838  -2.168   0.112  0.00  0.00     0.088 A 
ATOM     37  HN  UNK N   1       2.037  -2.992  -0.508  1.00  0.00     0.165 HD
ENDBRANCH  25  28
ENDBRANCH  23  25
ENDBRANCH   4  23
TORSDOF 8
