REMARK  7 active torsions:
REMARK  status: ('A' for Active; 'I' for Inactive)
REMARK    1  A    between atoms: S_2  and  C_3 
REMARK    2  A    between atoms: C_3  and  C_4 
REMARK    3  A    between atoms: C_4  and  C_5 
REMARK    4  A    between atoms: C_5  and  N_6 
REMARK    5  A    between atoms: C_5  and  P_7 
REMARK    6  A    between atoms: P_7  and  O_8 
REMARK    7  A    between atoms: P_7  and  O_9 
ROOT
HETATM    1  C   UNK N   1       4.698  -2.435  -0.116  0.00  0.00     0.187 C 
ENDROOT
BRANCH   1   2
HETATM    2  C   UNK N   1       3.475  -1.980   0.659  0.00  0.00     0.047 C 
BRANCH   2   3
HETATM    3  C   UNK N   1       2.602  -1.117  -0.236  0.00  0.00     0.076 C 
BRANCH   3   4
HETATM    4  S   UNK N   1       0.997  -0.822   0.556  0.00  0.00    -0.173 SA
HETATM    5  C   UNK N   1       0.231  -2.228  -0.300  0.00  0.00     0.089 C 
ENDBRANCH   3   4
ENDBRANCH   2   3
ENDBRANCH   1   2
BRANCH   1   6
HETATM    6  N   UNK N   1       5.286  -3.591   0.536  0.00  0.00    -0.417 N 
HETATM    7  H   UNK N   1       4.789  -4.355   0.994  0.00  0.00     0.150 HD
HETATM    8  H   UNK N   1       6.304  -3.645   0.536  0.00  0.00     0.150 HD
ENDBRANCH   1   6
BRANCH   1   9
HETATM    9  P   UNK N   1       5.980  -1.086  -0.237  0.00  0.00     0.258 P 
HETATM   10  O   UNK N   1       5.358   0.227  -0.786  0.00  0.00    -0.652 OA
BRANCH   9  11
HETATM   11  O   UNK N   1       6.712  -0.616   1.265  0.00  0.00    -0.328 OA
HETATM   12  H   UNK N   1       7.143  -0.839   2.105  0.00  0.00     0.220 HD
ENDBRANCH   9  11
BRANCH   9  13
HETATM   13  O   UNK N   1       7.273  -1.428  -1.342  0.00  0.00    -0.328 OA
HETATM   14  H   UNK N   1       7.468  -2.150  -1.960  0.00  0.00     0.220 HD
ENDBRANCH   9  13
ENDBRANCH   1   9
TORSDOF 7
