REMARK  17 active torsions:
REMARK  status: ('A' for Active; 'I' for Inactive)
REMARK    1  A    between atoms: C_12  and  C_7 
REMARK    2  A    between atoms: O_44  and  C_7 
REMARK    3  A    between atoms: C_13  and  C_8 
REMARK    4  A    between atoms: O_45  and  C_8 
REMARK    5  A    between atoms: C_19  and  C_11 
REMARK    6  A    between atoms: C_15  and  O_35 
REMARK    7  A    between atoms: C_16  and  O_36 
REMARK    8  A    between atoms: C_17  and  O_37 
REMARK    9  A    between atoms: C_18  and  O_38 
REMARK   10  A    between atoms: O_39  and  C_19 
REMARK   11  A    between atoms: C_22  and  N_32 
REMARK   12  A    between atoms: C_23  and  N_34 
REMARK   13  A    between atoms: P_49  and  O_41 
REMARK   14  A    between atoms: P_49  and  O_44 
REMARK   15  A    between atoms: P_50  and  O_45 
REMARK   16  A    between atoms: P_49  and  O_48 
REMARK   17  A    between atoms: P_50  and  O_48 
ROOT
HETATM    1  O   UNK N   1       4.181  -4.331  -1.857  0.00  0.00    -0.624 OA
HETATM    2  O   UNK N   1       6.436  -2.879  -1.874  0.00  0.00    -0.624 OA
HETATM    3  P   UNK N   1       4.868  -3.127  -1.162  0.00  0.00     0.417 P 
ENDROOT
BRANCH   3   4
HETATM    4  O   UNK N   1       3.871  -1.722  -1.412  0.00  0.00    -0.287 OA
BRANCH   4   5
HETATM    5  C   UNK N   1       4.739  -0.630  -1.262  0.00  0.00     0.216 C 
BRANCH   5   6
HETATM    6  C   UNK N   1       5.078  -0.264   0.211  0.00  0.00     0.180 C 
HETATM    7  C   UNK N   1       6.157   0.796   0.247  0.00  0.00     0.182 C 
HETATM    8  C   UNK N   1       5.301   1.997  -0.061  0.00  0.00     0.198 C 
HETATM    9  C   UNK N   1       4.131   1.688   0.874  0.00  0.00     0.262 C 
HETATM   10  O   UNK N   1       3.953   0.280   0.860  0.00  0.00    -0.353 OA
BRANCH   7  11
HETATM   11  O   UNK N   1       6.676   0.882   1.548  0.00  0.00    -0.390 OA
HETATM   12  H   UNK N   1       6.907   0.601   2.448  0.00  0.00     0.210 HD
ENDBRANCH   7  11
BRANCH   8  13
HETATM   13  O   UNK N   1       5.942   3.205   0.220  0.00  0.00    -0.388 OA
HETATM   14  H   UNK N   1       6.891   3.238   0.415  0.00  0.00     0.210 HD
ENDBRANCH   8  13
BRANCH   9  15
HETATM   15  N   UNK N   1       2.874   2.357   0.533  0.00  0.00    -0.297 N 
HETATM   16  C   UNK N   1       2.592   3.688   0.584  0.00  0.00     0.188 A 
HETATM   17  N   UNK N   1       1.265   3.925   0.354  0.00  0.00    -0.346 N 
HETATM   18  C   UNK N   1       0.738   2.699   0.160  0.00  0.00     0.123 A 
ATOM     19  HN  UNK N   1       0.784   4.824   0.334  1.00  0.00     0.167 HD
HETATM   20  C   UNK N   1      -0.562   2.279  -0.034  0.00  0.00     0.143 A 
HETATM   21  C   UNK N   1       1.710   1.766   0.242  0.00  0.00     0.142 A 
HETATM   22  N   UNK N   1      -1.683   3.016  -0.079  0.00  0.00    -0.349 N 
HETATM   23  N   UNK N   1      -0.811   0.966  -0.164  0.00  0.00    -0.301 N 
HETATM   24  C   UNK N   1      -2.682   2.110  -0.249  0.00  0.00     0.107 A 
ATOM     25  HN  UNK N   1      -1.767   4.030  -0.004  1.00  0.00     0.167 HD
HETATM   26  C   UNK N   1      -2.132   0.829  -0.304  0.00  0.00     0.116 A 
HETATM   27  C   UNK N   1       0.173   0.021  -0.117  0.00  0.00     0.191 A 
HETATM   28  N   UNK N   1       1.462   0.426   0.103  0.00  0.00    -0.336 N 
ATOM     29  HN  UNK N   1       2.220  -0.254   0.162  1.00  0.00     0.168 HD
ENDBRANCH   9  15
ENDBRANCH   5   6
ENDBRANCH   4   5
ENDBRANCH   3   4
BRANCH   3  30
HETATM   30  O   UNK N   1       4.928  -3.290   0.571  0.00  0.00    -0.188 OA
BRANCH  30  31
HETATM   31  P   UNK N   1       5.012  -4.926   1.111  0.00  0.00     0.402 P 
HETATM   32  O   UNK N   1       5.138  -4.523   2.599  0.00  0.00    -0.631 OA
BRANCH  31  33
HETATM   33  O   UNK N   1       6.531  -5.765   1.042  0.00  0.00    -0.307 OA
HETATM   34  H   UNK N   1       6.549  -6.734   1.003  0.00  0.00     0.222 HD
ENDBRANCH  31  33
BRANCH  31  35
HETATM   35  O   UNK N   1       3.535  -5.802   1.341  0.00  0.00    -0.294 OA
BRANCH  35  36
HETATM   36  C   UNK N   1       3.282  -6.477   0.154  0.00  0.00     0.215 C 
BRANCH  36  37
HETATM   37  C   UNK N   1       1.946  -6.045  -0.451  0.00  0.00     0.180 C 
HETATM   38  C   UNK N   1       0.812  -6.029   0.584  0.00  0.00     0.182 C 
HETATM   39  C   UNK N   1      -0.333  -6.464  -0.268  0.00  0.00     0.198 C 
HETATM   40  C   UNK N   1       0.351  -7.519  -1.136  0.00  0.00     0.259 C 
HETATM   41  O   UNK N   1       1.602  -6.956  -1.481  0.00  0.00    -0.353 OA
BRANCH  38  42
HETATM   42  O   UNK N   1       0.611  -4.756   1.131  0.00  0.00    -0.390 OA
HETATM   43  H   UNK N   1       1.304  -4.194   1.511  0.00  0.00     0.210 HD
ENDBRANCH  38  42
BRANCH  39  44
HETATM   44  O   UNK N   1      -1.425  -6.929   0.468  0.00  0.00    -0.388 OA
HETATM   45  H   UNK N   1      -2.084  -6.434   0.980  0.00  0.00     0.210 HD
ENDBRANCH  39  44
BRANCH  40  46
HETATM   46  N   UNK N   1       0.546  -8.848  -0.513  0.00  0.00    -0.336 N 
HETATM   47  C   UNK N   1      -0.541  -9.622  -0.226  0.00  0.00     0.093 A 
HETATM   48  C   UNK N   1      -0.382 -10.935   0.227  0.00  0.00     0.018 A 
HETATM   49  C   UNK N   1       0.900 -11.462   0.372  0.00  0.00     0.018 A 
HETATM   50  C   UNK N   1       2.013 -10.669   0.088  0.00  0.00     0.030 A 
HETATM   51  C   UNK N   1       1.808  -9.357  -0.359  0.00  0.00     0.108 A 
BRANCH  50  52
HETATM   52  C   UNK N   1       3.380 -11.217   0.227  0.00  0.00     0.145 C 
HETATM   53  N   UNK N   1       4.404 -10.468   0.031  0.00  0.00    -0.379 N 
HETATM   54  H   UNK N   1       5.294 -10.862  -0.120  0.00  0.00     0.158 HD
ATOM     55  HN  UNK N   1       4.295  -9.454   0.031  1.00  0.00     0.158 HD
BRANCH  52  56
HETATM   56  O   UNK N   1       3.561 -12.512   0.551  0.00  0.00    -0.346 OA
HETATM   57  H   UNK N   1       2.843 -13.071   0.777  0.00  0.00     0.219 HD
ENDBRANCH  52  56
ENDBRANCH  50  52
ENDBRANCH  40  46
ENDBRANCH  36  37
ENDBRANCH  35  36
ENDBRANCH  31  35
ENDBRANCH  30  31
ENDBRANCH   3  30
TORSDOF 17
