REMARK  10 active torsions:
REMARK  status: ('A' for Active; 'I' for Inactive)
REMARK    1  A    between atoms: C_3  and  C_2 
REMARK    2  A    between atoms: O_25  and  C_2 
REMARK    3  A    between atoms: S_27  and  C_3 
REMARK    4  A    between atoms: C_7  and  C_4 
REMARK    5  A    between atoms: S_27  and  C_4 
REMARK    6  A    between atoms: C_9  and  O_23 
REMARK    7  A    between atoms: C_10  and  O_24 
REMARK    8  A    between atoms: N_14  and  C_11 
REMARK    9  A    between atoms: C_13  and  N_22 
REMARK   10  A    between atoms: O_25  and  N_15 
ROOT
HETATM    1  C   UNK N   1      -0.474   5.210  -0.728  0.00  0.00     0.164 C 
HETATM    2  C   UNK N   1      -0.459   6.633  -0.125  0.00  0.00     0.180 C 
HETATM    3  C   UNK N   1      -1.942   6.919  -0.091  0.00  0.00     0.198 C 
HETATM    4  C   UNK N   1      -2.421   5.547   0.369  0.00  0.00     0.262 C 
HETATM    5  O   UNK N   1      -1.745   4.638  -0.464  0.00  0.00    -0.355 OA
ENDROOT
BRANCH   4   6
HETATM    6  N   UNK N   1      -3.869   5.303   0.334  0.00  0.00    -0.297 N 
HETATM    7  C   UNK N   1      -4.422   4.075   0.520  0.00  0.00     0.188 A 
HETATM    8  N   UNK N   1      -5.782   4.129   0.511  0.00  0.00    -0.346 N 
HETATM    9  C   UNK N   1      -6.061   5.429   0.332  0.00  0.00     0.122 A 
ATOM     10  HN  UNK N   1      -6.439   3.356   0.617  1.00  0.00     0.167 HD
HETATM   11  C   UNK N   1      -7.287   6.070   0.294  0.00  0.00     0.131 A 
HETATM   12  C   UNK N   1      -4.917   6.137   0.215  0.00  0.00     0.142 A 
HETATM   13  N   UNK N   1      -7.295   7.426   0.138  0.00  0.00    -0.337 N 
HETATM   14  C   UNK N   1      -6.120   8.130   0.020  0.00  0.00     0.183 A 
ATOM     15  HN  UNK N   1      -8.185   7.924   0.109  1.00  0.00     0.168 HD
HETATM   16  N   UNK N   1      -4.914   7.482   0.061  0.00  0.00    -0.336 N 
ATOM     17  HN  UNK N   1      -4.038   7.999  -0.021  1.00  0.00     0.168 HD
BRANCH  11  18
HETATM   18  N   UNK N   1      -8.492   5.352   0.438  0.00  0.00    -0.383 N 
HETATM   19  H   UNK N   1      -9.347   5.831   0.538  0.00  0.00     0.157 HD
HETATM   20  H   UNK N   1      -8.479   4.368   0.438  0.00  0.00     0.157 HD
ENDBRANCH  11  18
ENDBRANCH   4   6
BRANCH   3  21
HETATM   21  O   UNK N   1      -2.265   7.952   0.794  0.00  0.00    -0.388 OA
HETATM   22  H   UNK N   1      -1.756   8.504   1.408  0.00  0.00     0.210 HD
ENDBRANCH   3  21
BRANCH   2  23
HETATM   23  O   UNK N   1       0.030   6.607   1.191  0.00  0.00    -0.390 OA
HETATM   24  H   UNK N   1       0.183   6.306   2.101  0.00  0.00     0.210 HD
ENDBRANCH   2  23
BRANCH   1  25
HETATM   25  C   UNK N   1       0.583   4.286  -0.115  0.00  0.00     0.097 C 
BRANCH  25  26
HETATM   26  S   UNK N   1       2.288   4.554  -0.700  0.00  0.00    -0.219 SA
HETATM   27  C   UNK N   1       2.876   6.200  -1.209  0.00  0.00     0.078 C 
BRANCH  26  28
HETATM   28  C   UNK N   1       3.468   3.166  -0.549  0.00  0.00     0.091 C 
BRANCH  28  29
HETATM   29  C   UNK N   1       4.224   3.259   0.766  0.00  0.00     0.209 C 
BRANCH  29  30
HETATM   30  O   UNK N   1       5.300   4.138   0.632  0.00  0.00    -0.287 OA
BRANCH  30  31
HETATM   31  N   UNK N   1       4.950   5.230   1.351  0.00  0.00    -0.311 N 
HETATM   32  H   UNK N   1       5.530   5.870   1.893  0.00  0.00     0.184 HD
HETATM   33  H   UNK N   1       3.953   5.446   1.351  0.00  0.00     0.184 HD
ENDBRANCH  30  31
ENDBRANCH  29  30
ENDBRANCH  28  29
ENDBRANCH  26  28
ENDBRANCH  25  26
ENDBRANCH   1  25
TORSDOF 10
