REMARK  2 active torsions:
REMARK  status: ('A' for Active; 'I' for Inactive)
REMARK    1  A    between atoms: C_2  and  O_5 
REMARK    2  A    between atoms: O_5  and  C_6 
ROOT
HETATM    1  C   UNK N   1       3.797  -1.274   0.000  0.00  0.00     0.045 C 
HETATM    2  C   UNK N   1       2.302  -1.036   0.000  0.00  0.00     0.059 C 
HETATM    3  C   UNK N   1       2.572   0.465  -0.000  0.00  0.00     0.045 C 
HETATM    4  C   UNK N   1       2.649  -2.509  -0.000  0.00  0.00     0.045 C 
ENDROOT
BRANCH   2   5
HETATM    5  O   UNK N   1       0.934  -1.317  -0.000  0.00  0.00    -0.318 OA
BRANCH   5   6
HETATM    6  C   UNK N   1      -0.155  -0.493  -0.000  0.00  0.00     0.398 C 
HETATM    7  O   UNK N   1      -0.061   0.723   0.000  0.00  0.00    -0.276 OA
ENDBRANCH   5   6
ENDBRANCH   2   5
TORSDOF 2
