REMARK  4 active torsions:
REMARK  status: ('A' for Active; 'I' for Inactive)
REMARK    1  A    between atoms: O_1  and  C_2 
REMARK    2  A    between atoms: C_2  and  C_3 
REMARK    3  A    between atoms: C_3  and  O_4 
REMARK    4  A    between atoms: C_3  and  C_5 
ROOT
HETATM    1  C   UNK N   1       1.561  -0.670  -0.000  0.00  0.00     0.202 C 
ENDROOT
BRANCH   1   2
HETATM    2  C   UNK N   1       3.061  -0.911   0.000  0.00  0.00     0.203 C 
BRANCH   2   3
HETATM    3  O   UNK N   1       3.334  -2.280  -0.000  0.00  0.00    -0.398 OA
HETATM    4  H   UNK N   1       2.604  -2.920  -0.000  0.00  0.00     0.209 HD
ENDBRANCH   2   3
ENDBRANCH   1   2
BRANCH   1   5
HETATM    5  O   UNK N   1       0.691  -1.762   0.000  0.00  0.00    -0.387 OA
HETATM    6  H   UNK N   1      -0.269  -1.618   0.000  0.00  0.00     0.210 HD
ENDBRANCH   1   5
BRANCH   1   7
HETATM    7  C   UNK N   1       0.976   0.704   0.000  0.00  0.00     0.264 C 
HETATM    8  O   UNK N   1      -0.233   0.857   0.000  0.00  0.00    -0.304 OA
ENDBRANCH   1   7
TORSDOF 4
