REMARK  0 active torsions:
REMARK  status: ('A' for Active; 'I' for Inactive)
ROOT
HETATM    1  C   UNK N   1       4.363   4.651   0.000  0.00  0.00     0.050 C 
HETATM    2  C   UNK N   1       6.660   1.604  -0.000  0.00  0.00     0.002 A 
HETATM    3  C   UNK N   1       6.204   2.943  -0.000  0.00  0.00     0.009 A 
HETATM    4  C   UNK N   1       5.750   0.533   0.000  0.00  0.00     0.021 A 
HETATM    5  C   UNK N   1       1.577   3.161  -0.000  0.00  0.00     0.207 A 
HETATM    6  C   UNK N   1       4.829   3.236  -0.000  0.00  0.00    -0.033 A 
HETATM    7  C   UNK N   1       4.398   0.840   0.000  0.00  0.00     0.036 A 
HETATM    8  C   UNK N   1       3.930   2.168   0.000  0.00  0.00     0.065 A 
HETATM    9  C   UNK N   1       1.956   1.078   0.000  0.00  0.00     0.172 A 
HETATM   10  N   UNK N   1       0.381   2.507  -0.000  0.00  0.00    -0.294 N 
ATOM     11  HN  UNK N   1      -0.540   2.944  -0.000  1.00  0.00     0.187 HD
HETATM   12  N   UNK N   1       0.625   1.195   0.000  0.00  0.00    -0.278 N 
ATOM     13  HN  UNK N   1      -0.061   0.440   0.000  1.00  0.00     0.189 HD
HETATM   14  N   UNK N   1       2.562   2.253   0.000  0.00  0.00    -0.284 N 
HETATM   15  S   UNK N   1       3.052  -0.160   0.000  0.00  0.00    -0.050 SA
ENDROOT
TORSDOF 0
