REMARK  6 active torsions:
REMARK  status: ('A' for Active; 'I' for Inactive)
REMARK    1  A    between atoms: C_3  and  C_4 
REMARK    2  A    between atoms: C_4  and  C_5 
REMARK    3  A    between atoms: C_5  and  N_6 
REMARK    4  A    between atoms: C_5  and  C_7 
REMARK    5  A    between atoms: C_7  and  O_8 
REMARK    6  A    between atoms: C_10  and  O_11 
ROOT
HETATM    1  C   UNK N   1       0.375  -1.829  -0.592  0.00  0.00     0.079 C 
HETATM    2  C   UNK N   1       1.023  -0.509  -0.369  0.00  0.00     0.083 A 
HETATM    3  C   UNK N   1       0.438   0.687   0.024  0.00  0.00     0.028 A 
HETATM    4  C   UNK N   1       1.494   1.564   0.078  0.00  0.00     0.169 A 
HETATM    5  N   UNK N   1       2.630   0.931  -0.263  0.00  0.00    -0.239 N 
ATOM      6  HN  UNK N   1       3.562   1.342  -0.310  1.00  0.00     0.197 HD
HETATM    7  O   UNK N   1       2.315  -0.307  -0.523  0.00  0.00    -0.240 OA
ENDROOT
BRANCH   3   8
HETATM    8  C   UNK N   1      -0.989   1.055   0.339  0.00  0.00     0.081 C 
BRANCH   8   9
HETATM    9  C   UNK N   1      -2.070   0.108  -0.185  0.00  0.00     0.177 C 
BRANCH   9  10
HETATM   10  N   UNK N   1      -2.130  -1.087   0.640  0.00  0.00    -0.417 N 
HETATM   11  H   UNK N   1      -2.877  -1.470   1.218  0.00  0.00     0.150 HD
HETATM   12  H   UNK N   1      -1.273  -1.641   0.640  0.00  0.00     0.150 HD
ENDBRANCH   9  10
BRANCH   9  13
HETATM   13  C   UNK N   1      -3.427   0.761  -0.187  0.00  0.00     0.163 C 
HETATM   14  O   UNK N   1      -3.578   1.901   0.227  0.00  0.00    -0.648 OA
BRANCH  13  15
HETATM   15  O   UNK N   1      -4.491   0.078  -0.650  0.00  0.00    -0.775 OA
HETATM   16  H   UNK N   1      -5.273   0.482  -0.972  0.00  0.00     0.167 HD
ENDBRANCH  13  15
ENDBRANCH   9  13
ENDBRANCH   8   9
ENDBRANCH   3   8
BRANCH   4  17
HETATM   17  O   UNK N   1       1.429   2.865   0.408  0.00  0.00    -0.344 OA
HETATM   18  H   UNK N   1       2.192   3.357   0.638  0.00  0.00     0.219 HD
ENDBRANCH   4  17
TORSDOF 6
