REMARK  5 active torsions:
REMARK  status: ('A' for Active; 'I' for Inactive)
REMARK       I    between atoms: C_2  and  N_4 
REMARK    1  A    between atoms: C_5  and  N_4 
REMARK    2  A    between atoms: C_6  and  O_7 
REMARK    3  A    between atoms: C_8  and  O_9 
REMARK    4  A    between atoms: C_10  and  C_11 
REMARK    5  A    between atoms: C_11  and  O_12 
ROOT
HETATM    1  C   UNK N   1       1.770   0.903   0.300  0.00  0.00     0.215 C 
HETATM    2  C   UNK N   1       1.898  -0.557  -0.124  0.00  0.00     0.182 C 
HETATM    3  C   UNK N   1       0.668  -1.333   0.300  0.00  0.00     0.181 C 
HETATM    4  C   UNK N   1      -0.553  -0.779  -0.450  0.00  0.00     0.186 C 
HETATM    5  O   UNK N   1      -0.601   0.607  -0.468  0.00  0.00    -0.309 OA
HETATM    6  C   UNK N   1       0.395   1.440  -0.057  0.00  0.00     0.285 C 
HETATM    7  O   UNK N   1       0.152   2.627   0.076  0.00  0.00    -0.263 OA
ENDROOT
BRANCH   1   8
HETATM    8  N   UNK N   1       2.844   1.648  -0.331  0.00  0.00    -0.345 N 
HETATM    9  C   UNK N   1       3.187   2.916   0.002  0.00  0.00     0.214 C 
HETATM   10  C   UNK N   1       4.351   3.560  -0.667  0.00  0.00     0.117 C 
HETATM   11  O   UNK N   1       2.573   3.530   0.863  0.00  0.00    -0.274 OA
HETATM   12  H   UNK N   1       3.355   1.204  -1.046  0.00  0.00     0.163 HD
ENDBRANCH   1   8
BRANCH   2  13
HETATM   13  O   UNK N   1       3.047  -1.112   0.443  0.00  0.00    -0.390 OA
HETATM   14  H   UNK N   1       3.112  -1.996   0.837  0.00  0.00     0.210 HD
ENDBRANCH   2  13
BRANCH   3  15
HETATM   15  O   UNK N   1       0.832  -2.686  -0.008  0.00  0.00    -0.390 OA
HETATM   16  H   UNK N   1       0.076  -3.254  -0.222  0.00  0.00     0.210 HD
ENDBRANCH   3  15
BRANCH   4  17
HETATM   17  C   UNK N   1      -1.840  -1.307   0.173  0.00  0.00     0.199 C 
BRANCH  17  18
HETATM   18  O   UNK N   1      -1.971  -2.678  -0.051  0.00  0.00    -0.398 OA
HETATM   19  H   UNK N   1      -2.842  -3.076  -0.206  0.00  0.00     0.209 HD
ENDBRANCH  17  18
ENDBRANCH   4  17
TORSDOF 5
