REMARK  12 active torsions:
REMARK  status: ('A' for Active; 'I' for Inactive)
REMARK    1  A    between atoms: C_6  and  C_1 
REMARK    2  A    between atoms: N_10  and  C_1 
REMARK    3  A    between atoms: C_5  and  C_3 
REMARK    4  A    between atoms: O_11  and  C_3 
REMARK    5  A    between atoms: C_8  and  C_4 
REMARK    6  A    between atoms: O_12  and  C_4 
REMARK    7  A    between atoms: C_8  and  C_6 
REMARK    8  A    between atoms: C_6  and  O_13 
REMARK    9  A    between atoms: C_7  and  O_14 
REMARK   10  A    between atoms: O_19  and  C_8 
REMARK   11  A    between atoms: C_9  and  O_15 
REMARK   12  A    between atoms: S_20  and  O_19 
ROOT
HETATM    1  C   UNK N   1       0.624  -1.107   0.218  0.00  0.00     0.307 C 
ENDROOT
BRANCH   1   2
HETATM    2  C   UNK N   1       2.113  -1.535   0.243  0.00  0.00     0.179 C 
BRANCH   2   3
HETATM    3  C   UNK N   1       3.124  -0.368   0.215  0.00  0.00     0.199 C 
BRANCH   3   4
HETATM    4  C   UNK N   1       2.734   0.637   1.315  0.00  0.00     0.200 C 
BRANCH   4   5
HETATM    5  O   UNK N   1       3.145   1.930   0.979  0.00  0.00    -0.398 OA
HETATM    6  H   UNK N   1       4.065   2.132   0.746  0.00  0.00     0.209 HD
ENDBRANCH   4   5
ENDBRANCH   3   4
BRANCH   3   7
HETATM    7  O   UNK N   1       4.435  -0.866   0.420  0.00  0.00    -0.247 OA
BRANCH   7   8
HETATM    8  S   UNK N   1       5.561   0.445   0.086  0.00  0.00     0.252 S 
HETATM    9  O   UNK N   1       6.676   1.751  -0.223  0.00  0.00    -0.572 OA
HETATM   10  O   UNK N   1       5.666  -0.054  -1.588  0.00  0.00    -0.572 OA
HETATM   11  O   UNK N   1       5.613   0.822   1.788  0.00  0.00    -0.572 OA
ENDBRANCH   7   8
ENDBRANCH   3   7
ENDBRANCH   2   3
BRANCH   2  12
HETATM   12  O   UNK N   1       2.367  -2.419  -0.807  0.00  0.00    -0.391 OA
HETATM   13  H   UNK N   1       1.923  -2.878  -1.537  0.00  0.00     0.210 HD
ENDBRANCH   2  12
ENDBRANCH   1   2
BRANCH   1  14
HETATM   14  N   UNK N   1       0.190  -0.343  -0.968  0.00  0.00     0.103 N 
HETATM   15  C   UNK N   1       0.698   1.029  -0.804  0.00  0.00     0.307 C 
HETATM   16  C   UNK N   1      -0.412   1.911  -0.241  0.00  0.00     0.177 C 
HETATM   17  C   UNK N   1      -1.514   0.931   0.091  0.00  0.00     0.184 C 
HETATM   18  C   UNK N   1      -1.273  -0.129  -0.973  0.00  0.00     0.277 C 
BRANCH  16  19
HETATM   19  O   UNK N   1       0.012   2.608   0.892  0.00  0.00    -0.391 OA
HETATM   20  H   UNK N   1       0.579   2.594   1.679  0.00  0.00     0.210 HD
ENDBRANCH  16  19
BRANCH  17  21
HETATM   21  O   UNK N   1      -2.781   1.514   0.021  0.00  0.00    -0.391 OA
HETATM   22  H   UNK N   1      -2.870   2.479  -0.027  0.00  0.00     0.210 HD
ENDBRANCH  17  21
BRANCH  18  23
HETATM   23  C   UNK N   1      -2.129  -1.398  -0.824  0.00  0.00     0.202 C 
BRANCH  23  24
HETATM   24  O   UNK N   1      -2.043  -1.951   0.456  0.00  0.00    -0.399 OA
HETATM   25  H   UNK N   1      -2.345  -2.195   1.345  0.00  0.00     0.209 HD
ENDBRANCH  23  24
ENDBRANCH  18  23
ENDBRANCH   1  14
TORSDOF 12
