REMARK  6 active torsions:
REMARK  status: ('A' for Active; 'I' for Inactive)
REMARK    1  A    between atoms: O_1  and  C_2 
REMARK    2  A    between atoms: C_2  and  C_4 
REMARK    3  A    between atoms: C_4  and  C_6 
REMARK    4  A    between atoms: C_6  and  P_7 
REMARK    5  A    between atoms: P_7  and  O_8 
REMARK    6  A    between atoms: P_7  and  O_9 
ROOT
HETATM    1  C   UNK N   1       1.974  -1.728   0.300  0.00  0.00     0.215 C 
ENDROOT
BRANCH   1   2
HETATM    2  C   UNK N   1       0.671  -1.007   0.134  0.00  0.00     0.232 C 
HETATM    3  O   UNK N   1       0.600   0.198   0.326  0.00  0.00    -0.285 OA
BRANCH   2   4
HETATM    4  C   UNK N   1      -0.541  -1.770  -0.208  0.00  0.00     0.214 C 
HETATM    5  O   UNK N   1      -0.487  -2.983  -0.340  0.00  0.00    -0.644 OA
BRANCH   4   6
HETATM    6  O   UNK N   1      -1.720  -1.136  -0.359  0.00  0.00    -0.771 OA
HETATM    7  H   UNK N   1      -1.748  -0.206  -0.464  0.00  0.00     0.167 HD
ENDBRANCH   4   6
ENDBRANCH   2   4
ENDBRANCH   1   2
BRANCH   1   8
HETATM    8  P   UNK N   1       3.432  -0.734  -0.289  0.00  0.00     0.243 P 
HETATM    9  O   UNK N   1       3.765   0.522   0.557  0.00  0.00    -0.653 OA
BRANCH   8  10
HETATM   10  O   UNK N   1       4.873  -1.242  -1.113  0.00  0.00    -0.329 OA
HETATM   11  H   UNK N   1       5.030  -2.081  -1.573  0.00  0.00     0.220 HD
ENDBRANCH   8  10
BRANCH   8  12
HETATM   12  O   UNK N   1       4.094  -1.692   0.990  0.00  0.00    -0.329 OA
HETATM   13  H   UNK N   1       3.815  -2.282   1.708  0.00  0.00     0.220 HD
ENDBRANCH   8  12
ENDBRANCH   1   8
TORSDOF 6
