REMARK  5 active torsions:
REMARK  status: ('A' for Active; 'I' for Inactive)
REMARK    1  A    between atoms: C_2  and  O_7 
REMARK    2  A    between atoms: C_5  and  C_3 
REMARK    3  A    between atoms: C_4  and  O_8 
REMARK    4  A    between atoms: O_10  and  C_5 
REMARK    5  A    between atoms: C_6  and  O_11 
ROOT
HETATM    1  C   UNK N   1       2.049   0.953  -0.013  0.00  0.00     0.051 C 
HETATM    2  C   UNK N   1       0.888   1.874  -0.255  0.00  0.00     0.177 C 
HETATM    3  C   UNK N   1       1.879  -0.383  -0.023  0.00  0.00     0.144 C 
HETATM    4  C   UNK N   1      -0.399   1.211   0.241  0.00  0.00     0.206 C 
HETATM    5  C   UNK N   1      -0.530  -0.192  -0.375  0.00  0.00     0.295 C 
HETATM    6  O   UNK N   1       0.641  -0.927  -0.225  0.00  0.00    -0.311 OA
ENDROOT
BRANCH   3   7
HETATM    7  C   UNK N   1       3.035  -1.282   0.162  0.00  0.00     0.200 C 
HETATM    8  O   UNK N   1       4.157  -0.825   0.336  0.00  0.00    -0.645 OA
BRANCH   7   9
HETATM    9  O   UNK N   1       2.861  -2.615   0.121  0.00  0.00    -0.771 OA
HETATM   10  H   UNK N   1       1.996  -2.975   0.092  0.00  0.00     0.167 HD
ENDBRANCH   7   9
ENDBRANCH   3   7
BRANCH   2  11
HETATM   11  O   UNK N   1       1.096   3.080   0.417  0.00  0.00    -0.389 OA
HETATM   12  H   UNK N   1       1.894   3.373   0.884  0.00  0.00     0.210 HD
ENDBRANCH   2  11
BRANCH   5  13
HETATM   13  O   UNK N   1      -1.580  -0.870   0.248  0.00  0.00    -0.368 OA
HETATM   14  H   UNK N   1      -2.352  -0.474   0.681  0.00  0.00     0.212 HD
ENDBRANCH   5  13
BRANCH   4  15
HETATM   15  O   UNK N   1      -1.510   1.992  -0.088  0.00  0.00    -0.388 OA
HETATM   16  H   UNK N   1      -1.427   2.931  -0.316  0.00  0.00     0.210 HD
ENDBRANCH   4  15
TORSDOF 5
