REMARK  5 active torsions:
REMARK  status: ('A' for Active; 'I' for Inactive)
REMARK    1  A    between atoms: O_1  and  N_2 
REMARK    2  A    between atoms: N_2  and  C_3 
REMARK       I    between atoms: N_2  and  C_7 
REMARK    3  A    between atoms: C_3  and  C_4 
REMARK    4  A    between atoms: C_4  and  O_5 
REMARK    5  A    between atoms: C_7  and  O_8 
ROOT
HETATM    1  N   UNK N   1       2.356   1.005  -0.000  0.00  0.00    -0.195 N 
HETATM    2  C   UNK N   1       3.541   0.341  -0.000  0.00  0.00     0.277 C 
HETATM    3  O   UNK N   1       3.567  -0.881  -0.000  0.00  0.00    -0.630 OA
ENDROOT
BRANCH   1   4
HETATM    4  O   UNK N   1       2.352   2.347   0.000  0.00  0.00    -0.282 OA
HETATM    5  H   UNK N   1       3.191   2.835   0.000  0.00  0.00     0.245 HD
ENDBRANCH   1   4
BRANCH   1   6
HETATM    6  C   UNK N   1       1.116   0.240  -0.000  0.00  0.00     0.272 C 
BRANCH   6   7
HETATM    7  C   UNK N   1      -0.179   1.008   0.000  0.00  0.00     0.160 C 
HETATM    8  O   UNK N   1      -0.210   2.227  -0.000  0.00  0.00    -0.649 OA
BRANCH   7   9
HETATM    9  O   UNK N   1      -1.334   0.317   0.000  0.00  0.00    -0.775 OA
HETATM   10  H   UNK N   1      -2.153   0.772   0.000  0.00  0.00     0.167 HD
ENDBRANCH   7   9
ENDBRANCH   6   7
ENDBRANCH   1   6
BRANCH   2  11
HETATM   11  O   UNK N   1       4.702   1.025   0.000  0.00  0.00    -0.758 OA
HETATM   12  H   UNK N   1       5.518   0.564   0.000  0.00  0.00     0.169 HD
ENDBRANCH   2  11
TORSDOF 5
