REMARK  10 active torsions:
REMARK  status: ('A' for Active; 'I' for Inactive)
REMARK    1  A    between atoms: C_4  and  C_3 
REMARK    2  A    between atoms: O_21  and  C_3 
REMARK    3  A    between atoms: N_10  and  C_5 
REMARK    4  A    between atoms: C_6  and  O_15 
REMARK    5  A    between atoms: C_7  and  O_16 
REMARK    6  A    between atoms: C_8  and  N_14 
REMARK    7  A    between atoms: O_17  and  C_9 
REMARK    8  A    between atoms: P_23  and  O_18 
REMARK    9  A    between atoms: P_23  and  O_19 
REMARK   10  A    between atoms: P_23  and  O_21 
ROOT
HETATM    1  C   UNK N   1       3.903  -0.242  -0.664  0.00  0.00     0.180 C 
HETATM    2  C   UNK N   1       3.107   0.665   0.299  0.00  0.00     0.182 C 
HETATM    3  C   UNK N   1       1.728   0.044   0.234  0.00  0.00     0.198 C 
HETATM    4  C   UNK N   1       2.190  -1.411   0.190  0.00  0.00     0.262 C 
HETATM    5  O   UNK N   1       3.149  -1.426  -0.841  0.00  0.00    -0.353 OA
ENDROOT
BRANCH   4   6
HETATM    6  N   UNK N   1       1.216  -2.506   0.005  0.00  0.00    -0.293 N 
HETATM    7  C   UNK N   1       1.762  -3.753  -0.107  0.00  0.00     0.101 A 
HETATM    8  C   UNK N   1       0.966  -4.881  -0.239  0.00  0.00     0.065 A 
HETATM    9  C   UNK N   1      -0.409  -4.718  -0.247  0.00  0.00     0.102 A 
HETATM   10  N   UNK N   1      -0.943  -3.477  -0.131  0.00  0.00    -0.308 N 
HETATM   11  C   UNK N   1      -0.155  -2.373  -0.005  0.00  0.00     0.227 A 
ATOM     12  HN  UNK N   1      -1.957  -3.367  -0.139  1.00  0.00     0.171 HD
BRANCH   9  13
HETATM   13  N   UNK N   1      -1.171  -5.738  -0.352  0.00  0.00    -0.385 N 
HETATM   14  H   UNK N   1      -2.145  -5.622  -0.432  0.00  0.00     0.157 HD
ATOM     15  HN  UNK N   1      -0.769  -6.675  -0.352  1.00  0.00     0.157 HD
ENDBRANCH   9  13
BRANCH  11  16
HETATM   16  O   UNK N   1      -0.745  -1.176   0.138  0.00  0.00    -0.332 OA
HETATM   17  H   UNK N   1      -0.227  -0.401   0.237  0.00  0.00     0.221 HD
ENDBRANCH  11  16
ENDBRANCH   4   6
BRANCH   3  18
HETATM   18  O   UNK N   1       1.102   0.392  -0.971  0.00  0.00    -0.388 OA
HETATM   19  H   UNK N   1       1.094   0.887  -1.804  0.00  0.00     0.210 HD
ENDBRANCH   3  18
BRANCH   2  20
HETATM   20  O   UNK N   1       3.125   2.014  -0.066  0.00  0.00    -0.390 OA
HETATM   21  H   UNK N   1       3.943   2.471  -0.319  0.00  0.00     0.210 HD
ENDBRANCH   2  20
BRANCH   1  22
HETATM   22  C   UNK N   1       5.243  -0.691  -0.088  0.00  0.00     0.215 C 
BRANCH  22  23
HETATM   23  O   UNK N   1       6.069   0.360   0.317  0.00  0.00    -0.294 OA
BRANCH  23  24
HETATM   24  P   UNK N   1       7.567   0.092  -0.529  0.00  0.00     0.390 P 
HETATM   25  O   UNK N   1       7.578   1.625  -0.297  0.00  0.00    -0.632 OA
BRANCH  24  26
HETATM   26  O   UNK N   1       9.109   0.367   0.215  0.00  0.00    -0.307 OA
HETATM   27  H   UNK N   1       9.673  -0.303   0.631  0.00  0.00     0.222 HD
ENDBRANCH  24  26
BRANCH  24  28
HETATM   28  O   UNK N   1       7.706  -0.713   1.009  0.00  0.00    -0.307 OA
HETATM   29  H   UNK N   1       7.357  -1.005   1.866  0.00  0.00     0.222 HD
ENDBRANCH  24  28
ENDBRANCH  23  24
ENDBRANCH  22  23
ENDBRANCH   1  22
TORSDOF 10
