REMARK WARNING: 32 MAX_TORS EXCEEDED!!!
REMARK  77 active torsions:
REMARK  status: ('A' for Active; 'I' for Inactive)
REMARK    1  A    between atoms: C_9  and  C_1 
REMARK    2  A    between atoms: C_17  and  C_1 
REMARK    3  A    between atoms: C_10  and  C_2 
REMARK    4  A    between atoms: C_18  and  C_2 
REMARK    5  A    between atoms: C_11  and  C_3 
REMARK    6  A    between atoms: C_19  and  C_3 
REMARK    7  A    between atoms: C_12  and  C_4 
REMARK    8  A    between atoms: C_20  and  C_4 
REMARK    9  A    between atoms: C_13  and  C_5 
REMARK   10  A    between atoms: C_29  and  C_5 
REMARK   11  A    between atoms: C_14  and  C_6 
REMARK   12  A    between atoms: C_30  and  C_6 
REMARK   13  A    between atoms: C_15  and  C_7 
REMARK   14  A    between atoms: C_31  and  C_7 
REMARK   15  A    between atoms: C_16  and  C_8 
REMARK   16  A    between atoms: C_32  and  C_8 
REMARK   17  A    between atoms: N_81  and  C_9 
REMARK   18  A    between atoms: N_82  and  C_10 
REMARK   19  A    between atoms: N_85  and  C_11 
REMARK   20  A    between atoms: N_87  and  C_12 
REMARK   21  A    between atoms: N_83  and  C_13 
REMARK   22  A    between atoms: N_84  and  C_14 
REMARK   23  A    between atoms: N_89  and  C_15 
REMARK   24  A    between atoms: N_91  and  C_16 
REMARK   25  A    between atoms: N_93  and  C_17 
REMARK   26  A    between atoms: N_94  and  C_18 
REMARK   27  A    between atoms: N_95  and  C_19 
REMARK   28  A    between atoms: N_96  and  C_20 
REMARK   29  A    between atoms: O_119  and  C_29 
REMARK   30  A    between atoms: O_120  and  C_30 
REMARK   31  A    between atoms: O_121  and  C_31 
REMARK   32  A    between atoms: O_122  and  C_32 
REMARK   33  A    between atoms: C_37  and  C_33 
REMARK   34  A    between atoms: O_119  and  C_33 
REMARK   35  A    between atoms: C_38  and  C_34 
REMARK   36  A    between atoms: O_120  and  C_34 
REMARK   37  A    between atoms: C_39  and  C_35 
REMARK   38  A    between atoms: O_121  and  C_35 
REMARK   39  A    between atoms: C_40  and  C_36 
REMARK   40  A    between atoms: O_122  and  C_36 
REMARK   41  A    between atoms: O_123  and  C_37 
REMARK   42  A    between atoms: O_124  and  C_38 
REMARK   43  A    between atoms: O_123  and  C_39 
REMARK   44  A    between atoms: O_124  and  C_40 
REMARK   45  A    between atoms: C_58  and  C_47 
REMARK   46  A    between atoms: O_99  and  C_47 
REMARK   47  A    between atoms: C_59  and  C_48 
REMARK   48  A    between atoms: O_100  and  C_48 
REMARK   49  A    between atoms: C_53  and  C_49 
REMARK   50  A    between atoms: O_125  and  C_49 
REMARK   51  A    between atoms: C_53  and  C_50 
REMARK   52  A    between atoms: O_126  and  C_50 
REMARK   53  A    between atoms: C_74  and  C_51 
REMARK   54  A    between atoms: C_75  and  C_52 
REMARK   55  A    between atoms: N_80  and  C_53 
REMARK   56  A    between atoms: N_97  and  C_54 
REMARK   57  A    between atoms: N_98  and  C_55 
REMARK   58  A    between atoms: O_127  and  C_56 
REMARK   59  A    between atoms: O_128  and  C_57 
REMARK   60  A    between atoms: N_81  and  C_60 
REMARK   61  A    between atoms: N_82  and  C_61 
REMARK   62  A    between atoms: N_83  and  C_62 
REMARK   63  A    between atoms: N_84  and  C_63 
REMARK   64  A    between atoms: C_64  and  O_101 
REMARK   65  A    between atoms: O_102  and  C_65 
REMARK   66  A    between atoms: C_70  and  O_107 
REMARK   67  A    between atoms: O_108  and  C_71 
REMARK   68  A    between atoms: C_72  and  O_109 
REMARK   69  A    between atoms: O_110  and  C_73 
REMARK   70  A    between atoms: O_111  and  C_74 
REMARK   71  A    between atoms: O_112  and  C_75 
REMARK   72  A    between atoms: C_76  and  O_127 
REMARK   73  A    between atoms: O_128  and  C_77 
REMARK   74  A    between atoms: O_113  and  C_78 
REMARK   75  A    between atoms: O_125  and  C_78 
REMARK   76  A    between atoms: O_114  and  C_79 
REMARK   77  A    between atoms: O_126  and  C_79 
ROOT
HETATM    1  C   UNK N   1      15.785   9.637   0.030  0.00  0.00     0.123 C 
ENDROOT
BRANCH   1   2
HETATM    2  C   UNK N   1      16.045  10.703  -1.061  0.00  0.00     0.206 C 
BRANCH   2   3
HETATM    3  O   UNK N   1      16.134  12.006  -0.593  0.00  0.00    -0.315 OA
BRANCH   3   4
HETATM    4  C   UNK N   1      17.047  12.569   0.255  0.00  0.00     0.258 C 
HETATM    5  N   UNK N   1      18.172  12.017   0.568  0.00  0.00    -0.350 N 
ATOM      6  HN  UNK N   1      18.743  12.493   1.266  1.00  0.00     0.163 HD
BRANCH   5   7
HETATM    7  C   UNK N   1      18.698  10.787   0.021  0.00  0.00     0.126 C 
BRANCH   7   8
HETATM    8  C   UNK N   1      19.115  10.970  -1.438  0.00  0.00     0.046 C 
BRANCH   8   9
HETATM    9  C   UNK N   1      19.863  12.284  -1.656  0.00  0.00     0.169 C 
BRANCH   9  10
HETATM   10  O   UNK N   1      21.143  12.228  -1.102  0.00  0.00    -0.389 OA
BRANCH  10  11
HETATM   11  C   UNK N   1      21.023  12.722   0.201  0.00  0.00     0.193 C 
BRANCH  11  12
HETATM   12  C   UNK N   1      21.402  11.616   1.181  0.00  0.00     0.193 C 
BRANCH  12  13
HETATM   13  O   UNK N   1      22.462  12.030   1.991  0.00  0.00    -0.387 OA
BRANCH  13  14
HETATM   14  C   UNK N   1      23.621  11.711   1.280  0.00  0.00     0.193 C 
BRANCH  14  15
HETATM   15  C   UNK N   1      24.024  12.895   0.413  0.00  0.00     0.193 C 
BRANCH  15  16
HETATM   16  O   UNK N   1      23.893  12.554  -0.940  0.00  0.00    -0.389 OA
BRANCH  16  17
HETATM   17  C   UNK N   1      24.565  13.542  -1.668  0.00  0.00     0.169 C 
BRANCH  17  18
HETATM   18  C   UNK N   1      26.044  13.207  -1.797  0.00  0.00     0.046 C 
BRANCH  18  19
HETATM   19  C   UNK N   1      26.716  13.598  -0.498  0.00  0.00     0.122 C 
BRANCH  19  20
HETATM   20  N   UNK N   1      27.527  12.538   0.039  0.00  0.00    -0.385 N 
HETATM   21  H   UNK N   1      28.471  12.737   0.232  0.00  0.00     0.159 HD
BRANCH  20  22
HETATM   22  C   UNK N   1      27.059  11.223   0.310  0.00  0.00     0.114 A 
HETATM   23  C   UNK N   1      27.736  10.222   0.854  0.00  0.00     0.114 A 
HETATM   24  C   UNK N   1      26.749   9.224   0.458  0.00  0.00     0.252 A 
HETATM   25  C   UNK N   1      25.993  10.300  -0.145  0.00  0.00     0.252 A 
HETATM   26  O   UNK N   1      26.790   8.014   0.302  0.00  0.00    -0.281 OA
HETATM   27  O   UNK N   1      25.194  10.303  -1.065  0.00  0.00    -0.281 OA
BRANCH  23  28
HETATM   28  N   UNK N   1      29.084  10.166   1.228  0.00  0.00    -0.385 N 
HETATM   29  H   UNK N   1      29.508  10.890   1.743  0.00  0.00     0.159 HD
BRANCH  28  30
HETATM   30  C   UNK N   1      29.814   9.008   0.828  0.00  0.00     0.121 C 
BRANCH  30  31
HETATM   31  C   UNK N   1      29.790   8.944  -0.708  0.00  0.00     0.050 C 
BRANCH  31  32
HETATM   32  C   UNK N   1      30.714   7.880  -1.297  0.00  0.00     0.274 C 
BRANCH  32  33
HETATM   33  N   UNK N   1      31.973   7.754  -0.570  0.00  0.00     0.091 N 
HETATM   34  C   UNK N   1      31.727   6.852   0.568  0.00  0.00     0.302 C 
HETATM   35  C   UNK N   1      32.584   7.122   1.799  0.00  0.00     0.302 C 
HETATM   36  N   UNK N   1      33.801   7.845   1.475  0.00  0.00     0.091 N 
HETATM   37  C   UNK N   1      33.475   9.156   0.915  0.00  0.00     0.302 C 
HETATM   38  C   UNK N   1      32.538   9.092  -0.292  0.00  0.00     0.302 C 
BRANCH  36  39
HETATM   39  C   UNK N   1      34.773   7.023   0.728  0.00  0.00     0.274 C 
BRANCH  39  40
HETATM   40  C   UNK N   1      34.601   7.046  -0.793  0.00  0.00     0.050 C 
BRANCH  40  41
HETATM   41  C   UNK N   1      35.727   7.756  -1.532  0.00  0.00     0.123 C 
BRANCH  41  42
HETATM   42  N   UNK N   1      35.708   9.209  -1.445  0.00  0.00    -0.370 N 
HETATM   43  C   UNK N   1      36.034   9.828  -0.364  0.00  0.00     0.146 C 
ATOM     44  HN  UNK N   1      35.429   9.751  -2.262  1.00  0.00     0.161 HD
BRANCH  43  45
HETATM   45  C   UNK N   1      36.409  11.227  -0.384  0.00  0.00     0.019 A 
HETATM   46  C   UNK N   1      35.564  12.341  -0.334  0.00  0.00     0.052 A 
HETATM   47  C   UNK N   1      36.136  13.623  -0.093  0.00  0.00     0.106 A 
HETATM   48  C   UNK N   1      37.541  13.733   0.128  0.00  0.00     0.073 A 
HETATM   49  C   UNK N   1      38.342  12.576   0.110  0.00  0.00     0.075 A 
HETATM   50  C   UNK N   1      37.735  11.387  -0.155  0.00  0.00     0.052 A 
BRANCH  47  51
HETATM   51  N   UNK N   1      35.294  14.769   0.008  0.00  0.00    -0.116 N 
HETATM   52  O   UNK N   1      35.772  15.849   0.210  0.00  0.00    -0.532 OA
HETATM   53  O   UNK N   1      34.110  14.656  -0.054  0.00  0.00    -0.532 OA
ENDBRANCH  47  51
BRANCH  49  54
HETATM   54  O   UNK N   1      39.674  12.577   0.421  0.00  0.00    -0.318 OA
BRANCH  54  55
HETATM   55  C   UNK N   1      40.431  11.440   0.800  0.00  0.00     0.298 C 
HETATM   56  C   UNK N   1      41.608  11.197  -0.176  0.00  0.00     0.205 C 
HETATM   57  C   UNK N   1      42.313   9.861   0.171  0.00  0.00     0.183 C 
HETATM   58  C   UNK N   1      41.299   8.699   0.340  0.00  0.00     0.180 C 
HETATM   59  C   UNK N   1      39.869   9.195   0.110  0.00  0.00     0.179 C 
HETATM   60  O   UNK N   1      39.627  10.260   1.026  0.00  0.00    -0.348 OA
BRANCH  56  61
HETATM   61  O   UNK N   1      42.514  12.259  -0.140  0.00  0.00    -0.388 OA
HETATM   62  H   UNK N   1      43.467  12.083  -0.115  0.00  0.00     0.210 HD
ENDBRANCH  56  61
BRANCH  57  63
HETATM   63  O   UNK N   1      43.046   9.994   1.354  0.00  0.00    -0.390 OA
HETATM   64  H   UNK N   1      43.380   9.600   2.175  0.00  0.00     0.210 HD
ENDBRANCH  57  63
BRANCH  58  65
HETATM   65  O   UNK N   1      41.616   7.636  -0.512  0.00  0.00    -0.390 OA
HETATM   66  H   UNK N   1      41.087   7.077  -1.102  0.00  0.00     0.210 HD
ENDBRANCH  58  65
BRANCH  59  67
HETATM   67  C   UNK N   1      38.867   8.070   0.359  0.00  0.00     0.198 C 
BRANCH  67  68
HETATM   68  O   UNK N   1      38.906   7.123  -0.668  0.00  0.00    -0.398 OA
HETATM   69  H   UNK N   1      38.350   6.771  -1.381  0.00  0.00     0.209 HD
ENDBRANCH  67  68
ENDBRANCH  59  67
ENDBRANCH  54  55
ENDBRANCH  49  54
ENDBRANCH  43  45
BRANCH  43  70
HETATM   70  O   UNK N   1      36.374   9.139   0.744  0.00  0.00    -0.346 OA
HETATM   71  H   UNK N   1      36.078   8.695   1.514  0.00  0.00     0.219 HD
ENDBRANCH  43  70
ENDBRANCH  41  42
ENDBRANCH  40  41
ENDBRANCH  39  40
ENDBRANCH  36  39
ENDBRANCH  32  33
ENDBRANCH  31  32
ENDBRANCH  30  31
ENDBRANCH  28  30
ENDBRANCH  23  28
ENDBRANCH  20  22
ENDBRANCH  19  20
ENDBRANCH  18  19
ENDBRANCH  17  18
ENDBRANCH  16  17
ENDBRANCH  15  16
ENDBRANCH  14  15
ENDBRANCH  13  14
ENDBRANCH  12  13
ENDBRANCH  11  12
ENDBRANCH  10  11
ENDBRANCH   9  10
ENDBRANCH   8   9
ENDBRANCH   7   8
ENDBRANCH   5   7
BRANCH   4  72
HETATM   72  O   UNK N   1      16.762  13.774   0.784  0.00  0.00    -0.327 OA
HETATM   73  H   UNK N   1      17.389  14.365   1.151  0.00  0.00     0.221 HD
ENDBRANCH   4  72
ENDBRANCH   3   4
ENDBRANCH   2   3
ENDBRANCH   1   2
BRANCH   1  74
HETATM   74  C   UNK N   1      14.636   9.951   0.988  0.00  0.00     0.206 C 
BRANCH  74  75
HETATM   75  O   UNK N   1      14.651  11.262   1.401  0.00  0.00    -0.315 OA
BRANCH  75  76
HETATM   76  C   UNK N   1      13.684  12.094   0.957  0.00  0.00     0.258 C 
HETATM   77  N   UNK N   1      13.830  13.370   1.071  0.00  0.00    -0.350 N 
ATOM     78  HN  UNK N   1      14.648  13.736   1.557  1.00  0.00     0.163 HD
BRANCH  77  79
HETATM   79  C   UNK N   1      12.862  14.296   0.524  0.00  0.00     0.126 C 
BRANCH  79  80
HETATM   80  C   UNK N   1      12.853  14.211  -0.999  0.00  0.00     0.046 C 
BRANCH  80  81
HETATM   81  C   UNK N   1      11.535  14.725  -1.549  0.00  0.00     0.169 C 
BRANCH  81  82
HETATM   82  O   UNK N   1      10.904  13.709  -2.274  0.00  0.00    -0.389 OA
BRANCH  82  83
HETATM   83  C   UNK N   1       9.619  13.596  -1.731  0.00  0.00     0.193 C 
BRANCH  83  84
HETATM   84  C   UNK N   1       9.553  12.414  -0.779  0.00  0.00     0.193 C 
BRANCH  84  85
HETATM   85  O   UNK N   1      10.121  12.778   0.444  0.00  0.00    -0.387 OA
BRANCH  85  86
HETATM   86  C   UNK N   1       9.194  12.416   1.422  0.00  0.00     0.193 C 
BRANCH  86  87
HETATM   87  C   UNK N   1       8.347  13.616   1.841  0.00  0.00     0.193 C 
BRANCH  87  88
HETATM   88  O   UNK N   1       7.405  13.927   0.853  0.00  0.00    -0.389 OA
BRANCH  88  89
HETATM   89  C   UNK N   1       6.322  13.072   1.086  0.00  0.00     0.169 C 
BRANCH  89  90
HETATM   90  C   UNK N   1       6.358  11.926   0.085  0.00  0.00     0.046 C 
BRANCH  90  91
HETATM   91  C   UNK N   1       6.134  12.447  -1.331  0.00  0.00     0.122 C 
BRANCH  91  92
HETATM   92  N   UNK N   1       4.725  12.461  -1.597  0.00  0.00    -0.385 N 
HETATM   93  H   UNK N   1       4.347  11.838  -2.259  0.00  0.00     0.159 HD
BRANCH  92  94
HETATM   94  C   UNK N   1       3.872  13.360  -0.920  0.00  0.00     0.114 A 
HETATM   95  C   UNK N   1       2.816  13.070  -0.170  0.00  0.00     0.114 A 
HETATM   96  C   UNK N   1       2.741  14.434   0.369  0.00  0.00     0.252 A 
HETATM   97  C   UNK N   1       3.913  14.746  -0.432  0.00  0.00     0.252 A 
HETATM   98  O   UNK N   1       2.120  14.992   1.260  0.00  0.00    -0.281 OA
HETATM   99  O   UNK N   1       4.712  15.668  -0.483  0.00  0.00    -0.281 OA
BRANCH  95 100
HETATM  100  N   UNK N   1       2.273  11.799   0.115  0.00  0.00    -0.385 N 
HETATM  101  H   UNK N   1       2.420  11.061  -0.520  0.00  0.00     0.159 HD
BRANCH 100 102
HETATM  102  C   UNK N   1       1.514  11.555   1.305  0.00  0.00     0.121 C 
BRANCH 102 103
HETATM  103  C   UNK N   1       0.668  10.315   1.106  0.00  0.00     0.050 C 
BRANCH 103 104
HETATM  104  C   UNK N   1      -0.757  10.749   0.801  0.00  0.00     0.274 C 
BRANCH 104 105
HETATM  105  N   UNK N   1      -1.065  10.741  -0.633  0.00  0.00     0.091 N 
HETATM  106  C   UNK N   1      -0.134  11.529  -1.457  0.00  0.00     0.302 C 
HETATM  107  C   UNK N   1      -0.514  13.010  -1.651  0.00  0.00     0.302 C 
HETATM  108  N   UNK N   1      -1.465  13.503  -0.657  0.00  0.00     0.091 N 
HETATM  109  C   UNK N   1      -2.667  12.661  -0.593  0.00  0.00     0.302 C 
HETATM  110  C   UNK N   1      -2.447  11.162  -0.841  0.00  0.00     0.302 C 
BRANCH 108 111
HETATM  111  C   UNK N   1      -0.824  13.632   0.652  0.00  0.00     0.274 C 
BRANCH 111 112
HETATM  112  C   UNK N   1      -1.699  14.403   1.627  0.00  0.00     0.050 C 
BRANCH 112 113
HETATM  113  C   UNK N   1      -1.396  15.891   1.575  0.00  0.00     0.123 C 
BRANCH 113 114
HETATM  114  N   UNK N   1      -1.458  16.418   0.227  0.00  0.00    -0.370 N 
HETATM  115  C   UNK N   1      -2.554  16.595  -0.430  0.00  0.00     0.146 C 
ATOM    116  HN  UNK N   1      -0.581  16.664  -0.231  1.00  0.00     0.161 HD
BRANCH 115 117
HETATM  117  C   UNK N   1      -3.869  16.242   0.126  0.00  0.00     0.019 A 
HETATM  118  C   UNK N   1      -4.304  14.906   0.184  0.00  0.00     0.052 A 
HETATM  119  C   UNK N   1      -5.601  14.592   0.622  0.00  0.00     0.106 A 
HETATM  120  C   UNK N   1      -6.440  15.631   0.992  0.00  0.00     0.073 A 
HETATM  121  C   UNK N   1      -6.036  16.960   0.867  0.00  0.00     0.075 A 
HETATM  122  C   UNK N   1      -4.757  17.264   0.426  0.00  0.00     0.052 A 
BRANCH 119 123
HETATM  123  N   UNK N   1      -6.121  13.265   0.548  0.00  0.00    -0.116 N 
HETATM  124  O   UNK N   1      -7.259  13.052   0.847  0.00  0.00    -0.532 OA
HETATM  125  O   UNK N   1      -5.479  12.394   0.046  0.00  0.00    -0.532 OA
ENDBRANCH 119 123
BRANCH 121 126
HETATM  126  O   UNK N   1      -6.949  17.941   0.911  0.00  0.00    -0.318 OA
BRANCH 126 127
HETATM  127  C   UNK N   1      -7.869  18.014  -0.123  0.00  0.00     0.298 C 
HETATM  128  C   UNK N   1      -8.835  16.775  -0.162  0.00  0.00     0.205 C 
HETATM  129  C   UNK N   1      -9.958  17.126  -1.104  0.00  0.00     0.183 C 
HETATM  130  C   UNK N   1     -10.728  18.344  -0.555  0.00  0.00     0.180 C 
HETATM  131  C   UNK N   1      -9.814  19.260   0.315  0.00  0.00     0.179 C 
HETATM  132  O   UNK N   1      -8.489  19.297  -0.155  0.00  0.00    -0.348 OA
BRANCH 128 133
HETATM  133  O   UNK N   1      -9.336  16.469   1.110  0.00  0.00    -0.388 OA
HETATM  134  H   UNK N   1      -9.692  16.664   1.991  0.00  0.00     0.210 HD
ENDBRANCH 128 133
BRANCH 129 135
HETATM  135  O   UNK N   1     -10.804  16.036  -1.325  0.00  0.00    -0.390 OA
HETATM  136  H   UNK N   1     -11.753  16.167  -1.478  0.00  0.00     0.210 HD
ENDBRANCH 129 135
BRANCH 130 137
HETATM  137  O   UNK N   1     -11.801  17.932   0.242  0.00  0.00    -0.390 OA
HETATM  138  H   UNK N   1     -12.420  18.433   0.795  0.00  0.00     0.210 HD
ENDBRANCH 130 137
BRANCH 131 139
HETATM  139  C   UNK N   1     -10.369  20.675   0.379  0.00  0.00     0.198 C 
BRANCH 139 140
HETATM  140  O   UNK N   1     -10.345  21.263  -0.888  0.00  0.00    -0.398 OA
HETATM  141  H   UNK N   1      -9.982  21.453  -1.768  0.00  0.00     0.209 HD
ENDBRANCH 139 140
ENDBRANCH 131 139
ENDBRANCH 126 127
ENDBRANCH 121 126
ENDBRANCH 115 117
BRANCH 115 142
HETATM  142  O   UNK N   1      -2.503  17.191  -1.637  0.00  0.00    -0.346 OA
HETATM  143  H   UNK N   1      -2.127  17.367  -2.477  0.00  0.00     0.219 HD
ENDBRANCH 115 142
ENDBRANCH 113 114
ENDBRANCH 112 113
ENDBRANCH 111 112
ENDBRANCH 108 111
ENDBRANCH 104 105
ENDBRANCH 103 104
ENDBRANCH 102 103
ENDBRANCH 100 102
ENDBRANCH  95 100
ENDBRANCH  92  94
ENDBRANCH  91  92
ENDBRANCH  90  91
ENDBRANCH  89  90
ENDBRANCH  88  89
ENDBRANCH  87  88
ENDBRANCH  86  87
ENDBRANCH  85  86
ENDBRANCH  84  85
ENDBRANCH  83  84
ENDBRANCH  82  83
ENDBRANCH  81  82
ENDBRANCH  80  81
ENDBRANCH  79  80
ENDBRANCH  77  79
BRANCH  76 144
HETATM  144  O   UNK N   1      12.604  11.584   0.326  0.00  0.00    -0.327 OA
HETATM  145  H   UNK N   1      11.923  12.056  -0.112  0.00  0.00     0.221 HD
ENDBRANCH  76 144
ENDBRANCH  75  76
ENDBRANCH  74  75
ENDBRANCH   1  74
BRANCH   1 146
HETATM  146  N   UNK N   1      15.475   8.388  -0.640  0.00  0.00    -0.422 N 
HETATM  147  H   UNK N   1      14.606   8.138  -1.111  0.00  0.00     0.150 HD
HETATM  148  H   UNK N   1      16.209   7.680  -0.640  0.00  0.00     0.150 HD
ENDBRANCH   1 146
TORSDOF 77
