REMARK  18 active torsions:
REMARK  status: ('A' for Active; 'I' for Inactive)
REMARK    1  A    between atoms: C_22  and  C_17 
REMARK    2  A    between atoms: C_26  and  C_17 
REMARK    3  A    between atoms: C_21  and  C_19 
REMARK    4  A    between atoms: N_35  and  C_19 
REMARK    5  A    between atoms: N_31  and  C_20 
REMARK    6  A    between atoms: O_36  and  C_20 
REMARK    7  A    between atoms: C_24  and  C_23 
REMARK    8  A    between atoms: C_25  and  N_33 
REMARK    9  A    between atoms: C_29  and  C_26 
REMARK   10  A    between atoms: C_26  and  N_31 
REMARK   11  A    between atoms: P_45  and  C_27 
REMARK   12  A    between atoms: P_46  and  C_28 
REMARK   13  A    between atoms: N_33  and  C_29 
REMARK   14  A    between atoms: C_29  and  O_37 
REMARK   15  A    between atoms: P_45  and  O_39 
REMARK   16  A    between atoms: P_45  and  O_40 
REMARK   17  A    between atoms: P_46  and  O_42 
REMARK   18  A    between atoms: P_46  and  O_43 
ROOT
HETATM    1  C   UNK N   1       2.422   4.890   1.336  0.00  0.00     0.162 C 
ENDROOT
BRANCH   1   2
HETATM    2  C   UNK N   1       3.943   5.101   1.589  0.00  0.00     0.072 C 
BRANCH   2   3
HETATM    3  C   UNK N   1       4.621   6.288   0.938  0.00  0.00    -0.055 A 
HETATM    4  C   UNK N   1       6.014   6.424   0.972  0.00  0.00     0.008 A 
HETATM    5  C   UNK N   1       6.612   7.620   0.542  0.00  0.00     0.021 A 
HETATM    6  C   UNK N   1       5.820   8.693   0.098  0.00  0.00     0.068 A 
HETATM    7  C   UNK N   1       4.419   8.532   0.031  0.00  0.00     0.068 A 
HETATM    8  C   UNK N   1       3.859   7.340   0.449  0.00  0.00     0.027 A 
BRANCH   6   9
HETATM    9  P   UNK N   1       6.640  10.299  -0.261  0.00  0.00     0.272 P 
HETATM   10  O   UNK N   1       6.391  10.777  -1.716  0.00  0.00    -0.650 OA
BRANCH   9  11
HETATM   11  O   UNK N   1       6.046  11.587   0.741  0.00  0.00    -0.326 OA
HETATM   12  H   UNK N   1       6.503  12.234   1.301  0.00  0.00     0.220 HD
ENDBRANCH   9  11
BRANCH   9  13
HETATM   13  O   UNK N   1       8.366  10.299  -0.082  0.00  0.00    -0.326 OA
HETATM   14  H   UNK N   1       8.848   9.463   0.019  0.00  0.00     0.220 HD
ENDBRANCH   9  13
ENDBRANCH   6   9
BRANCH   7  15
HETATM   15  P   UNK N   1       3.214   9.824  -0.476  0.00  0.00     0.272 P 
HETATM   16  O   UNK N   1       2.318   9.260  -1.611  0.00  0.00    -0.650 OA
BRANCH  15  17
HETATM   17  O   UNK N   1       2.074  10.155   0.790  0.00  0.00    -0.326 OA
HETATM   18  H   UNK N   1       1.916  10.799   1.497  0.00  0.00     0.220 HD
ENDBRANCH  15  17
BRANCH  15  19
HETATM   19  O   UNK N   1       3.760  11.356  -1.077  0.00  0.00    -0.326 OA
HETATM   20  H   UNK N   1       4.655  11.520  -1.413  0.00  0.00     0.220 HD
ENDBRANCH  15  19
ENDBRANCH   7  15
ENDBRANCH   2   3
ENDBRANCH   1   2
BRANCH   1  21
HETATM   21  C   UNK N   1       2.287   4.255  -0.008  0.00  0.00     0.135 C 
BRANCH  21  22
HETATM   22  N   UNK N   1       1.922   3.017  -0.081  0.00  0.00    -0.359 N 
ATOM     23  HN  UNK N   1       1.472   2.591   0.730  1.00  0.00     0.162 HD
BRANCH  22  24
HETATM   24  C   UNK N   1       2.125   2.210  -1.266  0.00  0.00     0.175 C 
HETATM   25  C   UNK N   1       1.270   0.948  -1.127  0.00  0.00     0.035 C 
HETATM   26  C   UNK N   1       1.682   0.136   0.084  0.00  0.00     0.004 C 
HETATM   27  C   UNK N   1       2.722  -0.891  -0.312  0.00  0.00     0.020 C 
HETATM   28  C   UNK N   1       3.661  -0.449  -1.447  0.00  0.00     0.126 C 
HETATM   29  N   UNK N   1       4.317   0.848  -1.245  0.00  0.00    -0.346 N 
HETATM   30  C   UNK N   1       3.649   2.028  -1.336  0.00  0.00     0.242 C 
HETATM   31  O   UNK N   1       4.327   3.051  -1.396  0.00  0.00    -0.271 OA
BRANCH  29  32
HETATM   32  C   UNK N   1       5.758   0.919  -0.991  0.00  0.00     0.164 C 
BRANCH  32  33
HETATM   33  C   UNK N   1       6.156  -0.060   0.055  0.00  0.00    -0.040 C 
HETATM   34  C   UNK N   1       5.255  -0.349   1.092  0.00  0.00     0.009 C 
HETATM   35  C   UNK N   1       5.127  -1.665   1.529  0.00  0.00     0.013 C 
HETATM   36  C   UNK N   1       5.929  -2.660   0.950  0.00  0.00    -0.026 C 
HETATM   37  C   UNK N   1       6.990  -2.297   0.112  0.00  0.00     0.013 C 
HETATM   38  C   UNK N   1       7.086  -1.001  -0.350  0.00  0.00     0.009 C 
BRANCH  36  39
HETATM   39  C   UNK N   1       5.403  -4.031   0.804  0.00  0.00    -0.026 A 
HETATM   40  C   UNK N   1       6.074  -4.934  -0.040  0.00  0.00     0.012 A 
HETATM   41  C   UNK N   1       5.467  -6.122  -0.439  0.00  0.00     0.001 A 
HETATM   42  C   UNK N   1       4.169  -6.414  -0.019  0.00  0.00     0.000 A 
HETATM   43  C   UNK N   1       3.488  -5.527   0.820  0.00  0.00     0.001 A 
HETATM   44  C   UNK N   1       4.097  -4.335   1.222  0.00  0.00     0.012 A 
ENDBRANCH  36  39
ENDBRANCH  32  33
ENDBRANCH  29  32
ENDBRANCH  22  24
ENDBRANCH  21  22
BRANCH  21  45
HETATM   45  O   UNK N   1       2.663   4.938  -1.112  0.00  0.00    -0.348 OA
HETATM   46  H   UNK N   1       3.203   4.949  -1.877  0.00  0.00     0.219 HD
ENDBRANCH  21  45
ENDBRANCH   1  21
BRANCH   1  47
HETATM   47  N   UNK N   1       1.678   6.132   1.416  0.00  0.00    -0.362 N 
ATOM     48  HN  UNK N   1       2.182   6.971   1.702  1.00  0.00     0.162 HD
BRANCH  47  49
HETATM   49  C   UNK N   1       0.423   6.250   1.149  0.00  0.00     0.107 C 
HETATM   50  C   UNK N   1      -0.211   7.593   1.218  0.00  0.00     0.097 C 
BRANCH  49  51
HETATM   51  O   UNK N   1      -0.312   5.185   0.769  0.00  0.00    -0.350 OA
HETATM   52  H   UNK N   1      -1.208   5.258   0.506  0.00  0.00     0.219 HD
ENDBRANCH  49  51
ENDBRANCH  47  49
ENDBRANCH   1  47
TORSDOF 18
