REMARK  1 active torsions:
REMARK  status: ('A' for Active; 'I' for Inactive)
REMARK    1  A    between atoms: P_2  and  O_3 
ROOT
HETATM    1  C   UNK N   1       1.961   1.650   0.000  0.00  0.00     0.105 C 
HETATM    2  P   UNK N   1       1.100   0.004   0.000  0.00  0.00     0.085 P 
HETATM    3  O   UNK N   1      -0.449  -0.087   0.000  0.00  0.00    -0.676 OA
HETATM    4  H   UNK N   1       2.480  -0.026   0.000  0.00  0.00     0.120 HD
ENDROOT
BRANCH   2   5
HETATM    5  O   UNK N   1       1.835  -1.567   0.000  0.00  0.00    -0.352 OA
HETATM    6  H   UNK N   1       1.280  -2.362   0.000  0.00  0.00     0.217 HD
ENDBRANCH   2   5
TORSDOF 1
