REMARK  5 active torsions:
REMARK  status: ('A' for Active; 'I' for Inactive)
REMARK    1  A    between atoms: C_5  and  C_2 
REMARK    2  A    between atoms: O_20  and  C_2 
REMARK    3  A    between atoms: C_4  and  O_21 
REMARK    4  A    between atoms: C_6  and  N_19 
REMARK    5  A    between atoms: N_12  and  C_8 
ROOT
HETATM    1  C   UNK N   1      -1.671  -0.058   0.367  0.00  0.00     0.188 A 
HETATM    2  C   UNK N   1       0.326  -0.833   0.418  0.00  0.00     0.122 A 
HETATM    3  C   UNK N   1       1.500  -1.567   0.529  0.00  0.00     0.133 A 
HETATM    4  C   UNK N   1       0.383   0.460   0.055  0.00  0.00     0.144 A 
HETATM    5  C   UNK N   1       2.709   0.397  -0.088  0.00  0.00     0.269 A 
HETATM    6  F   UNK N   1       3.892   1.013  -0.322  0.00  0.00    -0.165 F 
HETATM    7  N   UNK N   1      -0.955  -1.195   0.621  0.00  0.00    -0.346 N 
ATOM      8  HN  UNK N   1      -1.310  -2.109   0.900  1.00  0.00     0.167 HD
HETATM    9  N   UNK N   1       2.683  -0.929   0.274  0.00  0.00    -0.303 N 
ATOM     10  HN  UNK N   1       3.559  -1.445   0.354  1.00  0.00     0.171 HD
HETATM   11  N   UNK N   1       1.544   1.102  -0.206  0.00  0.00    -0.302 N 
ATOM     12  HN  UNK N   1       1.550   2.084  -0.482  1.00  0.00     0.171 HD
HETATM   13  N   UNK N   1      -0.854   0.968   0.015  0.00  0.00    -0.300 N 
ENDROOT
BRANCH  13  14
HETATM   14  C   UNK N   1      -1.195   2.339  -0.364  0.00  0.00     0.233 C 
HETATM   15  C   UNK N   1      -0.464   3.339   0.519  0.00  0.00     0.088 C 
HETATM   16  C   UNK N   1      -1.301   4.542   0.274  0.00  0.00     0.153 C 
HETATM   17  C   UNK N   1      -2.676   3.892   0.338  0.00  0.00     0.176 C 
HETATM   18  O   UNK N   1      -2.580   2.611  -0.264  0.00  0.00    -0.356 OA
BRANCH  16  19
HETATM   19  O   UNK N   1      -1.024   5.033  -1.009  0.00  0.00    -0.393 OA
HETATM   20  H   UNK N   1      -0.634   5.037  -1.898  0.00  0.00     0.210 HD
ENDBRANCH  16  19
BRANCH  17  21
HETATM   21  C   UNK N   1      -3.728   4.762  -0.341  0.00  0.00     0.198 C 
BRANCH  21  22
HETATM   22  O   UNK N   1      -4.983   4.159  -0.264  0.00  0.00    -0.398 OA
HETATM   23  H   UNK N   1      -5.782   4.706  -0.209  0.00  0.00     0.209 HD
ENDBRANCH  21  22
ENDBRANCH  17  21
ENDBRANCH  13  14
BRANCH   3  24
HETATM   24  N   UNK N   1       1.483  -2.927   0.899  0.00  0.00    -0.383 N 
HETATM   25  H   UNK N   1       0.655  -3.392   1.157  0.00  0.00     0.157 HD
HETATM   26  H   UNK N   1       2.330  -3.429   0.899  0.00  0.00     0.157 HD
ENDBRANCH   3  24
TORSDOF 5
