REMARK WARNING: 32 MAX_TORS EXCEEDED!!!
REMARK  54 active torsions:
REMARK  status: ('A' for Active; 'I' for Inactive)
REMARK    1  A    between atoms: C_5  and  C_1 
REMARK    2  A    between atoms: C_13  and  C_1 
REMARK    3  A    between atoms: C_6  and  C_2 
REMARK    4  A    between atoms: C_14  and  C_2 
REMARK    5  A    between atoms: C_7  and  C_3 
REMARK    6  A    between atoms: C_15  and  C_3 
REMARK    7  A    between atoms: C_8  and  C_4 
REMARK    8  A    between atoms: C_16  and  C_4 
REMARK    9  A    between atoms: N_65  and  C_5 
REMARK   10  A    between atoms: N_66  and  C_6 
REMARK   11  A    between atoms: N_69  and  C_7 
REMARK   12  A    between atoms: N_71  and  C_8 
REMARK   13  A    between atoms: C_11  and  C_9 
REMARK   14  A    between atoms: N_67  and  C_9 
REMARK   15  A    between atoms: C_12  and  C_10 
REMARK   16  A    between atoms: N_68  and  C_10 
REMARK   17  A    between atoms: N_73  and  C_11 
REMARK   18  A    between atoms: N_75  and  C_12 
REMARK   19  A    between atoms: N_77  and  C_13 
REMARK   20  A    between atoms: N_78  and  C_14 
REMARK   21  A    between atoms: N_79  and  C_15 
REMARK   22  A    between atoms: N_80  and  C_16 
REMARK   23  A    between atoms: C_42  and  C_31 
REMARK   24  A    between atoms: O_83  and  C_31 
REMARK   25  A    between atoms: C_43  and  C_32 
REMARK   26  A    between atoms: O_84  and  C_32 
REMARK   27  A    between atoms: C_37  and  C_33 
REMARK   28  A    between atoms: O_103  and  C_33 
REMARK   29  A    between atoms: C_37  and  C_34 
REMARK   30  A    between atoms: O_104  and  C_34 
REMARK   31  A    between atoms: C_58  and  C_35 
REMARK   32  A    between atoms: C_59  and  C_36 
REMARK   33  A    between atoms: N_64  and  C_37 
REMARK   34  A    between atoms: N_81  and  C_38 
REMARK   35  A    between atoms: N_82  and  C_39 
REMARK   36  A    between atoms: O_105  and  C_40 
REMARK   37  A    between atoms: O_106  and  C_41 
REMARK   38  A    between atoms: N_65  and  C_44 
REMARK   39  A    between atoms: N_66  and  C_45 
REMARK   40  A    between atoms: N_67  and  C_46 
REMARK   41  A    between atoms: N_68  and  C_47 
REMARK   42  A    between atoms: C_48  and  O_85 
REMARK   43  A    between atoms: O_86  and  C_49 
REMARK   44  A    between atoms: C_54  and  O_91 
REMARK   45  A    between atoms: O_92  and  C_55 
REMARK   46  A    between atoms: O_94  and  C_57 
REMARK   47  A    between atoms: O_95  and  C_58 
REMARK   48  A    between atoms: O_96  and  C_59 
REMARK   49  A    between atoms: C_60  and  O_105 
REMARK   50  A    between atoms: O_106  and  C_61 
REMARK   51  A    between atoms: O_97  and  C_62 
REMARK   52  A    between atoms: O_103  and  C_62 
REMARK   53  A    between atoms: O_98  and  C_63 
REMARK   54  A    between atoms: O_104  and  C_63 
ROOT
HETATM    1  C   UNK N   1      21.579  25.650   0.250  0.00  0.00     0.179 C 
HETATM    2  C   UNK N   1      21.120  27.021  -0.294  0.00  0.00     0.180 C 
HETATM    3  C   UNK N   1      19.591  27.111  -0.139  0.00  0.00     0.183 C 
HETATM    4  C   UNK N   1      18.933  25.902  -0.820  0.00  0.00     0.205 C 
HETATM    5  C   UNK N   1      19.587  24.586  -0.275  0.00  0.00     0.298 C 
HETATM    6  O   UNK N   1      19.116  25.970  -2.203  0.00  0.00    -0.388 OA
HETATM    7  O   UNK N   1      20.980  24.595  -0.482  0.00  0.00    -0.348 OA
HETATM    8  H   UNK N   1      19.221  25.884  -3.164  0.00  0.00     0.210 HD
ENDROOT
BRANCH   3   9
HETATM    9  O   UNK N   1      19.110  28.306  -0.681  0.00  0.00    -0.390 OA
HETATM   10  H   UNK N   1      19.662  29.010  -1.056  0.00  0.00     0.210 HD
ENDBRANCH   3   9
BRANCH   5  11
HETATM   11  O   UNK N   1      19.313  24.314   1.068  0.00  0.00    -0.318 OA
BRANCH  11  12
HETATM   12  C   UNK N   1      18.053  24.021   1.382  0.00  0.00     0.075 A 
HETATM   13  C   UNK N   1      17.599  22.735   1.141  0.00  0.00     0.052 A 
HETATM   14  C   UNK N   1      16.242  22.495   0.991  0.00  0.00     0.019 A 
HETATM   15  C   UNK N   1      15.346  23.583   1.005  0.00  0.00     0.052 A 
HETATM   16  C   UNK N   1      15.817  24.874   1.309  0.00  0.00     0.106 A 
HETATM   17  C   UNK N   1      17.168  25.068   1.531  0.00  0.00     0.073 A 
BRANCH  14  18
HETATM   18  C   UNK N   1      15.822  21.155   0.584  0.00  0.00     0.146 C 
HETATM   19  N   UNK N   1      14.594  20.934   0.304  0.00  0.00    -0.370 N 
ATOM     20  HN  UNK N   1      13.892  21.647   0.505  1.00  0.00     0.161 HD
BRANCH  19  21
HETATM   21  C   UNK N   1      14.196  19.695  -0.289  0.00  0.00     0.123 C 
BRANCH  21  22
HETATM   22  C   UNK N   1      14.021  19.979  -1.774  0.00  0.00     0.050 C 
BRANCH  22  23
HETATM   23  C   UNK N   1      12.755  19.381  -2.395  0.00  0.00     0.274 C 
BRANCH  23  24
HETATM   24  N   UNK N   1      11.628  19.266  -1.471  0.00  0.00     0.091 N 
HETATM   25  C   UNK N   1      11.808  18.027  -0.688  0.00  0.00     0.302 C 
HETATM   26  C   UNK N   1      11.432  18.125   0.796  0.00  0.00     0.302 C 
HETATM   27  N   UNK N   1      10.425  19.146   1.039  0.00  0.00     0.091 N 
HETATM   28  C   UNK N   1      11.048  20.427   0.705  0.00  0.00     0.302 C 
HETATM   29  C   UNK N   1      11.378  20.550  -0.784  0.00  0.00     0.302 C 
BRANCH  27  30
HETATM   30  C   UNK N   1       9.226  18.830   0.247  0.00  0.00     0.274 C 
BRANCH  30  31
HETATM   31  C   UNK N   1       8.301  20.017   0.110  0.00  0.00     0.050 C 
BRANCH  31  32
HETATM   32  C   UNK N   1       8.302  20.583  -1.317  0.00  0.00     0.121 C 
BRANCH  32  33
HETATM   33  N   UNK N   1       7.668  21.882  -1.303  0.00  0.00    -0.385 N 
HETATM   34  H   UNK N   1       8.120  22.664  -1.694  0.00  0.00     0.159 HD
BRANCH  33  35
HETATM   35  C   UNK N   1       6.386  22.008  -0.718  0.00  0.00     0.114 A 
HETATM   36  C   UNK N   1       5.690  23.002  -0.117  0.00  0.00     0.114 A 
HETATM   37  C   UNK N   1       4.657  22.062   0.319  0.00  0.00     0.252 A 
HETATM   38  C   UNK N   1       5.397  21.005  -0.328  0.00  0.00     0.252 A 
HETATM   39  O   UNK N   1       3.680  22.120   1.044  0.00  0.00    -0.281 OA
HETATM   40  O   UNK N   1       5.319  19.789  -0.395  0.00  0.00    -0.281 OA
BRANCH  36  41
HETATM   41  N   UNK N   1       5.873  24.384   0.184  0.00  0.00    -0.383 N 
HETATM   42  H   UNK N   1       5.398  24.740   0.969  0.00  0.00     0.159 HD
BRANCH  41  43
HETATM   43  C   UNK N   1       6.694  25.302  -0.563  0.00  0.00     0.139 C 
BRANCH  43  44
HETATM   44  C   UNK N   1       8.049  24.729  -0.849  0.00  0.00     0.143 C 
BRANCH  44  45
HETATM   45  N   UNK N   1       9.017  25.023   0.172  0.00  0.00    -0.349 N 
HETATM   46  C   UNK N   1       9.603  24.079   0.823  0.00  0.00     0.258 C 
ATOM     47  HN  UNK N   1       9.244  25.995   0.384  1.00  0.00     0.163 HD
BRANCH  46  48
HETATM   48  O   UNK N   1       9.246  22.798   0.645  0.00  0.00    -0.327 OA
HETATM   49  H   UNK N   1       8.347  22.567   0.520  0.00  0.00     0.221 HD
ENDBRANCH  46  48
BRANCH  46  50
HETATM   50  O   UNK N   1      10.773  24.345   1.428  0.00  0.00    -0.315 OA
BRANCH  50  51
HETATM   51  C   UNK N   1      11.934  23.999   0.752  0.00  0.00     0.206 C 
BRANCH  51  52
HETATM   52  C   UNK N   1      11.915  24.571  -0.695  0.00  0.00     0.123 C 
BRANCH  52  53
HETATM   53  C   UNK N   1      11.675  26.093  -0.737  0.00  0.00     0.206 C 
BRANCH  53  54
HETATM   54  O   UNK N   1      11.635  26.640   0.536  0.00  0.00    -0.315 OA
BRANCH  54  55
HETATM   55  C   UNK N   1      11.362  27.922   0.907  0.00  0.00     0.258 C 
HETATM   56  N   UNK N   1      11.251  28.902   0.067  0.00  0.00    -0.349 N 
ATOM     57  HN  UNK N   1      11.021  29.820   0.447  1.00  0.00     0.163 HD
BRANCH  56  58
HETATM   58  C   UNK N   1      11.428  28.801  -1.365  0.00  0.00     0.143 C 
BRANCH  58  59
HETATM   59  C   UNK N   1      12.905  28.627  -1.719  0.00  0.00     0.139 C 
BRANCH  59  60
HETATM   60  N   UNK N   1      13.564  29.895  -1.609  0.00  0.00    -0.383 N 
HETATM   61  H   UNK N   1      13.555  30.519  -2.371  0.00  0.00     0.159 HD
BRANCH  60  62
HETATM   62  C   UNK N   1      14.225  30.254  -0.416  0.00  0.00     0.114 A 
HETATM   63  C   UNK N   1      13.914  31.168   0.509  0.00  0.00     0.114 A 
HETATM   64  C   UNK N   1      15.105  30.861   1.300  0.00  0.00     0.252 A 
HETATM   65  C   UNK N   1      15.449  29.867   0.296  0.00  0.00     0.252 A 
HETATM   66  O   UNK N   1      15.612  31.296   2.321  0.00  0.00    -0.281 OA
HETATM   67  O   UNK N   1      16.394  29.124   0.091  0.00  0.00    -0.281 OA
BRANCH  63  68
HETATM   68  N   UNK N   1      12.846  32.088   0.641  0.00  0.00    -0.385 N 
HETATM   69  H   UNK N   1      12.822  32.680   1.427  0.00  0.00     0.159 HD
BRANCH  68  70
HETATM   70  C   UNK N   1      11.791  32.187  -0.340  0.00  0.00     0.121 C 
BRANCH  70  71
HETATM   71  C   UNK N   1      11.990  33.373  -1.289  0.00  0.00     0.050 C 
BRANCH  71  72
HETATM   72  C   UNK N   1      12.716  34.586  -0.687  0.00  0.00     0.274 C 
BRANCH  72  73
HETATM   73  N   UNK N   1      14.128  34.314  -0.406  0.00  0.00     0.091 N 
HETATM   74  C   UNK N   1      14.781  33.743  -1.584  0.00  0.00     0.302 C 
HETATM   75  C   UNK N   1      16.208  33.330  -1.220  0.00  0.00     0.302 C 
HETATM   76  N   UNK N   1      16.894  34.313  -0.370  0.00  0.00     0.091 N 
HETATM   77  C   UNK N   1      16.262  35.641  -0.394  0.00  0.00     0.302 C 
HETATM   78  C   UNK N   1      14.757  35.592  -0.054  0.00  0.00     0.302 C 
BRANCH  76  79
HETATM   79  C   UNK N   1      16.932  33.811   0.997  0.00  0.00     0.274 C 
BRANCH  79  80
HETATM   80  C   UNK N   1      18.229  34.215   1.669  0.00  0.00     0.050 C 
BRANCH  80  81
HETATM   81  C   UNK N   1      19.326  33.187   1.417  0.00  0.00     0.123 C 
BRANCH  81  82
HETATM   82  N   UNK N   1      19.672  33.047   0.015  0.00  0.00    -0.370 N 
HETATM   83  C   UNK N   1      20.204  33.986  -0.692  0.00  0.00     0.146 C 
ATOM     84  HN  UNK N   1      19.484  32.153  -0.439  1.00  0.00     0.161 HD
BRANCH  83  85
HETATM   85  C   UNK N   1      20.471  35.313  -0.132  0.00  0.00     0.019 A 
HETATM   86  C   UNK N   1      19.475  36.305  -0.056  0.00  0.00     0.052 A 
HETATM   87  C   UNK N   1      19.791  37.585   0.437  0.00  0.00     0.106 A 
HETATM   88  C   UNK N   1      21.100  37.846   0.835  0.00  0.00     0.073 A 
HETATM   89  C   UNK N   1      22.085  36.871   0.694  0.00  0.00     0.075 A 
HETATM   90  C   UNK N   1      21.772  35.616   0.211  0.00  0.00     0.052 A 
BRANCH  87  91
HETATM   91  N   UNK N   1      18.845  38.649   0.404  0.00  0.00    -0.116 N 
HETATM   92  O   UNK N   1      19.195  39.768   0.637  0.00  0.00    -0.532 OA
HETATM   93  O   UNK N   1      17.733  38.453   0.017  0.00  0.00    -0.532 OA
ENDBRANCH  87  91
BRANCH  89  94
HETATM   94  O   UNK N   1      23.370  37.225   0.720  0.00  0.00    -0.318 OA
BRANCH  94  95
HETATM   95  C   UNK N   1      23.903  37.723  -0.463  0.00  0.00     0.298 C 
HETATM   96  C   UNK N   1      23.317  39.113  -0.826  0.00  0.00     0.205 C 
HETATM   97  C   UNK N   1      23.732  40.093   0.280  0.00  0.00     0.183 C 
HETATM   98  C   UNK N   1      25.264  40.085   0.409  0.00  0.00     0.180 C 
HETATM   99  C   UNK N   1      25.753  38.629   0.631  0.00  0.00     0.179 C 
HETATM  100  O   UNK N   1      25.310  37.764  -0.398  0.00  0.00    -0.348 OA
BRANCH  96 101
HETATM  101  O   UNK N   1      23.804  39.518  -2.071  0.00  0.00    -0.388 OA
HETATM  102  H   UNK N   1      24.216  39.366  -2.935  0.00  0.00     0.210 HD
ENDBRANCH  96 101
BRANCH  97 103
HETATM  103  O   UNK N   1      23.258  41.377   0.003  0.00  0.00    -0.390 OA
HETATM  104  H   UNK N   1      23.867  42.108  -0.189  0.00  0.00     0.210 HD
ENDBRANCH  97 103
BRANCH  98 105
HETATM  105  O   UNK N   1      25.835  40.621  -0.749  0.00  0.00    -0.390 OA
HETATM  106  H   UNK N   1      26.355  40.464  -1.553  0.00  0.00     0.210 HD
ENDBRANCH  98 105
BRANCH  99 107
HETATM  107  C   UNK N   1      27.274  38.542   0.676  0.00  0.00     0.198 C 
BRANCH 107 108
HETATM  108  O   UNK N   1      27.812  38.663  -0.610  0.00  0.00    -0.398 OA
HETATM  109  H   UNK N   1      28.071  38.382  -1.502  0.00  0.00     0.209 HD
ENDBRANCH 107 108
ENDBRANCH  99 107
ENDBRANCH  94  95
ENDBRANCH  89  94
ENDBRANCH  83  85
BRANCH  83 110
HETATM  110  O   UNK N   1      20.619  33.715  -1.946  0.00  0.00    -0.346 OA
HETATM  111  H   UNK N   1      20.600  33.371  -2.817  0.00  0.00     0.219 HD
ENDBRANCH  83 110
ENDBRANCH  81  82
ENDBRANCH  80  81
ENDBRANCH  79  80
ENDBRANCH  76  79
ENDBRANCH  72  73
ENDBRANCH  71  72
ENDBRANCH  70  71
ENDBRANCH  68  70
ENDBRANCH  63  68
ENDBRANCH  60  62
ENDBRANCH  59  60
ENDBRANCH  58  59
ENDBRANCH  56  58
BRANCH  55 112
HETATM  112  O   UNK N   1      11.197  28.176   2.219  0.00  0.00    -0.327 OA
HETATM  113  H   UNK N   1      11.293  28.364   3.132  0.00  0.00     0.221 HD
ENDBRANCH  55 112
ENDBRANCH  54  55
ENDBRANCH  53  54
ENDBRANCH  52  53
BRANCH  52 114
HETATM  114  N   UNK N   1      13.137  24.225  -1.397  0.00  0.00    -0.422 N 
HETATM  115  H   UNK N   1      13.356  23.360  -1.891  0.00  0.00     0.150 HD
HETATM  116  H   UNK N   1      13.868  24.936  -1.397  0.00  0.00     0.150 HD
ENDBRANCH  52 114
ENDBRANCH  51  52
ENDBRANCH  50  51
ENDBRANCH  46  50
ENDBRANCH  44  45
ENDBRANCH  43  44
ENDBRANCH  41  43
ENDBRANCH  36  41
ENDBRANCH  33  35
ENDBRANCH  32  33
ENDBRANCH  31  32
ENDBRANCH  30  31
ENDBRANCH  27  30
ENDBRANCH  23  24
ENDBRANCH  22  23
ENDBRANCH  21  22
ENDBRANCH  19  21
BRANCH  18 117
HETATM  117  O   UNK N   1      16.752  20.190   0.391  0.00  0.00    -0.346 OA
HETATM  118  H   UNK N   1      16.495  19.299   0.258  0.00  0.00     0.219 HD
ENDBRANCH  18 117
ENDBRANCH  14  18
BRANCH  16 119
HETATM  119  N   UNK N   1      15.018  26.026   1.131  0.00  0.00    -0.116 N 
HETATM  120  O   UNK N   1      15.376  27.069   1.571  0.00  0.00    -0.532 OA
HETATM  121  O   UNK N   1      14.207  26.022   0.260  0.00  0.00    -0.532 OA
ENDBRANCH  16 119
ENDBRANCH  11  12
ENDBRANCH   5  11
BRANCH   2 122
HETATM  122  O   UNK N   1      21.480  27.154  -1.640  0.00  0.00    -0.390 OA
HETATM  123  H   UNK N   1      21.686  26.984  -2.572  0.00  0.00     0.210 HD
ENDBRANCH   2 122
BRANCH   1 124
HETATM  124  C   UNK N   1      23.088  25.465   0.200  0.00  0.00     0.198 C 
BRANCH 124 125
HETATM  125  O   UNK N   1      23.515  25.212  -1.105  0.00  0.00    -0.398 OA
HETATM  126  H   UNK N   1      23.511  24.867  -2.012  0.00  0.00     0.209 HD
ENDBRANCH 124 125
ENDBRANCH   1 124
TORSDOF 54
