REMARK  18 active torsions:
REMARK  status: ('A' for Active; 'I' for Inactive)
REMARK    1  A    between atoms: N_20  and  C_4 
REMARK    2  A    between atoms: C_6  and  C_5 
REMARK    3  A    between atoms: C_10  and  C_5 
REMARK    4  A    between atoms: C_12  and  C_6 
REMARK    5  A    between atoms: C_13  and  C_7 
REMARK    6  A    between atoms: N_22  and  C_7 
REMARK    7  A    between atoms: C_11  and  C_8 
REMARK    8  A    between atoms: S_38  and  C_8 
REMARK    9  A    between atoms: N_24  and  C_9 
REMARK   10  A    between atoms: C_15  and  C_10 
REMARK   11  A    between atoms: C_10  and  N_19 
REMARK   12  A    between atoms: C_14  and  C_11 
REMARK   13  A    between atoms: C_11  and  N_26 
REMARK   14  A    between atoms: C_12  and  O_32 
REMARK   15  A    between atoms: O_34  and  C_13 
REMARK   16  A    between atoms: O_35  and  C_14 
REMARK   17  A    between atoms: O_37  and  C_15 
REMARK       I    between atoms: N_20  and  C_16 
REMARK       I    between atoms: N_24  and  C_17 
REMARK   18  A    between atoms: S_38  and  C_18 
ROOT
HETATM    1  C   UNK N   1      -4.577   5.501  -0.207  0.00  0.00     0.167 C 
ENDROOT
BRANCH   1   2
HETATM    2  C   UNK N   1      -4.661   6.369   1.062  0.00  0.00     0.116 C 
BRANCH   2   3
HETATM    3  S   UNK N   1      -5.958   5.934   2.265  0.00  0.00    -0.090 SA
BRANCH   3   4
HETATM    4  C   UNK N   1      -7.302   6.528   1.254  0.00  0.00     0.174 A 
HETATM    5  N   UNK N   1      -7.311   7.808   0.800  0.00  0.00    -0.169 N 
HETATM    6  C   UNK N   1      -8.348   8.256   0.050  0.00  0.00     0.694 A 
ATOM      7  HN  UNK N   1      -6.537   8.433   1.024  1.00  0.00     0.186 HD
HETATM    8  N   UNK N   1      -8.344   9.470  -0.374  0.00  0.00    -0.226 N 
HETATM    9  N   UNK N   1      -9.384   7.419  -0.235  0.00  0.00    -0.022 N 
ATOM     10  HN  UNK N   1      -7.553  10.070  -0.140  1.00  0.00     0.177 HD
HETATM   11  C   UNK N   1      -9.379   6.138   0.227  0.00  0.00     0.695 A 
HETATM   12  H   UNK N   1     -10.140   7.742  -0.778  0.00  0.00     0.203 HD
HETATM   13  N   UNK N   1     -10.361   5.341  -0.012  0.00  0.00    -0.222 N 
HETATM   14  N   UNK N   1      -8.333   5.699   0.966  0.00  0.00    -0.169 N 
ATOM     15  HN  UNK N   1     -10.307   4.389   0.349  1.00  0.00     0.178 HD
HETATM   16  H   UNK N   1      -8.322   4.771   1.296  0.00  0.00     0.186 HD
BRANCH   8  17
HETATM   17  C   UNK N   1      -9.419  10.016  -1.166  0.00  0.00     0.133 C 
HETATM   18  C   UNK N   1     -10.049  11.180  -0.429  0.00  0.00     0.027 C 
ENDBRANCH   8  17
BRANCH  13  19
HETATM   19  C   UNK N   1     -11.536   5.719  -0.766  0.00  0.00     0.091 C 
HETATM   20  C   UNK N   1     -12.416   4.500  -0.947  0.00  0.00     0.032 C 
HETATM   21  C   UNK N   1     -12.332   6.780  -0.021  0.00  0.00     0.032 C 
ENDBRANCH  13  19
ENDBRANCH   3   4
ENDBRANCH   2   3
ENDBRANCH   1   2
BRANCH   1  22
HETATM   22  C   UNK N   1      -4.527   4.007   0.090  0.00  0.00     0.136 C 
HETATM   23  N   UNK N   1      -3.516   3.299  -0.283  0.00  0.00    -0.363 N 
ATOM     24  HN  UNK N   1      -2.766   3.751  -0.807  1.00  0.00     0.161 HD
BRANCH  23  25
HETATM   25  C   UNK N   1      -3.406   1.894   0.013  0.00  0.00     0.231 C 
BRANCH  25  26
HETATM   26  C   UNK N   1      -1.965   1.528   0.159  0.00  0.00     0.158 C 
HETATM   27  O   UNK N   1      -1.272   2.082   0.998  0.00  0.00    -0.649 OA
BRANCH  26  28
HETATM   28  O   UNK N   1      -1.430   0.583  -0.634  0.00  0.00    -0.775 OA
HETATM   29  H   UNK N   1      -1.814  -0.069  -1.187  0.00  0.00     0.167 HD
ENDBRANCH  26  28
ENDBRANCH  25  26
ENDBRANCH  23  25
BRANCH  22  30
HETATM   30  O   UNK N   1      -5.557   3.422   0.739  0.00  0.00    -0.348 OA
HETATM   31  H   UNK N   1      -6.266   3.838   1.189  0.00  0.00     0.219 HD
ENDBRANCH  22  30
ENDBRANCH   1  22
BRANCH   1  32
HETATM   32  N   UNK N   1      -3.417   5.949  -0.969  0.00  0.00    -0.362 N 
HETATM   33  C   UNK N   1      -2.206   5.891  -0.516  0.00  0.00     0.111 C 
ATOM     34  HN  UNK N   1      -3.567   6.326  -1.905  1.00  0.00     0.162 HD
BRANCH  33  35
HETATM   35  C   UNK N   1      -1.073   6.388  -1.352  0.00  0.00     0.086 C 
BRANCH  35  36
HETATM   36  C   UNK N   1      -0.253   7.461  -0.630  0.00  0.00     0.043 C 
BRANCH  36  37
HETATM   37  C   UNK N   1       0.681   6.893   0.449  0.00  0.00     0.173 C 
BRANCH  37  38
HETATM   38  C   UNK N   1       1.596   5.846  -0.122  0.00  0.00     0.163 C 
HETATM   39  O   UNK N   1       2.373   6.130  -1.019  0.00  0.00    -0.648 OA
BRANCH  38  40
HETATM   40  O   UNK N   1       1.551   4.585   0.348  0.00  0.00    -0.775 OA
HETATM   41  H   UNK N   1       0.775   4.173   0.675  0.00  0.00     0.167 HD
ENDBRANCH  38  40
ENDBRANCH  37  38
BRANCH  37  42
HETATM   42  N   UNK N   1       1.470   7.973   1.013  0.00  0.00    -0.418 N 
HETATM   43  H   UNK N   1       2.404   7.873   1.410  0.00  0.00     0.150 HD
HETATM   44  H   UNK N   1       1.058   8.906   1.013  0.00  0.00     0.150 HD
ENDBRANCH  37  42
ENDBRANCH  36  37
ENDBRANCH  35  36
ENDBRANCH  33  35
BRANCH  33  45
HETATM   45  O   UNK N   1      -1.954   5.366   0.703  0.00  0.00    -0.350 OA
HETATM   46  H   UNK N   1      -2.181   5.033   1.548  0.00  0.00     0.219 HD
ENDBRANCH  33  45
ENDBRANCH   1  32
TORSDOF 18
