REMARK  8 active torsions:
REMARK  status: ('A' for Active; 'I' for Inactive)
REMARK    1  A    between atoms: C_2  and  C_1 
REMARK    2  A    between atoms: C_3  and  C_1 
REMARK    3  A    between atoms: C_4  and  C_2 
REMARK    4  A    between atoms: C_5  and  C_3 
REMARK    5  A    between atoms: O_8  and  C_4 
REMARK    6  A    between atoms: C_6  and  C_5 
REMARK    7  A    between atoms: C_5  and  N_7 
REMARK    8  A    between atoms: O_10  and  C_6 
ROOT
HETATM    1  C   UNK N   1       4.932   2.364  -0.090  0.00  0.00     0.173 C 
ENDROOT
BRANCH   1   2
HETATM    2  C   UNK N   1       3.659   1.990   0.668  0.00  0.00     0.035 C 
BRANCH   2   3
HETATM    3  C   UNK N   1       2.879   0.900  -0.057  0.00  0.00     0.004 C 
BRANCH   3   4
HETATM    4  C   UNK N   1       1.447   0.830   0.438  0.00  0.00     0.026 C 
BRANCH   4   5
HETATM    5  C   UNK N   1       0.630   1.955  -0.168  0.00  0.00     0.164 C 
BRANCH   5   6
HETATM    6  O   UNK N   1      -0.721   1.751   0.112  0.00  0.00    -0.401 OA
HETATM    7  H   UNK N   1      -1.313   2.494   0.306  0.00  0.00     0.209 HD
ENDBRANCH   5   6
ENDBRANCH   4   5
ENDBRANCH   3   4
ENDBRANCH   2   3
ENDBRANCH   1   2
BRANCH   1   8
HETATM    8  C   UNK N   1       5.950   1.246  -0.072  0.00  0.00     0.163 C 
HETATM    9  O   UNK N   1       7.072   1.435   0.372  0.00  0.00    -0.648 OA
BRANCH   8  10
HETATM   10  O   UNK N   1       5.632   0.035  -0.570  0.00  0.00    -0.775 OA
HETATM   11  H   UNK N   1       4.792  -0.194  -0.916  0.00  0.00     0.167 HD
ENDBRANCH   8  10
ENDBRANCH   1   8
BRANCH   1  12
HETATM   12  N   UNK N   1       5.490   3.567   0.508  0.00  0.00    -0.418 N 
HETATM   13  H   UNK N   1       6.416   3.650   0.927  0.00  0.00     0.150 HD
HETATM   14  H   UNK N   1       4.903   4.401   0.508  0.00  0.00     0.150 HD
ENDBRANCH   1  12
TORSDOF 8
