REMARK  3 active torsions:
REMARK  status: ('A' for Active; 'I' for Inactive)
REMARK    1  A    between atoms: C_6  and  C_7 
REMARK    2  A    between atoms: C_7  and  O_8 
REMARK    3  A    between atoms: C_9  and  N_10 
ROOT
HETATM    1  C   UNK N   1       3.507  -0.704  -0.000  0.00  0.00     0.089 C 
HETATM    2  C   UNK N   1       2.099  -0.232  -0.000  0.00  0.00     0.078 A 
HETATM    3  N   UNK N   1       1.085  -1.133  -0.000  0.00  0.00    -0.355 N 
ATOM      4  HN  UNK N   1       1.299  -2.130  -0.000  1.00  0.00     0.166 HD
HETATM    5  C   UNK N   1      -0.209  -0.726  -0.000  0.00  0.00     0.102 A 
HETATM    6  C   UNK N   1      -0.526   0.631   0.000  0.00  0.00     0.024 A 
HETATM    7  C   UNK N   1       0.545   1.557   0.000  0.00  0.00     0.109 A 
HETATM    8  N   UNK N   1       1.825   1.100   0.000  0.00  0.00    -0.332 N 
ATOM      9  HN  UNK N   1       2.595   1.769   0.000  1.00  0.00     0.168 HD
ENDROOT
BRANCH   6  10
HETATM   10  C   UNK N   1      -1.992   0.987   0.000  0.00  0.00     0.208 C 
BRANCH  10  11
HETATM   11  O   UNK N   1      -2.248   2.358  -0.000  0.00  0.00    -0.396 OA
HETATM   12  H   UNK N   1      -1.511   2.989  -0.000  0.00  0.00     0.209 HD
ENDBRANCH  10  11
ENDBRANCH   6  10
BRANCH   7  13
HETATM   13  N   UNK N   1       0.316   2.949   0.000  0.00  0.00    -0.385 N 
HETATM   14  H   UNK N   1       1.077   3.573   0.000  0.00  0.00     0.157 HD
HETATM   15  H   UNK N   1      -0.605   3.297   0.000  0.00  0.00     0.157 HD
ENDBRANCH   7  13
TORSDOF 3
