REMARK  27 active torsions:
REMARK  status: ('A' for Active; 'I' for Inactive)
REMARK    1  A    between atoms: C_8  and  C_5 
REMARK    2  A    between atoms: C_17  and  C_5 
REMARK    3  A    between atoms: C_9  and  C_6 
REMARK    4  A    between atoms: C_19  and  C_6 
REMARK    5  A    between atoms: C_10  and  C_7 
REMARK    6  A    between atoms: C_18  and  C_7 
REMARK    7  A    between atoms: C_20  and  C_8 
REMARK    8  A    between atoms: C_21  and  C_9 
REMARK    9  A    between atoms: C_22  and  C_10 
REMARK   10  A    between atoms: C_16  and  C_11 
REMARK   11  A    between atoms: N_33  and  C_11 
REMARK   12  A    between atoms: N_43  and  C_13 
REMARK   13  A    between atoms: C_25  and  C_14 
REMARK   14  A    between atoms: N_33  and  C_15 
REMARK   15  A    between atoms: C_27  and  C_17 
REMARK   16  A    between atoms: C_17  and  N_35 
REMARK   17  A    between atoms: C_28  and  C_18 
REMARK   18  A    between atoms: C_18  and  N_37 
REMARK   19  A    between atoms: C_29  and  C_19 
REMARK   20  A    between atoms: C_19  and  N_39 
REMARK   21  A    between atoms: C_20  and  O_45 
REMARK   22  A    between atoms: C_21  and  O_46 
REMARK   23  A    between atoms: O_48  and  C_22 
REMARK       I    between atoms: N_39  and  C_25 
REMARK   24  A    between atoms: O_50  and  C_26 
REMARK   25  A    between atoms: O_52  and  C_27 
REMARK   26  A    between atoms: O_54  and  C_28 
REMARK   27  A    between atoms: O_56  and  C_29 
REMARK       I    between atoms: N_31  and  C_30 
ROOT
HETATM    1  C   UNK N   1      -9.421  -3.050  -0.644  0.00  0.00     0.183 C 
ENDROOT
BRANCH   1   2
HETATM    2  C   UNK N   1      -8.450  -3.922  -1.458  0.00  0.00     0.044 C 
BRANCH   2   3
HETATM    3  C   UNK N   1      -6.969  -3.497  -1.414  0.00  0.00     0.086 C 
BRANCH   3   4
HETATM    4  C   UNK N   1      -6.252  -4.510  -0.582  0.00  0.00     0.112 C 
HETATM    5  N   UNK N   1      -6.296  -5.747  -0.951  0.00  0.00    -0.360 N 
ATOM      6  HN  UNK N   1      -6.696  -5.943  -1.869  1.00  0.00     0.162 HD
BRANCH   5   7
HETATM    7  C   UNK N   1      -5.828  -6.885  -0.178  0.00  0.00     0.181 C 
BRANCH   7   8
HETATM    8  C   UNK N   1      -6.567  -6.948   1.167  0.00  0.00     0.044 C 
BRANCH   8   9
HETATM    9  C   UNK N   1      -8.077  -6.741   1.004  0.00  0.00     0.086 C 
BRANCH   9  10
HETATM   10  C   UNK N   1      -8.855  -8.012   0.878  0.00  0.00     0.112 C 
HETATM   11  N   UNK N   1      -9.999  -7.994   0.274  0.00  0.00    -0.360 N 
ATOM     12  HN  UNK N   1     -10.315  -7.112  -0.128  1.00  0.00     0.162 HD
BRANCH  11  13
HETATM   13  C   UNK N   1     -10.862  -9.158   0.133  0.00  0.00     0.181 C 
BRANCH  13  14
HETATM   14  C   UNK N   1     -12.141  -8.760  -0.597  0.00  0.00     0.046 C 
BRANCH  14  15
HETATM   15  C   UNK N   1     -13.176  -8.139   0.327  0.00  0.00     0.112 C 
BRANCH  15  16
HETATM   16  C   UNK N   1     -14.454  -8.908   0.207  0.00  0.00     0.139 C 
HETATM   17  O   UNK N   1     -14.485 -10.096   0.487  0.00  0.00    -0.650 OA
BRANCH  16  18
HETATM   18  O   UNK N   1     -15.573  -8.291  -0.215  0.00  0.00    -0.776 OA
HETATM   19  H   UNK N   1     -15.591  -7.402  -0.509  0.00  0.00     0.167 HD
ENDBRANCH  16  18
ENDBRANCH  15  16
ENDBRANCH  14  15
ENDBRANCH  13  14
BRANCH  13  20
HETATM   20  C   UNK N   1     -10.226 -10.267  -0.668  0.00  0.00     0.163 C 
HETATM   21  O   UNK N   1      -9.119 -10.133  -1.164  0.00  0.00    -0.648 OA
BRANCH  20  22
HETATM   22  O   UNK N   1     -10.895 -11.423  -0.840  0.00  0.00    -0.775 OA
HETATM   23  H   UNK N   1     -11.825 -11.422  -0.961  0.00  0.00     0.167 HD
ENDBRANCH  20  22
ENDBRANCH  13  20
ENDBRANCH  11  13
BRANCH  10  24
HETATM   24  O   UNK N   1      -8.380  -9.151   1.428  0.00  0.00    -0.350 OA
HETATM   25  H   UNK N   1      -8.899  -9.831   1.810  0.00  0.00     0.219 HD
ENDBRANCH  10  24
ENDBRANCH   9  10
ENDBRANCH   8   9
ENDBRANCH   7   8
BRANCH   7  26
HETATM   26  C   UNK N   1      -4.334  -6.908   0.034  0.00  0.00     0.163 C 
HETATM   27  O   UNK N   1      -3.623  -6.011  -0.389  0.00  0.00    -0.648 OA
BRANCH  26  28
HETATM   28  O   UNK N   1      -3.773  -7.952   0.676  0.00  0.00    -0.775 OA
HETATM   29  H   UNK N   1      -4.206  -8.652   1.122  0.00  0.00     0.167 HD
ENDBRANCH  26  28
ENDBRANCH   7  26
ENDBRANCH   5   7
BRANCH   4  30
HETATM   30  O   UNK N   1      -5.669  -4.144   0.581  0.00  0.00    -0.350 OA
HETATM   31  H   UNK N   1      -5.247  -4.367   1.387  0.00  0.00     0.219 HD
ENDBRANCH   4  30
ENDBRANCH   3   4
ENDBRANCH   2   3
ENDBRANCH   1   2
BRANCH   1  32
HETATM   32  C   UNK N   1     -10.530  -3.854  -0.034  0.00  0.00     0.163 C 
HETATM   33  O   UNK N   1     -11.411  -3.291   0.595  0.00  0.00    -0.648 OA
BRANCH  32  34
HETATM   34  O   UNK N   1     -10.591  -5.186  -0.214  0.00  0.00    -0.775 OA
HETATM   35  H   UNK N   1     -11.415  -5.614  -0.339  0.00  0.00     0.167 HD
ENDBRANCH  32  34
ENDBRANCH   1  32
BRANCH   1  36
HETATM   36  N   UNK N   1      -8.679  -2.316   0.355  0.00  0.00    -0.343 N 
HETATM   37  C   UNK N   1      -8.843  -0.983   0.485  0.00  0.00     0.252 C 
HETATM   38  O   UNK N   1      -9.947  -0.478   0.323  0.00  0.00    -0.268 OA
HETATM   39  H   UNK N   1      -8.050  -2.792   0.945  0.00  0.00     0.163 HD
BRANCH  37  40
HETATM   40  C   UNK N   1      -7.647  -0.142   0.438  0.00  0.00     0.032 A 
HETATM   41  C   UNK N   1      -6.371  -0.729   0.396  0.00  0.00     0.019 A 
HETATM   42  C   UNK N   1      -5.251   0.039   0.069  0.00  0.00     0.030 A 
HETATM   43  C   UNK N   1      -5.410   1.389  -0.243  0.00  0.00     0.028 A 
HETATM   44  C   UNK N   1      -6.684   1.968  -0.183  0.00  0.00     0.030 A 
HETATM   45  C   UNK N   1      -7.794   1.213   0.153  0.00  0.00     0.019 A 
BRANCH  43  46
HETATM   46  N   UNK N   1      -4.291   2.166  -0.628  0.00  0.00    -0.388 N 
HETATM   47  H   UNK N   1      -3.407   1.742  -0.717  0.00  0.00     0.159 HD
BRANCH  46  48
HETATM   48  C   UNK N   1      -4.442   3.577  -0.892  0.00  0.00     0.147 C 
BRANCH  48  49
HETATM   49  C   UNK N   1      -4.628   4.349   0.420  0.00  0.00     0.128 C 
HETATM   50  C   UNK N   1      -3.272   4.884   0.845  0.00  0.00     0.148 C 
HETATM   51  N   UNK N   1      -2.940   6.054   0.089  0.00  0.00    -0.372 N 
HETATM   52  C   UNK N   1      -3.893   7.084  -0.008  0.00  0.00     0.148 A 
HETATM   53  H   UNK N   1      -2.063   6.136  -0.353  0.00  0.00     0.161 HD
HETATM   54  C   UNK N   1      -5.268   6.787   0.137  0.00  0.00     0.133 A 
HETATM   55  N   UNK N   1      -3.470   8.354  -0.207  0.00  0.00    -0.175 N 
HETATM   56  C   UNK N   1      -6.156   7.908   0.143  0.00  0.00     0.186 A 
HETATM   57  N   UNK N   1      -5.658   5.384   0.253  0.00  0.00    -0.310 N 
HETATM   58  N   UNK N   1      -5.664   9.158  -0.048  0.00  0.00    -0.168 N 
HETATM   59  C   UNK N   1      -4.344   9.384  -0.242  0.00  0.00     0.679 A 
ATOM     60  HN  UNK N   1      -6.307   9.949  -0.044  1.00  0.00     0.186 HD
HETATM   61  N   UNK N   1      -3.921  10.573  -0.429  0.00  0.00    -0.234 N 
HETATM   62  H   UNK N   1      -2.964  10.750  -0.572  0.00  0.00     0.174 HD
ATOM     63  HN  UNK N   1      -4.583  11.350  -0.429  1.00  0.00     0.174 HD
HETATM   64  H   UNK N   1      -2.509   8.531  -0.328  0.00  0.00     0.186 HD
BRANCH  56  65
HETATM   65  O   UNK N   1      -7.470   7.793   0.375  0.00  0.00    -0.344 OA
HETATM   66  H   UNK N   1      -8.000   8.549   0.537  0.00  0.00     0.219 HD
ENDBRANCH  56  65
BRANCH  57  67
HETATM   67  C   UNK N   1      -6.924   4.894   0.062  0.00  0.00     0.356 C 
HETATM   68  O   UNK N   1      -7.876   5.563  -0.288  0.00  0.00    -0.283 OA
ENDBRANCH  57  67
ENDBRANCH  48  49
ENDBRANCH  46  48
ENDBRANCH  43  46
ENDBRANCH  37  40
ENDBRANCH   1  36
TORSDOF 27
