REMARK  2 active torsions:
REMARK  status: ('A' for Active; 'I' for Inactive)
REMARK    1  A    between atoms: O_1  and  C_2 
REMARK    2  A    between atoms: C_2  and  C_4 
ROOT
HETATM    1  C   UNK N   1       1.481  -0.587  -0.000  0.00  0.00     0.149 C 
HETATM    2  O   UNK N   1       0.593  -1.427   0.000  0.00  0.00    -0.649 OA
ENDROOT
BRANCH   1   3
HETATM    3  O   UNK N   1       2.768  -0.978  -0.000  0.00  0.00    -0.776 OA
HETATM    4  H   UNK N   1       2.980  -1.891  -0.000  0.00  0.00     0.167 HD
ENDBRANCH   1   3
BRANCH   1   5
HETATM    5  C   UNK N   1       1.160   0.878  -0.000  0.00  0.00     0.194 C 
HETATM    6 Br   UNK N   1      -0.742   1.275   0.000  0.00  0.00    -0.085 Br
ENDBRANCH   1   5
TORSDOF 2
