REMARK  8 active torsions:
REMARK  status: ('A' for Active; 'I' for Inactive)
REMARK       I    between atoms: C_2  and  N_4 
REMARK    1  A    between atoms: C_5  and  N_4 
REMARK    2  A    between atoms: C_6  and  O_7 
REMARK    3  A    between atoms: C_9  and  C_10 
REMARK    4  A    between atoms: C_10  and  O_11 
REMARK    5  A    between atoms: O_11  and  S_12 
REMARK    6  A    between atoms: S_12  and  O_13 
REMARK    7  A    between atoms: C_16  and  O_17 
REMARK    8  A    between atoms: C_18  and  O_19 
ROOT
HETATM    1  C   UNK N   1       2.373   1.031   0.173  0.00  0.00     0.170 C 
HETATM    2  C   UNK N   1       2.406  -0.475  -0.109  0.00  0.00     0.282 C 
HETATM    3  O   UNK N   1       1.275  -1.071   0.483  0.00  0.00    -0.349 OA
HETATM    4  C   UNK N   1       0.132  -0.679  -0.247  0.00  0.00     0.181 C 
HETATM    5  C   UNK N   1      -0.099   0.835  -0.071  0.00  0.00     0.180 C 
HETATM    6  C   UNK N   1       1.142   1.579  -0.550  0.00  0.00     0.177 C 
ENDROOT
BRANCH   4   7
HETATM    7  C   UNK N   1      -1.054  -1.487   0.277  0.00  0.00     0.226 C 
BRANCH   7   8
HETATM    8  O   UNK N   1      -2.209  -1.273  -0.489  0.00  0.00    -0.261 OA
BRANCH   8   9
HETATM    9  S   UNK N   1      -3.459  -0.968   0.659  0.00  0.00     0.240 S 
HETATM   10  O   UNK N   1      -3.622   0.087  -0.446  0.00  0.00    -0.579 OA
HETATM   11  O   UNK N   1      -3.800  -2.307  -0.015  0.00  0.00    -0.579 OA
BRANCH   9  12
HETATM   12  O   UNK N   1      -5.116  -0.931   0.214  0.00  0.00    -0.274 OA
HETATM   13  H   UNK N   1      -5.566  -0.109  -0.038  0.00  0.00     0.234 HD
ENDBRANCH   9  12
ENDBRANCH   8   9
ENDBRANCH   7   8
ENDBRANCH   4   7
BRANCH   5  14
HETATM   14  O   UNK N   1      -1.192   1.265  -0.822  0.00  0.00    -0.390 OA
HETATM   15  H   UNK N   1      -1.313   2.073  -1.345  0.00  0.00     0.210 HD
ENDBRANCH   5  14
BRANCH   2  16
HETATM   16  O   UNK N   1       3.559  -1.043   0.437  0.00  0.00    -0.369 OA
HETATM   17  H   UNK N   1       3.617  -1.934   0.816  0.00  0.00     0.212 HD
ENDBRANCH   2  16
BRANCH   6  18
HETATM   18  O   UNK N   1       0.989   2.948  -0.329  0.00  0.00    -0.391 OA
HETATM   19  H   UNK N   1       1.759   3.516  -0.176  0.00  0.00     0.210 HD
ENDBRANCH   6  18
BRANCH   1  20
HETATM   20  N   UNK N   1       3.577   1.677  -0.303  0.00  0.00    -0.349 N 
HETATM   21  C   UNK N   1       3.980   2.881   0.176  0.00  0.00     0.214 C 
HETATM   22  C   UNK N   1       5.223   3.507  -0.352  0.00  0.00     0.117 C 
HETATM   23  O   UNK N   1       3.340   3.456   1.043  0.00  0.00    -0.274 OA
HETATM   24  H   UNK N   1       4.119   1.231  -0.993  0.00  0.00     0.163 HD
ENDBRANCH   1  20
TORSDOF 8
