REMARK  13 active torsions:
REMARK  status: ('A' for Active; 'I' for Inactive)
REMARK    1  A    between atoms: C_10  and  C_8 
REMARK    2  A    between atoms: C_12  and  C_8 
REMARK    3  A    between atoms: C_11  and  C_9 
REMARK    4  A    between atoms: O_31  and  C_9 
REMARK    5  A    between atoms: C_16  and  C_11 
REMARK    6  A    between atoms: C_11  and  N_20 
REMARK    7  A    between atoms: C_12  and  O_24 
REMARK    8  A    between atoms: C_15  and  C_13 
REMARK    9  A    between atoms: C_18  and  C_13 
REMARK   10  A    between atoms: C_13  and  N_21 
REMARK   11  A    between atoms: C_14  and  C_17 
REMARK   12  A    between atoms: O_29  and  C_17 
REMARK   13  A    between atoms: O_31  and  C_18 
ROOT
HETATM    1  C   UNK N   1       7.006   6.296   0.844  0.00  0.00     0.215 C 
ENDROOT
BRANCH   1   2
HETATM    2  C   UNK N   1       6.653   4.792   0.691  0.00  0.00     0.173 C 
HETATM    3  N   UNK N   1       6.496   4.343  -0.699  0.00  0.00    -0.392 N 
HETATM    4  C   UNK N   1       6.690   2.890  -0.707  0.00  0.00     0.194 C 
HETATM    5  H   UNK N   1       6.290   4.931  -1.507  0.00  0.00     0.155 HD
HETATM    6  C   UNK N   1       8.003   2.667   0.043  0.00  0.00     0.033 C 
HETATM    7  C   UNK N   1       8.262   1.221   0.429  0.00  0.00     0.029 C 
HETATM    8  C   UNK N   1       9.153   3.124  -0.832  0.00  0.00     0.029 C 
HETATM    9  S   UNK N   1       7.908   3.729   1.512  0.00  0.00    -0.130 SA
BRANCH   4  10
HETATM   10  C   UNK N   1       5.496   2.147  -0.112  0.00  0.00     0.164 C 
HETATM   11  O   UNK N   1       4.505   2.747   0.270  0.00  0.00    -0.648 OA
BRANCH  10  12
HETATM   12  O   UNK N   1       5.506   0.801  -0.052  0.00  0.00    -0.775 OA
HETATM   13  H   UNK N   1       4.699   0.327  -0.010  0.00  0.00     0.167 HD
ENDBRANCH  10  12
ENDBRANCH   4  10
ENDBRANCH   1   2
BRANCH   1  14
HETATM   14  C   UNK N   1       6.039   7.379   0.325  0.00  0.00     0.284 C 
HETATM   15  O   UNK N   1       6.346   8.540   0.559  0.00  0.00    -0.263 OA
BRANCH  14  16
HETATM   16  O   UNK N   1       4.838   7.173  -0.293  0.00  0.00    -0.317 OA
BRANCH  16  17
HETATM   17  C   UNK N   1       4.307   6.006  -0.796  0.00  0.00     0.214 C 
BRANCH  17  18
HETATM   18  C   UNK N   1       2.958   5.623  -0.164  0.00  0.00     0.201 C 
BRANCH  18  19
HETATM   19  C   UNK N   1       1.914   6.711  -0.163  0.00  0.00     0.198 C 
HETATM   20  O   UNK N   1       0.795   6.469   0.263  0.00  0.00    -0.646 OA
HETATM   21  O   UNK N   1       2.195   7.947  -0.618  0.00  0.00    -0.646 OA
ENDBRANCH  18  19
BRANCH  18  22
HETATM   22  N   UNK N   1       3.166   5.168   1.199  0.00  0.00    -0.416 N 
HETATM   23  H   UNK N   1       2.962   4.882   2.157  0.00  0.00     0.150 HD
HETATM   24  H   UNK N   1       4.182   5.072   1.199  0.00  0.00     0.150 HD
ENDBRANCH  18  22
ENDBRANCH  17  18
ENDBRANCH  16  17
ENDBRANCH  14  16
ENDBRANCH   1  14
BRANCH   1  25
HETATM   25  N   UNK N   1       8.394   6.613   0.506  0.00  0.00    -0.358 N 
HETATM   26  C   UNK N   1       8.946   6.579  -0.661  0.00  0.00     0.116 C 
ATOM     27  HN  UNK N   1       8.995   6.894   1.281  1.00  0.00     0.162 HD
BRANCH  26  28
HETATM   28  C   UNK N   1      10.365   7.068  -0.829  0.00  0.00     0.122 C 
BRANCH  28  29
HETATM   29  C   UNK N   1      11.489   6.185  -0.345  0.00  0.00    -0.051 A 
HETATM   30  C   UNK N   1      12.806   6.650  -0.469  0.00  0.00     0.007 A 
HETATM   31  C   UNK N   1      13.884   5.844  -0.084  0.00  0.00     0.001 A 
HETATM   32  C   UNK N   1      13.652   4.561   0.420  0.00  0.00     0.000 A 
HETATM   33  C   UNK N   1      12.343   4.092   0.552  0.00  0.00     0.001 A 
HETATM   34  C   UNK N   1      11.267   4.904   0.174  0.00  0.00     0.007 A 
ENDBRANCH  28  29
ENDBRANCH  26  28
BRANCH  26  35
HETATM   35  O   UNK N   1       8.246   6.205  -1.748  0.00  0.00    -0.349 OA
ATOM     36  HO  UNK N   1       7.353   5.898  -1.643  1.00  0.00     0.219 HD
ENDBRANCH  26  35
ENDBRANCH   1  25
TORSDOF 13
