REMARK  17 active torsions:
REMARK  status: ('A' for Active; 'I' for Inactive)
REMARK    1  A    between atoms: C_3  and  C_2 
REMARK    2  A    between atoms: C_4  and  C_3 
REMARK    3  A    between atoms: C_11  and  C_4 
REMARK    4  A    between atoms: C_6  and  C_5 
REMARK    5  A    between atoms: C_7  and  C_5 
REMARK    6  A    between atoms: C_8  and  C_6 
REMARK    7  A    between atoms: C_9  and  C_7 
REMARK    8  A    between atoms: C_10  and  C_8 
REMARK    9  A    between atoms: C_13  and  C_10 
REMARK   10  A    between atoms: C_14  and  C_11 
REMARK   11  A    between atoms: C_15  and  C_12 
REMARK   12  A    between atoms: C_16  and  C_13 
REMARK   13  A    between atoms: C_17  and  C_14 
REMARK   14  A    between atoms: C_17  and  C_15 
REMARK   15  A    between atoms: C_18  and  C_16 
REMARK   16  A    between atoms: C_17  and  O_19 
REMARK   17  A    between atoms: O_21  and  C_18 
ROOT
HETATM    1  C   UNK N   1       3.461  -1.497   0.257  0.00  0.00    -0.031 C 
HETATM    2  C   UNK N   1       4.667  -1.913  -0.157  0.00  0.00    -0.028 C 
ENDROOT
BRANCH   1   3
HETATM    3  C   UNK N   1       2.872  -0.189  -0.178  0.00  0.00     0.027 C 
BRANCH   3   4
HETATM    4  C   UNK N   1       3.593   0.961   0.509  0.00  0.00     0.004 C 
BRANCH   4   5
HETATM    5  C   UNK N   1       3.188   2.304  -0.072  0.00  0.00     0.000 C 
BRANCH   5   6
HETATM    6  C   UNK N   1       1.798   2.687   0.400  0.00  0.00     0.000 C 
BRANCH   6   7
HETATM    7  C   UNK N   1       0.801   2.441  -0.715  0.00  0.00     0.001 C 
BRANCH   7   8
HETATM    8  C   UNK N   1      -0.463   1.803  -0.169  0.00  0.00     0.010 C 
BRANCH   8   9
HETATM    9  C   UNK N   1      -0.254   0.305  -0.007  0.00  0.00     0.110 C 
BRANCH   9  10
HETATM   10  C   UNK N   1      -1.545  -0.447   0.103  0.00  0.00     0.139 C 
HETATM   11  O   UNK N   1      -1.523  -1.661   0.212  0.00  0.00    -0.650 OA
BRANCH  10  12
HETATM   12  O   UNK N   1      -2.728   0.198   0.067  0.00  0.00    -0.776 OA
HETATM   13  H   UNK N   1      -2.751   1.135   0.042  0.00  0.00     0.167 HD
ENDBRANCH  10  12
ENDBRANCH   9  10
ENDBRANCH   8   9
ENDBRANCH   7   8
ENDBRANCH   6   7
ENDBRANCH   5   6
ENDBRANCH   4   5
ENDBRANCH   3   4
ENDBRANCH   1   3
BRANCH   2  14
HETATM   14  C   UNK N   1       5.499  -1.107  -1.119  0.00  0.00     0.058 C 
BRANCH  14  15
HETATM   15  C   UNK N   1       6.845  -0.656  -0.555  0.00  0.00     0.121 C 
BRANCH  15  16
HETATM   16  C   UNK N   1       6.657   0.358   0.570  0.00  0.00     0.032 C 
BRANCH  16  17
HETATM   17  C   UNK N   1       7.981   0.966   1.007  0.00  0.00     0.002 C 
BRANCH  17  18
HETATM   18  C   UNK N   1       8.324   2.156   0.131  0.00  0.00     0.000 C 
BRANCH  18  19
HETATM   19  C   UNK N   1       9.742   2.600   0.424  0.00  0.00    -0.000 C 
BRANCH  19  20
HETATM   20  C   UNK N   1      10.028   3.907  -0.286  0.00  0.00    -0.005 C 
HETATM   21  C   UNK N   1      11.471   4.301  -0.051  0.00  0.00     0.005 C 
ENDBRANCH  19  20
ENDBRANCH  18  19
ENDBRANCH  17  18
ENDBRANCH  16  17
ENDBRANCH  15  16
BRANCH  15  22
HETATM   22  O   UNK N   1       7.572  -1.756  -0.096  0.00  0.00    -0.395 OA
HETATM   23  H   UNK N   1       7.163  -2.576   0.223  0.00  0.00     0.210 HD
ENDBRANCH  15  22
ENDBRANCH  14  15
ENDBRANCH   2  14
TORSDOF 17
