REMARK  9 active torsions:
REMARK  status: ('A' for Active; 'I' for Inactive)
REMARK       I    between atoms: N_1  and  C_2 
REMARK    1  A    between atoms: N_15  and  C_18 
REMARK    2  A    between atoms: C_21  and  C_24 
REMARK       I    between atoms: C_24  and  N_26 
REMARK    3  A    between atoms: C_27  and  N_26 
REMARK    4  A    between atoms: C_27  and  C_28 
REMARK    5  A    between atoms: C_27  and  C_33 
REMARK    6  A    between atoms: C_28  and  C_29 
REMARK    7  A    between atoms: C_29  and  C_30 
REMARK    8  A    between atoms: C_30  and  O_31 
REMARK    9  A    between atoms: C_33  and  O_34 
ROOT
HETATM    1  C   UNK N   1       3.400  -0.451  -0.709  0.00  0.00     0.031 C 
HETATM    2  C   UNK N   1       3.295   0.938  -0.616  0.00  0.00     0.030 C 
HETATM    3  C   UNK N   1       4.417   1.683  -0.278  0.00  0.00     0.019 C 
HETATM    4  C   UNK N   1       5.663   1.062  -0.085  0.00  0.00     0.032 C 
HETATM    5  C   UNK N   1       5.793  -0.301  -0.357  0.00  0.00     0.019 C 
HETATM    6  C   UNK N   1       4.665  -1.056  -0.659  0.00  0.00     0.030 C 
ENDROOT
BRANCH   1   7
HETATM    7  N   UNK N   1       2.234  -1.255  -0.661  0.00  0.00    -0.362 N 
HETATM    8  C   UNK N   1       0.885  -0.715  -0.666  0.00  0.00     0.155 C 
HETATM    9  C   UNK N   1       0.064  -1.982  -0.595  0.00  0.00     0.143 C 
HETATM   10  C   UNK N   1      -1.391  -2.177  -0.295  0.00  0.00     0.089 C 
HETATM   11  N   UNK N   1       0.940  -3.027  -0.184  0.00  0.00    -0.346 N 
HETATM   12  N   UNK N   1      -1.827  -3.342   0.064  0.00  0.00    -0.351 N 
HETATM   13  C   UNK N   1      -0.957  -4.455   0.290  0.00  0.00     0.153 A 
ATOM     14  HN  UNK N   1      -2.831  -3.471   0.191  1.00  0.00     0.166 HD
HETATM   15  C   UNK N   1       0.437  -4.292   0.211  0.00  0.00     0.146 A 
HETATM   16  N   UNK N   1      -1.476  -5.665   0.615  0.00  0.00    -0.174 N 
HETATM   17  C   UNK N   1       1.257  -5.390   0.526  0.00  0.00     0.290 A 
HETATM   18  N   UNK N   1       0.682  -6.587   0.849  0.00  0.00    -0.154 N 
HETATM   19  O   UNK N   1       2.473  -5.292   0.512  0.00  0.00    -0.265 OA
HETATM   20  C   UNK N   1      -0.670  -6.729   0.877  0.00  0.00     0.680 A 
ATOM     21  HN  UNK N   1       1.275  -7.386   1.072  1.00  0.00     0.187 HD
HETATM   22  N   UNK N   1      -1.237  -7.980   1.181  0.00  0.00    -0.234 N 
HETATM   23  H   UNK N   1      -2.193  -8.075   1.394  0.00  0.00     0.174 HD
HETATM   24  H   UNK N   1      -0.663  -8.780   1.181  0.00  0.00     0.174 HD
HETATM   25  H   UNK N   1      -2.453  -5.775   0.663  0.00  0.00     0.186 HD
HETATM   26  C   UNK N   1       2.311  -2.655  -0.308  0.00  0.00     0.250 C 
ENDBRANCH   1   7
BRANCH   4  27
HETATM   27  C   UNK N   1       6.491   1.589   1.019  0.00  0.00     0.252 C 
HETATM   28  O   UNK N   1       5.889   2.087   1.958  0.00  0.00    -0.268 OA
HETATM   29  N   UNK N   1       7.833   1.413   1.157  0.00  0.00    -0.343 N 
HETATM   30  H   UNK N   1       8.172   1.395   2.081  0.00  0.00     0.163 HD
BRANCH  29  31
HETATM   31  C   UNK N   1       8.828   1.248   0.117  0.00  0.00     0.183 C 
BRANCH  31  32
HETATM   32  C   UNK N   1       8.685   0.022  -0.774  0.00  0.00     0.046 C 
BRANCH  32  33
HETATM   33  C   UNK N   1       9.333  -1.203  -0.136  0.00  0.00     0.112 C 
BRANCH  33  34
HETATM   34  C   UNK N   1      10.835  -1.120  -0.068  0.00  0.00     0.139 C 
HETATM   35  O   UNK N   1      11.468  -2.062   0.378  0.00  0.00    -0.650 OA
BRANCH  34  36
HETATM   36  O   UNK N   1      11.492  -0.019  -0.487  0.00  0.00    -0.776 OA
HETATM   37  H   UNK N   1      12.383  -0.031  -0.778  0.00  0.00     0.167 HD
ENDBRANCH  34  36
ENDBRANCH  33  34
ENDBRANCH  32  33
ENDBRANCH  31  32
BRANCH  31  38
HETATM   38  C   UNK N   1       8.994   2.524  -0.655  0.00  0.00     0.163 C 
HETATM   39  O   UNK N   1       8.220   3.457  -0.494  0.00  0.00    -0.648 OA
BRANCH  38  40
HETATM   40  O   UNK N   1      10.049   2.673  -1.475  0.00  0.00    -0.775 OA
HETATM   41  H   UNK N   1      10.507   2.088  -2.046  0.00  0.00     0.167 HD
ENDBRANCH  38  40
ENDBRANCH  31  38
ENDBRANCH  29  31
ENDBRANCH   4  27
TORSDOF 9
