REMARK  16 active torsions:
REMARK  status: ('A' for Active; 'I' for Inactive)
REMARK    1  A    between atoms: C_2  and  C_3 
REMARK    2  A    between atoms: C_3  and  C_4 
REMARK    3  A    between atoms: C_4  and  C_5 
REMARK    4  A    between atoms: C_5  and  C_6 
REMARK    5  A    between atoms: C_6  and  C_7 
REMARK    6  A    between atoms: C_7  and  C_8 
REMARK    7  A    between atoms: C_8  and  C_9 
REMARK    8  A    between atoms: C_9  and  C_10 
REMARK    9  A    between atoms: C_10  and  C_11 
REMARK   10  A    between atoms: C_11  and  C_12 
REMARK   11  A    between atoms: C_12  and  C_13 
REMARK   12  A    between atoms: C_13  and  C_14 
REMARK   13  A    between atoms: C_14  and  C_15 
REMARK   14  A    between atoms: C_15  and  C_16 
REMARK   15  A    between atoms: C_16  and  S_17 
REMARK   16  A    between atoms: S_17  and  O_18 
ROOT
HETATM    1  C   UNK N   1      15.082  -4.476   0.365  0.00  0.00     0.000 C 
ENDROOT
BRANCH   1   2
HETATM    2  C   UNK N   1      14.037  -4.845  -0.664  0.00  0.00     0.000 C 
BRANCH   2   3
HETATM    3  C   UNK N   1      12.728  -4.198  -0.282  0.00  0.00     0.000 C 
BRANCH   3   4
HETATM    4  C   UNK N   1      11.657  -5.262  -0.186  0.00  0.00     0.000 C 
BRANCH   4   5
HETATM    5  C   UNK N   1      10.352  -4.594   0.174  0.00  0.00     0.000 C 
BRANCH   5   6
HETATM    6  C   UNK N   1       9.205  -5.569   0.036  0.00  0.00     0.000 C 
BRANCH   6   7
HETATM    7  C   UNK N   1       7.923  -4.771   0.106  0.00  0.00     0.000 C 
BRANCH   7   8
HETATM    8  C   UNK N   1       6.716  -5.673  -0.014  0.00  0.00     0.000 C 
BRANCH   8   9
HETATM    9  C   UNK N   1       5.482  -4.797   0.002  0.00  0.00    -0.000 C 
BRANCH   9  10
HETATM   10  C   UNK N   1       4.233  -5.649  -0.023  0.00  0.00    -0.005 C 
HETATM   11  C   UNK N   1       3.020  -4.743  -0.001  0.00  0.00     0.005 C 
ENDBRANCH   9  10
ENDBRANCH   8   9
ENDBRANCH   7   8
ENDBRANCH   6   7
ENDBRANCH   5   6
ENDBRANCH   4   5
ENDBRANCH   3   4
ENDBRANCH   2   3
ENDBRANCH   1   2
BRANCH   1  12
HETATM   12  C   UNK N   1      16.016  -5.645   0.593  0.00  0.00     0.000 C 
BRANCH  12  13
HETATM   13  C   UNK N   1      17.070  -5.708  -0.499  0.00  0.00     0.000 C 
BRANCH  13  14
HETATM   14  C   UNK N   1      18.148  -6.714  -0.133  0.00  0.00     0.001 C 
BRANCH  14  15
HETATM   15  C   UNK N   1      18.901  -6.258   1.108  0.00  0.00     0.017 C 
BRANCH  15  16
HETATM   16  C   UNK N   1      20.394  -6.227   0.843  0.00  0.00     0.155 C 
BRANCH  16  17
HETATM   17  S   UNK N   1      20.867  -4.738  -0.094  0.00  0.00     0.094 S 
HETATM   18  O   UNK N   1      21.127  -5.038  -1.579  0.00  0.00    -0.601 OA
HETATM   19  O   UNK N   1      19.729  -3.712  -0.186  0.00  0.00    -0.601 OA
BRANCH  17  20
HETATM   20  O   UNK N   1      22.223  -3.827   0.433  0.00  0.00    -0.296 OA
HETATM   21  H   UNK N   1      23.052  -4.234   0.731  0.00  0.00     0.232 HD
ENDBRANCH  17  20
ENDBRANCH  16  17
ENDBRANCH  15  16
ENDBRANCH  14  15
ENDBRANCH  13  14
ENDBRANCH  12  13
ENDBRANCH   1  12
TORSDOF 16
