REMARK  17 active torsions:
REMARK  status: ('A' for Active; 'I' for Inactive)
REMARK    1  A    between atoms: C_7  and  C_3 
REMARK    2  A    between atoms: O_41  and  C_3 
REMARK    3  A    between atoms: N_25  and  C_6 
REMARK    4  A    between atoms: N_26  and  C_8 
REMARK    5  A    between atoms: N_27  and  C_9 
REMARK    6  A    between atoms: N_17  and  C_13 
REMARK    7  A    between atoms: C_15  and  N_24 
REMARK    8  A    between atoms: O_28  and  N_25 
REMARK    9  A    between atoms: P_47  and  O_34 
REMARK   10  A    between atoms: P_47  and  O_35 
REMARK   11  A    between atoms: P_48  and  O_37 
REMARK   12  A    between atoms: P_49  and  O_39 
REMARK   13  A    between atoms: P_48  and  O_41 
REMARK   14  A    between atoms: P_47  and  O_45 
REMARK   15  A    between atoms: P_49  and  O_45 
REMARK   16  A    between atoms: P_48  and  O_46 
REMARK   17  A    between atoms: P_49  and  O_46 
ROOT
HETATM    1  C   UNK N   1      -1.155   2.984  -0.494  0.00  0.00     0.073 C 
HETATM    2  C   UNK N   1      -0.947   0.509  -0.725  0.00  0.00     0.073 C 
HETATM    3  C   UNK N   1      -1.793   1.684  -0.547  0.00  0.00     0.099 C 
HETATM    4  C   UNK N   1       4.095   1.314   1.038  0.00  0.00     0.180 C 
HETATM    5  C   UNK N   1       0.164   3.128  -0.397  0.00  0.00     0.151 C 
HETATM    6  C   UNK N   1       0.395   0.541  -0.616  0.00  0.00     0.151 C 
HETATM    7  C   UNK N   1       2.908   2.341   1.016  0.00  0.00     0.190 C 
HETATM    8  C   UNK N   1       3.088   2.958  -0.329  0.00  0.00     0.207 C 
HETATM    9  C   UNK N   1       4.634   3.000  -0.386  0.00  0.00     0.262 C 
HETATM   10  C   UNK N   1       1.143   1.891  -0.287  0.00  0.00     0.267 C 
HETATM   11  O   UNK N   1       5.151   2.105   0.575  0.00  0.00    -0.353 OA
HETATM   12  O   UNK N   1       1.613   1.797   1.049  0.00  0.00    -0.334 OA
HETATM   13  O   UNK N   1       2.295   2.095  -1.133  0.00  0.00    -0.332 OA
ENDROOT
BRANCH   4  14
HETATM   14  C   UNK N   1       4.659  -0.101   0.802  0.00  0.00     0.215 C 
BRANCH  14  15
HETATM   15  O   UNK N   1       5.428  -0.113  -0.397  0.00  0.00    -0.294 OA
BRANCH  15  16
HETATM   16  P   UNK N   1       5.519  -1.742  -0.954  0.00  0.00     0.401 P 
HETATM   17  O   UNK N   1       6.832  -1.788  -1.782  0.00  0.00    -0.631 OA
BRANCH  16  18
HETATM   18  O   UNK N   1       4.243  -2.160  -2.052  0.00  0.00    -0.307 OA
HETATM   19  H   UNK N   1       3.684  -1.660  -2.666  0.00  0.00     0.222 HD
ENDBRANCH  16  18
BRANCH  16  20
HETATM   20  O   UNK N   1       5.816  -2.832   0.358  0.00  0.00    -0.195 OA
BRANCH  20  21
HETATM   21  P   UNK N   1       4.406  -3.803   0.707  0.00  0.00     0.410 P 
HETATM   22  O   UNK N   1       4.931  -5.225   1.063  0.00  0.00    -0.631 OA
BRANCH  21  23
HETATM   23  O   UNK N   1       3.810  -3.199   2.197  0.00  0.00    -0.307 OA
HETATM   24  H   UNK N   1       3.937  -2.737   3.040  0.00  0.00     0.222 HD
ENDBRANCH  21  23
BRANCH  21  25
HETATM   25  O   UNK N   1       2.998  -3.874  -0.344  0.00  0.00    -0.195 OA
BRANCH  25  26
HETATM   26  P   UNK N   1       2.270  -5.459  -0.156  0.00  0.00     0.399 P 
HETATM   27  O   UNK N   1       2.267  -5.879   1.343  0.00  0.00    -0.631 OA
BRANCH  26  28
HETATM   28  O   UNK N   1       3.210  -6.627  -1.026  0.00  0.00    -0.307 OA
HETATM   29  H   UNK N   1       2.907  -7.409  -1.512  0.00  0.00     0.222 HD
ENDBRANCH  26  28
BRANCH  26  30
HETATM   30  O   UNK N   1       0.613  -5.501  -0.676  0.00  0.00    -0.307 OA
HETATM   31  H   UNK N   1       0.131  -4.712  -0.966  0.00  0.00     0.222 HD
ENDBRANCH  26  30
ENDBRANCH  25  26
ENDBRANCH  21  25
ENDBRANCH  20  21
ENDBRANCH  16  20
ENDBRANCH  15  16
ENDBRANCH  14  15
ENDBRANCH   4  14
BRANCH   9  32
HETATM   32  N   UNK N   1       5.133   4.328   0.013  0.00  0.00    -0.297 N 
HETATM   33  C   UNK N   1       4.426   5.440   0.365  0.00  0.00     0.188 A 
HETATM   34  N   UNK N   1       5.246   6.466   0.715  0.00  0.00    -0.346 N 
HETATM   35  C   UNK N   1       6.483   5.959   0.579  0.00  0.00     0.122 A 
ATOM     36  HN  UNK N   1       4.983   7.405   1.012  1.00  0.00     0.167 HD
HETATM   37  C   UNK N   1       7.709   6.548   0.816  0.00  0.00     0.131 A 
HETATM   38  C   UNK N   1       6.414   4.682   0.157  0.00  0.00     0.142 A 
HETATM   39  N   UNK N   1       8.831   5.795   0.612  0.00  0.00    -0.337 N 
HETATM   40  C   UNK N   1       8.739   4.491   0.184  0.00  0.00     0.183 A 
ATOM     41  HN  UNK N   1       9.749   6.206   0.779  1.00  0.00     0.168 HD
HETATM   42  N   UNK N   1       7.516   3.921  -0.047  0.00  0.00    -0.336 N 
ATOM     43  HN  UNK N   1       7.437   2.954  -0.363  1.00  0.00     0.168 HD
BRANCH  37  44
HETATM   44  N   UNK N   1       7.805   7.881   1.264  0.00  0.00    -0.383 N 
HETATM   45  H   UNK N   1       8.645   8.288   1.577  0.00  0.00     0.157 HD
HETATM   46  H   UNK N   1       6.990   8.433   1.264  0.00  0.00     0.157 HD
ENDBRANCH  37  44
ENDBRANCH   9  32
BRANCH   5  47
HETATM   47  N   UNK N   1       0.622   4.467  -0.282  0.00  0.00    -0.114 N 
HETATM   48  O   UNK N   1       0.846   5.077  -1.286  0.00  0.00    -0.532 OA
HETATM   49  O   UNK N   1       0.363   5.077   0.711  0.00  0.00    -0.532 OA
ENDBRANCH   5  47
BRANCH   6  50
HETATM   50  N   UNK N   1       1.062  -0.728  -0.669  0.00  0.00    -0.114 N 
HETATM   51  O   UNK N   1       2.138  -0.872  -0.205  0.00  0.00    -0.532 OA
HETATM   52  O   UNK N   1       0.464  -1.698  -1.051  0.00  0.00    -0.532 OA
ENDBRANCH   6  50
BRANCH   3  53
HETATM   53  N   UNK N   1      -3.071   1.572  -0.364  0.00  0.00    -0.123 N 
HETATM   54  O   UNK N   1      -3.742   2.537  -0.164  0.00  0.00    -0.538 OA
BRANCH  53  55
HETATM   55  O   UNK N   1      -3.634   0.380  -0.341  0.00  0.00    -0.257 OA
HETATM   56  H   UNK N   1      -4.568   0.304  -0.325  0.00  0.00     0.248 HD
ENDBRANCH  53  55
ENDBRANCH   3  53
TORSDOF 17
