REMARK  3 active torsions:
REMARK  status: ('A' for Active; 'I' for Inactive)
REMARK    1  A    between atoms: S_2  and  C_3 
REMARK    2  A    between atoms: C_7  and  N_8 
REMARK       I    between atoms: N_8  and  C_9 
REMARK    3  A    between atoms: C_15  and  C_23 
ROOT
HETATM    1  N   UNK N   1      -1.935  -1.875   0.336  0.00  0.00    -0.192 N 
HETATM    2  C   UNK N   1      -0.725  -1.136   0.370  0.00  0.00     0.684 A 
HETATM    3  N   UNK N   1      -0.693   0.161   0.784  0.00  0.00    -0.201 N 
ATOM      4  HN  UNK N   1      -1.553   0.620   1.085  1.00  0.00     0.183 HD
HETATM    5  C   UNK N   1       0.487   0.849   0.797  0.00  0.00     0.121 A 
HETATM    6  C   UNK N   1       1.665   0.225   0.364  0.00  0.00     0.026 A 
HETATM    7  C   UNK N   1       2.884   0.891   0.328  0.00  0.00     0.034 A 
HETATM    8  C   UNK N   1       4.045   0.260  -0.159  0.00  0.00     0.047 A 
HETATM    9  C   UNK N   1       3.919  -1.080  -0.621  0.00  0.00     0.260 A 
HETATM   10  O   UNK N   1       4.860  -1.646  -1.145  0.00  0.00    -0.267 OA
HETATM   11  N   UNK N   1       2.707  -1.730  -0.546  0.00  0.00    -0.303 N 
HETATM   12  C   UNK N   1       2.597  -3.108  -1.025  0.00  0.00     0.161 C 
HETATM   13  C   UNK N   1       1.599  -1.097  -0.074  0.00  0.00     0.137 A 
HETATM   14  N   UNK N   1       0.414  -1.735  -0.055  0.00  0.00    -0.175 N 
ATOM     15  HN  UNK N   1       0.372  -2.704  -0.371  1.00  0.00     0.186 HD
HETATM   16  H   UNK N   1      -2.805  -1.415   0.377  0.00  0.00     0.184 HD
ENDROOT
BRANCH   1  17
HETATM   17  C   UNK N   1      -1.869  -3.293   0.240  0.00  0.00     0.050 A 
HETATM   18  C   UNK N   1      -2.721  -3.989  -0.622  0.00  0.00     0.030 A 
HETATM   19  C   UNK N   1      -2.560  -5.372  -0.793  0.00  0.00     0.004 A 
HETATM   20  C   UNK N   1      -1.554  -6.058  -0.099  0.00  0.00     0.018 A 
HETATM   21  C   UNK N   1      -0.711  -5.365   0.774  0.00  0.00     0.002 A 
HETATM   22  C   UNK N   1      -0.869  -3.993   0.937  0.00  0.00     0.048 A 
BRANCH  21  23
HETATM   23  S   UNK N   1       0.566  -6.221   1.690  0.00  0.00    -0.134 SA
HETATM   24  C   UNK N   1       1.782  -6.062   0.352  0.00  0.00     0.095 C 
ENDBRANCH  21  23
ENDBRANCH   1  17
BRANCH   8  25
HETATM   25  C   UNK N   1       5.337   1.047  -0.260  0.00  0.00     0.023 A 
HETATM   26  C   UNK N   1       5.301   2.443  -0.579  0.00  0.00     0.046 A 
HETATM   27 Cl   UNK N   1       3.819   3.351  -0.877  0.00  0.00    -0.083 Cl
HETATM   28  C   UNK N   1       6.485   3.166  -0.723  0.00  0.00     0.025 A 
HETATM   29  C   UNK N   1       7.719   2.559  -0.550  0.00  0.00     0.003 A 
HETATM   30  C   UNK N   1       7.785   1.219  -0.200  0.00  0.00     0.025 A 
HETATM   31  C   UNK N   1       6.629   0.453  -0.050  0.00  0.00     0.046 A 
HETATM   32 Cl   UNK N   1       6.902  -1.189   0.531  0.00  0.00    -0.083 Cl
ENDBRANCH   8  25
TORSDOF 3
