REMARK  7 active torsions:
REMARK  status: ('A' for Active; 'I' for Inactive)
REMARK    1  A    between atoms: C_5  and  C_2 
REMARK    2  A    between atoms: O_24  and  C_2 
REMARK    3  A    between atoms: C_7  and  O_20 
REMARK    4  A    between atoms: N_12  and  C_9 
REMARK    5  A    between atoms: C_11  and  N_19 
REMARK    6  A    between atoms: P_26  and  O_22 
REMARK    7  A    between atoms: P_26  and  O_24 
ROOT
HETATM    1  C   UNK N   1      -0.350  -1.826   0.011  0.00  0.00     0.179 C 
HETATM    2  C   UNK N   1       1.108  -2.304   0.116  0.00  0.00     0.182 C 
HETATM    3  C   UNK N   1       1.861  -1.058  -0.257  0.00  0.00     0.198 C 
HETATM    4  C   UNK N   1       0.939  -0.037   0.391  0.00  0.00     0.262 C 
HETATM    5  O   UNK N   1       1.863  -0.888  -1.645  0.00  0.00    -0.388 OA
HETATM    6  O   UNK N   1      -0.359  -0.402  -0.033  0.00  0.00    -0.353 OA
HETATM    7  H   UNK N   1       1.966  -0.830  -2.608  0.00  0.00     0.210 HD
ENDROOT
BRANCH   2   8
HETATM    8  O   UNK N   1       1.385  -2.614   1.454  0.00  0.00    -0.390 OA
HETATM    9  H   UNK N   1       1.294  -2.887   2.381  0.00  0.00     0.210 HD
ENDBRANCH   2   8
BRANCH   4  10
HETATM   10  N   UNK N   1       1.267   1.361   0.092  0.00  0.00    -0.297 N 
HETATM   11  C   UNK N   1       0.391   2.397   0.010  0.00  0.00     0.188 A 
HETATM   12  N   UNK N   1       1.040   3.595  -0.070  0.00  0.00    -0.346 N 
HETATM   13  C   UNK N   1       2.345   3.271  -0.012  0.00  0.00     0.122 A 
ATOM     14  HN  UNK N   1       0.630   4.525  -0.155  1.00  0.00     0.167 HD
HETATM   15  C   UNK N   1       3.468   4.085  -0.002  0.00  0.00     0.131 A 
HETATM   16  C   UNK N   1       2.481   1.935   0.086  0.00  0.00     0.142 A 
HETATM   17  N   UNK N   1       4.693   3.487   0.089  0.00  0.00    -0.337 N 
HETATM   18  C   UNK N   1       4.807   2.121   0.178  0.00  0.00     0.183 A 
ATOM     19  HN  UNK N   1       5.535   4.063   0.089  1.00  0.00     0.168 HD
HETATM   20  N   UNK N   1       3.689   1.333   0.192  0.00  0.00    -0.336 N 
ATOM     21  HN  UNK N   1       3.763   0.319   0.279  1.00  0.00     0.168 HD
BRANCH  15  22
HETATM   22  N   UNK N   1       3.358   5.489  -0.057  0.00  0.00    -0.383 N 
HETATM   23  H   UNK N   1       4.168   6.046  -0.095  0.00  0.00     0.157 HD
HETATM   24  H   UNK N   1       2.469   5.913  -0.057  0.00  0.00     0.157 HD
ENDBRANCH  15  22
ENDBRANCH   4  10
BRANCH   1  25
HETATM   25  C   UNK N   1      -1.028  -2.455  -1.212  0.00  0.00     0.213 C 
BRANCH  25  26
HETATM   26  O   UNK N   1      -2.408  -2.600  -1.001  0.00  0.00    -0.316 OA
BRANCH  26  27
HETATM   27  P   UNK N   1      -2.649  -4.078  -0.076  0.00  0.00     0.234 P 
HETATM   28  C   UNK N   1      -3.936  -5.260  -0.702  0.00  0.00     0.142 C 
HETATM   29  O   UNK N   1      -3.100  -3.562   1.317  0.00  0.00    -0.654 OA
BRANCH  27  30
HETATM   30  O   UNK N   1      -1.118  -4.830   0.271  0.00  0.00    -0.329 OA
HETATM   31  H   UNK N   1      -1.054  -5.778   0.464  0.00  0.00     0.220 HD
ENDBRANCH  27  30
ENDBRANCH  26  27
ENDBRANCH  25  26
ENDBRANCH   1  25
TORSDOF 7
