REMARK  4 active torsions:
REMARK  status: ('A' for Active; 'I' for Inactive)
REMARK    1  A    between atoms: C_1  and  N_2 
REMARK    2  A    between atoms: C_7  and  C_12 
REMARK    3  A    between atoms: C_8  and  O_13 
REMARK    4  A    between atoms: C_12  and  O_15 
ROOT
HETATM    1  C   UNK N   1      -0.453  -0.201   0.000  0.00  0.00     0.235 A 
HETATM    2  O   UNK N   1      -1.535   0.715   0.000  0.00  0.00    -0.356 OA
HETATM    3  C   UNK N   1      -0.801  -1.691  -0.000  0.00  0.00     0.088 A 
HETATM    4  C   UNK N   1      -2.664  -0.117  -0.000  0.00  0.00     0.176 A 
HETATM    5  C   UNK N   1      -2.278  -1.565   0.000  0.00  0.00     0.153 A 
ENDROOT
BRANCH   1   6
HETATM    6  N   UNK N   1       0.920   0.335  -0.000  0.00  0.00    -0.282 N 
HETATM    7  C   UNK N   1       2.037  -0.486  -0.000  0.00  0.00     0.331 A 
HETATM    8  N   UNK N   1       3.292   0.064  -0.000  0.00  0.00    -0.275 N 
HETATM    9  O   UNK N   1       1.924  -1.699   0.000  0.00  0.00    -0.246 OA
HETATM   10  C   UNK N   1       3.464   1.420  -0.000  0.00  0.00     0.250 A 
HETATM   11  H   UNK N   1       4.080  -0.525  -0.000  0.00  0.00     0.173 HD
HETATM   12  O   UNK N   1       4.586   1.891  -0.000  0.00  0.00    -0.268 OA
HETATM   13  C   UNK N   1       2.356   2.257  -0.000  0.00  0.00     0.092 A 
HETATM   14  C   UNK N   1       1.084   1.688   0.000  0.00  0.00     0.104 A 
ENDBRANCH   1   6
BRANCH   4  15
HETATM   15  C   UNK N   1      -4.054   0.502   0.000  0.00  0.00     0.198 C 
BRANCH  15  16
HETATM   16  O   UNK N   1      -5.037  -0.487  -0.000  0.00  0.00    -0.398 OA
HETATM   17  H   UNK N   1      -5.975  -0.239  -0.000  0.00  0.00     0.209 HD
ENDBRANCH  15  16
ENDBRANCH   4  15
BRANCH   5  18
HETATM   18  O   UNK N   1      -3.156  -2.648  -0.000  0.00  0.00    -0.393 OA
HETATM   19  H   UNK N   1      -4.114  -2.496  -0.000  0.00  0.00     0.210 HD
ENDBRANCH   5  18
TORSDOF 4
