REMARK WARNING: 32 MAX_TORS EXCEEDED!!!
REMARK  44 active torsions:
REMARK  status: ('A' for Active; 'I' for Inactive)
REMARK    1  A    between atoms: C_5  and  C_1 
REMARK    2  A    between atoms: C_9  and  C_1 
REMARK    3  A    between atoms: C_6  and  C_2 
REMARK    4  A    between atoms: C_10  and  C_2 
REMARK    5  A    between atoms: C_7  and  C_3 
REMARK    6  A    between atoms: C_11  and  C_3 
REMARK    7  A    between atoms: C_8  and  C_4 
REMARK    8  A    between atoms: C_12  and  C_4 
REMARK    9  A    between atoms: N_53  and  C_5 
REMARK   10  A    between atoms: N_55  and  C_6 
REMARK   11  A    between atoms: N_57  and  C_7 
REMARK   12  A    between atoms: N_59  and  C_8 
REMARK   13  A    between atoms: N_61  and  C_9 
REMARK   14  A    between atoms: N_62  and  C_10 
REMARK   15  A    between atoms: N_63  and  C_11 
REMARK   16  A    between atoms: N_64  and  C_12 
REMARK   17  A    between atoms: C_38  and  C_27 
REMARK   18  A    between atoms: O_67  and  C_27 
REMARK   19  A    between atoms: C_39  and  C_28 
REMARK   20  A    between atoms: O_68  and  C_28 
REMARK   21  A    between atoms: C_33  and  C_29 
REMARK   22  A    between atoms: O_83  and  C_29 
REMARK   23  A    between atoms: C_33  and  C_30 
REMARK   24  A    between atoms: O_84  and  C_30 
REMARK   25  A    between atoms: C_46  and  C_31 
REMARK   26  A    between atoms: C_47  and  C_32 
REMARK   27  A    between atoms: N_52  and  C_33 
REMARK   28  A    between atoms: N_65  and  C_34 
REMARK   29  A    between atoms: N_66  and  C_35 
REMARK   30  A    between atoms: O_85  and  C_36 
REMARK   31  A    between atoms: O_86  and  C_37 
REMARK   32  A    between atoms: C_40  and  O_69 
REMARK   33  A    between atoms: O_70  and  C_41 
REMARK   34  A    between atoms: C_42  and  O_71 
REMARK   35  A    between atoms: O_72  and  C_43 
REMARK   36  A    between atoms: O_74  and  C_45 
REMARK   37  A    between atoms: O_75  and  C_46 
REMARK   38  A    between atoms: O_76  and  C_47 
REMARK   39  A    between atoms: C_48  and  O_85 
REMARK   40  A    between atoms: O_86  and  C_49 
REMARK   41  A    between atoms: O_77  and  C_50 
REMARK   42  A    between atoms: O_83  and  C_50 
REMARK   43  A    between atoms: O_78  and  C_51 
REMARK   44  A    between atoms: O_84  and  C_51 
ROOT
HETATM    1  C   UNK N   1       3.891  13.355  -0.098  0.00  0.00     0.179 C 
HETATM    2  C   UNK N   1       3.608  11.926   0.425  0.00  0.00     0.180 C 
HETATM    3  C   UNK N   1       4.654  10.978  -0.151  0.00  0.00     0.183 C 
HETATM    4  C   UNK N   1       6.038  11.496   0.179  0.00  0.00     0.205 C 
HETATM    5  C   UNK N   1       6.186  12.962  -0.301  0.00  0.00     0.298 C 
HETATM    6  O   UNK N   1       6.271  11.430   1.558  0.00  0.00    -0.388 OA
HETATM    7  O   UNK N   1       5.186  13.768   0.295  0.00  0.00    -0.348 OA
HETATM    8  H   UNK N   1       6.312  11.267   2.514  0.00  0.00     0.210 HD
ENDROOT
BRANCH   3   9
HETATM    9  O   UNK N   1       4.497   9.688   0.366  0.00  0.00    -0.390 OA
HETATM   10  H   UNK N   1       3.668   9.335   0.725  0.00  0.00     0.210 HD
ENDBRANCH   3   9
BRANCH   5  11
HETATM   11  O   UNK N   1       7.407  13.545   0.021  0.00  0.00    -0.318 OA
BRANCH  11  12
HETATM   12  C   UNK N   1       8.637  12.976   0.044  0.00  0.00     0.075 A 
HETATM   13  C   UNK N   1       9.726  13.765  -0.263  0.00  0.00     0.052 A 
HETATM   14  C   UNK N   1      10.998  13.200  -0.338  0.00  0.00     0.019 A 
HETATM   15  C   UNK N   1      11.194  11.856  -0.045  0.00  0.00     0.052 A 
HETATM   16  C   UNK N   1      10.111  11.043   0.231  0.00  0.00     0.106 A 
HETATM   17  C   UNK N   1       8.842  11.608   0.252  0.00  0.00     0.073 A 
BRANCH  14  18
HETATM   18  C   UNK N   1      11.937  13.807  -1.279  0.00  0.00     0.146 C 
HETATM   19  N   UNK N   1      13.192  13.497  -1.342  0.00  0.00    -0.370 N 
ATOM     20  HN  UNK N   1      13.725  13.830  -2.145  1.00  0.00     0.161 HD
BRANCH  19  21
HETATM   21  C   UNK N   1      13.885  12.712  -0.351  0.00  0.00     0.123 C 
BRANCH  21  22
HETATM   22  C   UNK N   1      14.464  13.662   0.702  0.00  0.00     0.050 C 
BRANCH  22  23
HETATM   23  C   UNK N   1      13.341  14.433   1.422  0.00  0.00     0.274 C 
BRANCH  23  24
HETATM   24  N   UNK N   1      13.115  15.814   0.960  0.00  0.00     0.091 N 
HETATM   25  C   UNK N   1      13.444  16.022  -0.474  0.00  0.00     0.291 C 
HETATM   26  C   UNK N   1      12.722  17.207  -1.091  0.00  0.00     0.147 C 
HETATM   27  N   UNK N   1      12.456  18.096   0.010  0.00  0.00    -0.409 N 
HETATM   28  C   UNK N   1      11.371  17.609   0.841  0.00  0.00     0.147 C 
HETATM   29  C   UNK N   1      11.713  16.164   1.268  0.00  0.00     0.291 C 
BRANCH  27  30
HETATM   30  C   UNK N   1      12.500  19.490  -0.349  0.00  0.00     0.118 C 
BRANCH  30  31
HETATM   31  C   UNK N   1      13.871  20.022   0.073  0.00  0.00     0.039 C 
BRANCH  31  32
HETATM   32  C   UNK N   1      15.038  19.076  -0.269  0.00  0.00     0.125 C 
BRANCH  32  33
HETATM   33  N   UNK N   1      15.162  18.021   0.723  0.00  0.00    -0.350 N 
HETATM   34  C   UNK N   1      16.059  17.075   0.762  0.00  0.00     0.258 C 
ATOM     35  HN  UNK N   1      14.470  18.020   1.472  1.00  0.00     0.163 HD
BRANCH  34  36
HETATM   36  O   UNK N   1      15.963  16.143   1.726  0.00  0.00    -0.327 OA
HETATM   37  H   UNK N   1      15.367  15.876   2.398  0.00  0.00     0.221 HD
ENDBRANCH  34  36
BRANCH  34  38
HETATM   38  O   UNK N   1      17.091  16.963  -0.123  0.00  0.00    -0.315 OA
BRANCH  38  39
HETATM   39  C   UNK N   1      17.481  17.912  -1.032  0.00  0.00     0.206 C 
BRANCH  39  40
HETATM   40  C   UNK N   1      18.070  19.132  -0.336  0.00  0.00     0.123 C 
BRANCH  40  41
HETATM   41  C   UNK N   1      17.931  20.244  -1.351  0.00  0.00     0.206 C 
BRANCH  41  42
HETATM   42  O   UNK N   1      18.140  21.502  -0.847  0.00  0.00    -0.315 OA
BRANCH  42  43
HETATM   43  C   UNK N   1      17.143  22.242  -0.306  0.00  0.00     0.258 C 
HETATM   44  N   UNK N   1      17.128  23.504  -0.531  0.00  0.00    -0.350 N 
ATOM     45  HN  UNK N   1      17.843  23.887  -1.151  1.00  0.00     0.163 HD
BRANCH  44  46
HETATM   46  C   UNK N   1      16.169  24.417   0.034  0.00  0.00     0.125 C 
BRANCH  46  47
HETATM   47  C   UNK N   1      16.882  25.375   0.990  0.00  0.00     0.050 C 
BRANCH  47  48
HETATM   48  C   UNK N   1      18.037  26.179   0.354  0.00  0.00     0.274 C 
BRANCH  48  49
HETATM   49  N   UNK N   1      19.077  25.339  -0.252  0.00  0.00     0.091 N 
HETATM   50  C   UNK N   1      20.191  26.190  -0.705  0.00  0.00     0.302 C 
HETATM   51  C   UNK N   1      21.381  26.216   0.276  0.00  0.00     0.302 C 
HETATM   52  N   UNK N   1      21.757  24.893   0.816  0.00  0.00     0.091 N 
HETATM   53  C   UNK N   1      20.890  23.813   0.387  0.00  0.00     0.302 C 
HETATM   54  C   UNK N   1      19.483  24.261   0.666  0.00  0.00     0.302 C 
BRANCH  52  55
HETATM   55  C   UNK N   1      23.146  24.529   0.567  0.00  0.00     0.274 C 
BRANCH  55  56
HETATM   56  C   UNK N   1      23.525  24.516  -0.913  0.00  0.00     0.050 C 
BRANCH  56  57
HETATM   57  C   UNK N   1      24.783  25.340  -1.050  0.00  0.00     0.123 C 
BRANCH  57  58
HETATM   58  N   UNK N   1      24.421  26.673  -0.698  0.00  0.00    -0.370 N 
HETATM   59  C   UNK N   1      24.679  27.213   0.441  0.00  0.00     0.146 C 
ATOM     60  HN  UNK N   1      23.927  27.234  -1.392  1.00  0.00     0.161 HD
BRANCH  59  61
HETATM   61  C   UNK N   1      24.187  28.542   0.614  0.00  0.00     0.019 A 
HETATM   62  C   UNK N   1      22.794  28.721   0.590  0.00  0.00     0.052 A 
HETATM   63  C   UNK N   1      22.230  29.872   0.040  0.00  0.00     0.106 A 
HETATM   64  C   UNK N   1      23.079  30.806  -0.533  0.00  0.00     0.073 A 
HETATM   65  C   UNK N   1      24.463  30.647  -0.458  0.00  0.00     0.075 A 
HETATM   66  C   UNK N   1      25.008  29.510   0.083  0.00  0.00     0.052 A 
BRANCH  63  67
HETATM   67  N   UNK N   1      20.822  30.080   0.030  0.00  0.00    -0.116 N 
HETATM   68  O   UNK N   1      20.359  31.027  -0.532  0.00  0.00    -0.532 OA
HETATM   69  O   UNK N   1      20.099  29.337   0.622  0.00  0.00    -0.532 OA
ENDBRANCH  63  67
BRANCH  65  70
HETATM   70  O   UNK N   1      25.290  31.602  -0.874  0.00  0.00    -0.318 OA
BRANCH  70  71
HETATM   71  C   UNK N   1      25.437  32.764  -0.155  0.00  0.00     0.298 C 
HETATM   72  C   UNK N   1      24.128  33.614  -0.197  0.00  0.00     0.205 C 
HETATM   73  C   UNK N   1      24.362  35.017   0.321  0.00  0.00     0.183 C 
HETATM   74  C   UNK N   1      25.618  35.616  -0.299  0.00  0.00     0.180 C 
HETATM   75  C   UNK N   1      26.777  34.640  -0.026  0.00  0.00     0.179 C 
HETATM   76  O   UNK N   1      26.520  33.453  -0.741  0.00  0.00    -0.348 OA
BRANCH  72  77
HETATM   77  O   UNK N   1      23.127  33.072   0.614  0.00  0.00    -0.388 OA
HETATM   78  H   UNK N   1      22.454  33.486   1.177  0.00  0.00     0.210 HD
ENDBRANCH  72  77
BRANCH  73  79
HETATM   79  O   UNK N   1      23.243  35.806   0.039  0.00  0.00    -0.390 OA
HETATM   80  H   UNK N   1      23.329  36.752  -0.157  0.00  0.00     0.210 HD
ENDBRANCH  73  79
BRANCH  74  81
HETATM   81  O   UNK N   1      25.857  36.863   0.279  0.00  0.00    -0.390 OA
HETATM   82  H   UNK N   1      26.691  37.152   0.682  0.00  0.00     0.210 HD
ENDBRANCH  74  81
BRANCH  75  83
HETATM   83  C   UNK N   1      28.117  35.185  -0.493  0.00  0.00     0.198 C 
BRANCH  83  84
HETATM   84  O   UNK N   1      28.537  36.218   0.345  0.00  0.00    -0.398 OA
HETATM   85  H   UNK N   1      29.305  36.324   0.928  0.00  0.00     0.209 HD
ENDBRANCH  83  84
ENDBRANCH  75  83
ENDBRANCH  70  71
ENDBRANCH  65  70
ENDBRANCH  59  61
BRANCH  59  86
HETATM   86  O   UNK N   1      25.415  26.588   1.383  0.00  0.00    -0.346 OA
HETATM   87  H   UNK N   1      25.295  25.928   2.037  0.00  0.00     0.219 HD
ENDBRANCH  59  86
ENDBRANCH  57  58
ENDBRANCH  56  57
ENDBRANCH  55  56
ENDBRANCH  52  55
ENDBRANCH  48  49
ENDBRANCH  47  48
ENDBRANCH  46  47
ENDBRANCH  44  46
BRANCH  43  88
HETATM   88  O   UNK N   1      16.197  21.673   0.467  0.00  0.00    -0.327 OA
HETATM   89  H   UNK N   1      15.525  22.045   1.004  0.00  0.00     0.221 HD
ENDBRANCH  43  88
ENDBRANCH  42  43
ENDBRANCH  41  42
ENDBRANCH  40  41
BRANCH  40  90
HETATM   90  N   UNK N   1      19.462  18.898   0.005  0.00  0.00    -0.422 N 
HETATM   91  H   UNK N   1      19.809  17.969   0.244  0.00  0.00     0.150 HD
HETATM   92  H   UNK N   1      20.111  19.684   0.005  0.00  0.00     0.150 HD
ENDBRANCH  40  90
ENDBRANCH  39  40
ENDBRANCH  38  39
ENDBRANCH  34  38
ENDBRANCH  32  33
ENDBRANCH  31  32
ENDBRANCH  30  31
ENDBRANCH  27  30
ENDBRANCH  23  24
ENDBRANCH  22  23
ENDBRANCH  21  22
ENDBRANCH  19  21
BRANCH  18  93
HETATM   93  O   UNK N   1      11.438  14.681  -2.175  0.00  0.00    -0.346 OA
HETATM   94  H   UNK N   1      11.791  15.285  -2.799  0.00  0.00     0.219 HD
ENDBRANCH  18  93
ENDBRANCH  14  18
BRANCH  16  95
HETATM   95  N   UNK N   1      10.286   9.636   0.239  0.00  0.00    -0.116 N 
HETATM   96  O   UNK N   1       9.347   8.928  -0.003  0.00  0.00    -0.532 OA
HETATM   97  O   UNK N   1      11.378   9.168   0.255  0.00  0.00    -0.532 OA
ENDBRANCH  16  95
ENDBRANCH  11  12
ENDBRANCH   5  11
BRANCH   2  98
HETATM   98  O   UNK N   1       2.339  11.492   0.040  0.00  0.00    -0.390 OA
HETATM   99  H   UNK N   1       1.636  12.105  -0.228  0.00  0.00     0.210 HD
ENDBRANCH   2  98
BRANCH   1 100
HETATM  100  C   UNK N   1       2.906  14.359   0.490  0.00  0.00     0.198 C 
BRANCH 100 101
HETATM  101  O   UNK N   1       1.619  14.141  -0.001  0.00  0.00    -0.398 OA
HETATM  102  H   UNK N   1       1.040  14.841  -0.343  0.00  0.00     0.209 HD
ENDBRANCH 100 101
ENDBRANCH   1 100
TORSDOF 44
