REMARK  9 active torsions:
REMARK  status: ('A' for Active; 'I' for Inactive)
REMARK    1  A    between atoms: C_4  and  C_3 
REMARK    2  A    between atoms: O_13  and  C_3 
REMARK    3  A    between atoms: O_14  and  C_5 
REMARK    4  A    between atoms: C_6  and  O_15 
REMARK    5  A    between atoms: C_7  and  O_21 
REMARK    6  A    between atoms: C_8  and  N_12 
REMARK    7  A    between atoms: P_22  and  O_17 
REMARK    8  A    between atoms: P_22  and  O_18 
REMARK    9  A    between atoms: P_22  and  O_21 
ROOT
HETATM    1  C   UNK N   1       4.160  -0.381  -0.739  0.00  0.00     0.180 C 
HETATM    2  C   UNK N   1       2.117  -0.283   0.285  0.00  0.00     0.199 C 
HETATM    3  C   UNK N   1       3.370   0.560   0.177  0.00  0.00     0.197 C 
HETATM    4  C   UNK N   1       2.758  -1.656   0.503  0.00  0.00     0.264 C 
HETATM    5  O   UNK N   1       3.848  -1.719  -0.396  0.00  0.00    -0.353 OA
ENDROOT
BRANCH   4   6
HETATM    6  N   UNK N   1       1.890  -2.852   0.351  0.00  0.00    -0.280 N 
HETATM    7  C   UNK N   1       2.520  -4.059   0.475  0.00  0.00     0.103 A 
HETATM    8  C   UNK N   1       1.823  -5.257   0.361  0.00  0.00     0.073 A 
HETATM    9  C   UNK N   1       0.458  -5.216   0.126  0.00  0.00     0.144 A 
HETATM   10  N   UNK N   1      -0.171  -4.023   0.010  0.00  0.00    -0.289 N 
HETATM   11  C   UNK N   1       0.516  -2.842   0.118  0.00  0.00     0.330 A 
ATOM     12  HN  UNK N   1      -1.177  -4.002  -0.160  1.00  0.00     0.172 HD
HETATM   13  O   UNK N   1      -0.104  -1.799   0.019  0.00  0.00    -0.246 OA
BRANCH   9  14
HETATM   14  O   UNK N   1      -0.241  -6.358   0.017  0.00  0.00    -0.346 OA
HETATM   15  H   UNK N   1      -1.175  -6.334  -0.059  0.00  0.00     0.219 HD
ENDBRANCH   9  14
ENDBRANCH   4   6
BRANCH   2  16
HETATM   16  O   UNK N   1       1.303   0.083   1.361  0.00  0.00    -0.388 OA
HETATM   17  H   UNK N   1       1.240   0.699   2.108  0.00  0.00     0.210 HD
ENDBRANCH   2  16
BRANCH   3  18
HETATM   18  O   UNK N   1       3.298   1.836  -0.444  0.00  0.00    -0.286 OA
BRANCH  18  19
HETATM   19  P   UNK N   1       1.866   2.763  -0.034  0.00  0.00     0.391 P 
HETATM   20  O   UNK N   1       0.643   2.112  -0.734  0.00  0.00    -0.632 OA
BRANCH  19  21
HETATM   21  O   UNK N   1       1.544   2.851   1.669  0.00  0.00    -0.307 OA
HETATM   22  H   UNK N   1       1.496   3.032   2.621  0.00  0.00     0.222 HD
ENDBRANCH  19  21
BRANCH  19  23
HETATM   23  O   UNK N   1       1.990   4.360  -0.703  0.00  0.00    -0.307 OA
HETATM   24  H   UNK N   1       2.798   4.746  -1.077  0.00  0.00     0.222 HD
ENDBRANCH  19  23
ENDBRANCH  18  19
ENDBRANCH   3  18
BRANCH   1  25
HETATM   25  C   UNK N   1       5.665  -0.138  -0.681  0.00  0.00     0.198 C 
BRANCH  25  26
HETATM   26  O   UNK N   1       6.173  -0.491   0.571  0.00  0.00    -0.398 OA
HETATM   27  H   UNK N   1       6.137  -0.919   1.441  0.00  0.00     0.209 HD
ENDBRANCH  25  26
ENDBRANCH   1  25
TORSDOF 9
