REMARK  5 active torsions:
REMARK  status: ('A' for Active; 'I' for Inactive)
REMARK    1  A    between atoms: O_1  and  C_2 
REMARK    2  A    between atoms: C_2  and  C_4 
REMARK    3  A    between atoms: C_4  and  P_5 
REMARK    4  A    between atoms: P_5  and  O_6 
REMARK    5  A    between atoms: P_5  and  O_7 
ROOT
HETATM    1  P   UNK N   1       1.343   0.502   0.103  0.00  0.00     0.245 P 
HETATM    2  O   UNK N   1      -0.020   1.150   0.472  0.00  0.00    -0.653 OA
ENDROOT
BRANCH   1   3
HETATM    3  C   UNK N   1       1.331  -1.370   0.207  0.00  0.00     0.234 C 
BRANCH   3   4
HETATM    4  C   UNK N   1       0.038  -2.022  -0.168  0.00  0.00     0.150 C 
HETATM    5  O   UNK N   1      -0.995  -1.694   0.388  0.00  0.00    -0.650 OA
BRANCH   4   6
HETATM    6  O   UNK N   1       0.041  -3.079  -1.003  0.00  0.00    -0.776 OA
HETATM    7  H   UNK N   1      -0.595  -3.449  -1.583  0.00  0.00     0.167 HD
ENDBRANCH   4   6
ENDBRANCH   3   4
ENDBRANCH   1   3
BRANCH   1   8
HETATM    8  O   UNK N   1       1.867   1.306  -1.348  0.00  0.00    -0.329 OA
HETATM    9  H   UNK N   1       2.401   1.277  -2.157  0.00  0.00     0.220 HD
ENDBRANCH   1   8
BRANCH   1  10
HETATM   10  O   UNK N   1       2.389   1.097   1.348  0.00  0.00    -0.329 OA
HETATM   11  H   UNK N   1       2.970   0.756   2.045  0.00  0.00     0.220 HD
ENDBRANCH   1  10
TORSDOF 5
