REMARK  3 active torsions:
REMARK  status: ('A' for Active; 'I' for Inactive)
REMARK    1  A    between atoms: O_1  and  C_2 
REMARK    2  A    between atoms: C_2  and  C_4 
REMARK    3  A    between atoms: C_10  and  O_11 
ROOT
HETATM    1  C   UNK N   1       1.286   0.509  -0.000  0.00  0.00     0.182 A 
HETATM    2  N   UNK N   1       0.729  -0.715   0.000  0.00  0.00    -0.231 N 
ATOM      3  HN  UNK N   1       1.217  -1.611  -0.000  1.00  0.00     0.197 HD
HETATM    4  O   UNK N   1      -0.564  -0.524   0.000  0.00  0.00    -0.154 OA
HETATM    5  N   UNK N   1      -0.892   0.740   0.000  0.00  0.00    -0.217 N 
ATOM      6  HN  UNK N   1      -1.834   1.131   0.000  1.00  0.00     0.199 HD
HETATM    7  C   UNK N   1       0.265   1.415   0.000  0.00  0.00     0.198 A 
ENDROOT
BRANCH   1   8
HETATM    8  C   UNK N   1       2.729   0.790  -0.000  0.00  0.00     0.200 C 
HETATM    9  O   UNK N   1       3.534  -0.126  -0.000  0.00  0.00    -0.645 OA
BRANCH   8  10
HETATM   10  O   UNK N   1       3.166   2.064  -0.000  0.00  0.00    -0.771 OA
HETATM   11  H   UNK N   1       4.086   2.244  -0.000  0.00  0.00     0.167 HD
ENDBRANCH   8  10
ENDBRANCH   1   8
BRANCH   7  12
HETATM   12  O   UNK N   1       0.371   2.754   0.000  0.00  0.00    -0.343 OA
HETATM   13  H   UNK N   1       1.217   3.158   0.000  0.00  0.00     0.219 HD
ENDBRANCH   7  12
TORSDOF 3
