REMARK  2 active torsions:
REMARK  status: ('A' for Active; 'I' for Inactive)
REMARK    1  A    between atoms: C_2  and  C_3 
REMARK    2  A    between atoms: C_3  and  O_5 
ROOT
HETATM    1  C   UNK N   1       1.013  -0.124   0.000  0.00  0.00     0.113 C 
HETATM    2  C   UNK N   1       1.869  -1.372  -0.000  0.00  0.00     0.039 C 
ENDROOT
BRANCH   1   3
HETATM    3  C   UNK N   1       1.643   1.264  -0.000  0.00  0.00     0.027 C 
HETATM    4  C   UNK N   1       0.601   2.367   0.000  0.00  0.00     0.007 C 
ENDBRANCH   1   3
BRANCH   1   5
HETATM    5  O   UNK N   1      -0.374  -0.274  -0.000  0.00  0.00    -0.396 OA
HETATM    6  H   UNK N   1      -0.947   0.509  -0.000  0.00  0.00     0.210 HD
ENDBRANCH   1   5
TORSDOF 2
