REMARK WARNING: 32 MAX_TORS EXCEEDED!!!
REMARK  33 active torsions:
REMARK  status: ('A' for Active; 'I' for Inactive)
REMARK    1  A    between atoms: C_8  and  C_6 
REMARK    2  A    between atoms: C_9  and  C_7 
REMARK    3  A    between atoms: C_10  and  C_8 
REMARK    4  A    between atoms: C_11  and  C_9 
REMARK    5  A    between atoms: C_12  and  C_10 
REMARK    6  A    between atoms: C_13  and  C_11 
REMARK    7  A    between atoms: C_14  and  C_12 
REMARK    8  A    between atoms: C_15  and  C_13 
REMARK    9  A    between atoms: C_16  and  C_14 
REMARK   10  A    between atoms: C_17  and  C_15 
REMARK   11  A    between atoms: C_18  and  C_16 
REMARK   12  A    between atoms: C_19  and  C_17 
REMARK   13  A    between atoms: C_20  and  C_18 
REMARK   14  A    between atoms: C_21  and  C_19 
REMARK   15  A    between atoms: C_22  and  C_20 
REMARK   16  A    between atoms: C_23  and  C_21 
REMARK   17  A    between atoms: C_24  and  C_22 
REMARK   18  A    between atoms: C_25  and  C_23 
REMARK   19  A    between atoms: C_31  and  C_24 
REMARK   20  A    between atoms: C_32  and  C_25 
REMARK   21  A    between atoms: C_27  and  C_26 
REMARK   22  A    between atoms: N_33  and  C_26 
REMARK   23  A    between atoms: O_39  and  C_27 
REMARK   24  A    between atoms: C_30  and  C_28 
REMARK   25  A    between atoms: O_38  and  C_28 
REMARK   26  A    between atoms: C_30  and  C_29 
REMARK   27  A    between atoms: O_40  and  C_29 
REMARK   28  A    between atoms: C_30  and  O_41 
REMARK   29  A    between atoms: O_38  and  C_31 
REMARK   30  A    between atoms: O_41  and  C_32 
REMARK   31  A    between atoms: P_42  and  O_37 
REMARK   32  A    between atoms: P_42  and  O_39 
REMARK   33  A    between atoms: P_42  and  O_40 
ROOT
HETATM    1  C   UNK N   1       0.424  -4.780   0.600  0.00  0.00     0.180 C 
ENDROOT
BRANCH   1   2
HETATM    2  C   UNK N   1      -0.680  -3.996   1.307  0.00  0.00     0.213 C 
BRANCH   2   3
HETATM    3  O   UNK N   1      -1.230  -3.002   0.516  0.00  0.00    -0.319 OA
BRANCH   3   4
HETATM    4  C   UNK N   1      -2.263  -3.169  -0.353  0.00  0.00     0.258 C 
HETATM    5  O   UNK N   1      -2.737  -2.188  -0.902  0.00  0.00    -0.265 OA
BRANCH   4   6
HETATM    6  C   UNK N   1      -2.819  -4.519  -0.694  0.00  0.00     0.111 C 
BRANCH   6   7
HETATM    7  C   UNK N   1      -3.325  -5.242   0.540  0.00  0.00     0.010 C 
BRANCH   7   8
HETATM    8  C   UNK N   1      -3.847  -6.619   0.161  0.00  0.00     0.000 C 
BRANCH   8   9
HETATM    9  C   UNK N   1      -5.181  -6.508  -0.560  0.00  0.00     0.000 C 
BRANCH   9  10
HETATM   10  C   UNK N   1      -6.219  -5.912   0.370  0.00  0.00     0.000 C 
BRANCH  10  11
HETATM   11  C   UNK N   1      -6.892  -4.745  -0.316  0.00  0.00     0.000 C 
BRANCH  11  12
HETATM   12  C   UNK N   1      -7.757  -4.016   0.692  0.00  0.00     0.000 C 
BRANCH  12  13
HETATM   13  C   UNK N   1      -9.057  -3.565   0.052  0.00  0.00     0.000 C 
BRANCH  13  14
HETATM   14  C   UNK N   1      -9.940  -4.771  -0.205  0.00  0.00    -0.000 C 
BRANCH  14  15
HETATM   15  C   UNK N   1     -11.392  -4.388  -0.035  0.00  0.00    -0.005 C 
HETATM   16  C   UNK N   1     -12.247  -5.633  -0.138  0.00  0.00     0.005 C 
ENDBRANCH  14  15
ENDBRANCH  13  14
ENDBRANCH  12  13
ENDBRANCH  11  12
ENDBRANCH  10  11
ENDBRANCH   9  10
ENDBRANCH   8   9
ENDBRANCH   7   8
ENDBRANCH   6   7
ENDBRANCH   4   6
ENDBRANCH   3   4
ENDBRANCH   2   3
ENDBRANCH   1   2
BRANCH   1  17
HETATM   17  C   UNK N   1      -0.203  -5.832  -0.306  0.00  0.00     0.215 C 
BRANCH  17  18
HETATM   18  O   UNK N   1       0.726  -6.761  -0.797  0.00  0.00    -0.294 OA
BRANCH  18  19
HETATM   19  P   UNK N   1       0.769  -8.087   0.350  0.00  0.00     0.393 P 
HETATM   20  O   UNK N   1      -0.481  -8.507  -0.476  0.00  0.00    -0.631 OA
BRANCH  19  21
HETATM   21  O   UNK N   1       1.119  -9.732  -0.089  0.00  0.00    -0.307 OA
HETATM   22  H   UNK N   1       0.422 -10.360  -0.334  0.00  0.00     0.222 HD
ENDBRANCH  19  21
BRANCH  19  23
HETATM   23  O   UNK N   1       2.143  -8.153  -0.715  0.00  0.00    -0.295 OA
BRANCH  23  24
HETATM   24  C   UNK N   1       3.267  -7.865   0.068  0.00  0.00     0.208 C 
BRANCH  24  25
HETATM   25  C   UNK N   1       4.499  -8.409  -0.651  0.00  0.00     0.262 C 
BRANCH  25  26
HETATM   26  N   UNK N   1       5.184  -9.475   0.082  0.00  0.00    -0.077 N 
HETATM   27  C   UNK N   1       4.280 -10.560   0.440  0.00  0.00     0.271 C 
HETATM   28  C   UNK N   1       5.815  -8.949   1.281  0.00  0.00     0.271 C 
HETATM   29  C   UNK N   1       6.219 -10.017  -0.779  0.00  0.00     0.271 C 
ENDBRANCH  25  26
ENDBRANCH  24  25
ENDBRANCH  23  24
ENDBRANCH  19  23
ENDBRANCH  18  19
ENDBRANCH  17  18
ENDBRANCH   1  17
BRANCH   1  30
HETATM   30  O   UNK N   1       1.211  -3.897  -0.117  0.00  0.00    -0.312 OA
BRANCH  30  31
HETATM   31  C   UNK N   1       2.532  -3.694   0.108  0.00  0.00     0.259 C 
HETATM   32  O   UNK N   1       3.195  -4.515   0.729  0.00  0.00    -0.265 OA
BRANCH  31  33
HETATM   33  C   UNK N   1       3.145  -2.397  -0.315  0.00  0.00     0.111 C 
BRANCH  33  34
HETATM   34  C   UNK N   1       4.386  -2.582  -1.166  0.00  0.00     0.010 C 
BRANCH  34  35
HETATM   35  C   UNK N   1       5.635  -2.419  -0.309  0.00  0.00     0.000 C 
BRANCH  35  36
HETATM   36  C   UNK N   1       6.020  -3.724   0.366  0.00  0.00     0.000 C 
BRANCH  36  37
HETATM   37  C   UNK N   1       6.534  -4.717  -0.664  0.00  0.00     0.000 C 
BRANCH  37  38
HETATM   38  C   UNK N   1       7.037  -5.976   0.019  0.00  0.00     0.000 C 
BRANCH  38  39
HETATM   39  C   UNK N   1       8.335  -5.700   0.759  0.00  0.00     0.000 C 
BRANCH  39  40
HETATM   40  C   UNK N   1       9.503  -5.706  -0.206  0.00  0.00     0.000 C 
BRANCH  40  41
HETATM   41  C   UNK N   1      10.615  -4.849   0.360  0.00  0.00    -0.000 C 
BRANCH  41  42
HETATM   42  C   UNK N   1      11.886  -5.077  -0.429  0.00  0.00    -0.005 C 
HETATM   43  C   UNK N   1      12.942  -4.093   0.025  0.00  0.00     0.005 C 
ENDBRANCH  41  42
ENDBRANCH  40  41
ENDBRANCH  39  40
ENDBRANCH  38  39
ENDBRANCH  37  38
ENDBRANCH  36  37
ENDBRANCH  35  36
ENDBRANCH  34  35
ENDBRANCH  33  34
ENDBRANCH  31  33
ENDBRANCH  30  31
ENDBRANCH   1  30
TORSDOF 33
