REMARK  11 active torsions:
REMARK  status: ('A' for Active; 'I' for Inactive)
REMARK    1  A    between atoms: C_2  and  N_3 
REMARK    2  A    between atoms: C_2  and  C_13 
REMARK    3  A    between atoms: N_3  and  C_4 
REMARK    4  A    between atoms: C_4  and  C_5 
REMARK    5  A    between atoms: C_5  and  C_6 
REMARK    6  A    between atoms: C_6  and  C_7 
REMARK    7  A    between atoms: C_7  and  C_8 
REMARK    8  A    between atoms: C_8  and  N_9 
REMARK    9  A    between atoms: C_8  and  C_10 
REMARK   10  A    between atoms: C_10  and  O_11 
REMARK   11  A    between atoms: C_13  and  O_14 
ROOT
HETATM    1  C   UNK N   1       7.825   2.543   0.000  0.00  0.00     0.019 C 
ENDROOT
BRANCH   1   2
HETATM    2  C   UNK N   1       9.051   3.431  -0.000  0.00  0.00     0.114 C 
BRANCH   2   3
HETATM    3  N   UNK N   1      10.250   2.603   0.000  0.00  0.00    -0.409 N 
HETATM    4  H   UNK N   1      10.240   1.583   0.000  0.00  0.00     0.154 HD
BRANCH   3   5
HETATM    5  C   UNK N   1      11.474   3.414  -0.000  0.00  0.00     0.171 C 
HETATM    6  C   UNK N   1      11.426   4.941   0.000  0.00  0.00     0.043 C 
BRANCH   5   7
HETATM    7  C   UNK N   1      12.785   2.688  -0.000  0.00  0.00     0.162 C 
HETATM    8  O   UNK N   1      12.812   1.467   0.000  0.00  0.00    -0.648 OA
BRANCH   7   9
HETATM    9  O   UNK N   1      13.940   3.380   0.000  0.00  0.00    -0.775 OA
HETATM   10  H   UNK N   1      14.759   2.925   0.000  0.00  0.00     0.167 HD
ENDBRANCH   7   9
ENDBRANCH   5   7
ENDBRANCH   3   5
ENDBRANCH   2   3
ENDBRANCH   1   2
BRANCH   1  11
HETATM   11  C   UNK N   1       6.573   3.395  -0.000  0.00  0.00     0.004 C 
BRANCH  11  12
HETATM   12  C   UNK N   1       5.352   2.491   0.000  0.00  0.00     0.035 C 
BRANCH  12  13
HETATM   13  C   UNK N   1       4.040   3.274  -0.000  0.00  0.00     0.173 C 
BRANCH  13  14
HETATM   14  N   UNK N   1       4.064   4.730   0.000  0.00  0.00    -0.418 N 
HETATM   15  H   UNK N   1       4.956   5.225   0.000  0.00  0.00     0.150 HD
HETATM   16  H   UNK N   1       3.190   5.254   0.000  0.00  0.00     0.150 HD
ENDBRANCH  13  14
BRANCH  13  17
HETATM   17  C   UNK N   1       2.705   2.595  -0.000  0.00  0.00     0.163 C 
HETATM   18  O   UNK N   1       2.638   1.377   0.000  0.00  0.00    -0.648 OA
BRANCH  17  19
HETATM   19  O   UNK N   1       1.574   3.326   0.000  0.00  0.00    -0.775 OA
HETATM   20  H   UNK N   1       1.621   4.262   0.000  0.00  0.00     0.167 HD
ENDBRANCH  17  19
ENDBRANCH  13  17
ENDBRANCH  12  13
ENDBRANCH  11  12
ENDBRANCH   1  11
TORSDOF 11
