REMARK  21 active torsions:
REMARK  status: ('A' for Active; 'I' for Inactive)
REMARK    1  A    between atoms: C_2  and  O_18 
REMARK    2  A    between atoms: C_17  and  C_20 
REMARK    3  A    between atoms: C_29  and  O_18 
REMARK    4  A    between atoms: C_20  and  C_22 
REMARK    5  A    between atoms: C_22  and  C_23 
REMARK    6  A    between atoms: C_23  and  C_24 
REMARK    7  A    between atoms: C_24  and  C_25 
REMARK    8  A    between atoms: C_30  and  C_29 
REMARK    9  A    between atoms: C_32  and  C_30 
REMARK   10  A    between atoms: C_33  and  C_32 
REMARK   11  A    between atoms: C_34  and  C_33 
REMARK   12  A    between atoms: C_35  and  C_34 
REMARK   13  A    between atoms: C_36  and  C_35 
REMARK   14  A    between atoms: C_37  and  C_36 
REMARK   15  A    between atoms: C_38  and  C_37 
REMARK   16  A    between atoms: C_40  and  C_39 
REMARK   17  A    between atoms: C_41  and  C_40 
REMARK   18  A    between atoms: C_43  and  C_42 
REMARK   19  A    between atoms: C_44  and  C_43 
REMARK   20  A    between atoms: C_45  and  C_44 
REMARK   21  A    between atoms: C_46  and  C_45 
ROOT
HETATM    1  C   UNK N   1      13.738  -8.415  -1.638  0.00  0.00     0.034 C 
HETATM    2  C   UNK N   1      13.447  -9.781  -0.982  0.00  0.00     0.136 C 
HETATM    3  C   UNK N   1      14.341 -10.166   0.202  0.00  0.00     0.067 C 
HETATM    4  C   UNK N   1      15.577  -9.354   0.220  0.00  0.00    -0.072 C 
HETATM    5  C   UNK N   1      15.457  -7.831   0.178  0.00  0.00    -0.017 C 
HETATM    6  C   UNK N   1      14.218  -7.383  -0.623  0.00  0.00     0.016 C 
HETATM    7  C   UNK N   1      16.757  -9.996   0.222  0.00  0.00    -0.023 C 
HETATM    8  C   UNK N   1      18.082  -9.286   0.215  0.00  0.00     0.033 C 
HETATM    9  C   UNK N   1      17.950  -7.781   0.461  0.00  0.00    -0.001 C 
HETATM   10  C   UNK N   1      16.769  -7.220  -0.387  0.00  0.00     0.003 C 
HETATM   11  C   UNK N   1      19.253  -7.069   0.109  0.00  0.00    -0.001 C 
HETATM   12  C   UNK N   1      19.116  -5.557   0.257  0.00  0.00    -0.036 C 
HETATM   13  C   UNK N   1      18.081  -5.048  -0.746  0.00  0.00     0.010 C 
HETATM   14  C   UNK N   1      16.717  -5.673  -0.397  0.00  0.00     0.007 C 
HETATM   15  C   UNK N   1      20.471  -7.399   0.979  0.00  0.00     0.006 C 
HETATM   16  C   UNK N   1      21.318  -6.108   0.972  0.00  0.00     0.006 C 
HETATM   17  C   UNK N   1      20.580  -5.162   0.022  0.00  0.00    -0.002 C 
HETATM   18  C   UNK N   1      18.660  -5.172   1.687  0.00  0.00     0.016 C 
HETATM   19  C   UNK N   1      15.197  -7.343   1.603  0.00  0.00     0.020 C 
ENDROOT
BRANCH   2  20
HETATM   20  O   UNK N   1      12.127  -9.963  -0.626  0.00  0.00    -0.316 OA
BRANCH  20  21
HETATM   21  C   UNK N   1      11.534  -9.418   0.472  0.00  0.00     0.259 C 
HETATM   22  O   UNK N   1      12.037  -8.464   1.053  0.00  0.00    -0.265 OA
BRANCH  21  23
HETATM   23  C   UNK N   1      10.325 -10.070   1.055  0.00  0.00     0.111 C 
BRANCH  23  24
HETATM   24  C   UNK N   1       9.604 -10.868  -0.020  0.00  0.00     0.010 C 
BRANCH  24  25
HETATM   25  C   UNK N   1       8.466 -10.088  -0.677  0.00  0.00     0.000 C 
BRANCH  25  26
HETATM   26  C   UNK N   1       8.740  -8.604  -0.884  0.00  0.00     0.000 C 
BRANCH  26  27
HETATM   27  C   UNK N   1       8.375  -7.843   0.383  0.00  0.00     0.000 C 
BRANCH  27  28
HETATM   28  C   UNK N   1       8.028  -6.402   0.056  0.00  0.00     0.004 C 
BRANCH  28  29
HETATM   29  C   UNK N   1       6.692  -6.337  -0.669  0.00  0.00     0.027 C 
BRANCH  29  30
HETATM   30  C   UNK N   1       5.559  -6.495   0.298  0.00  0.00    -0.030 C 
HETATM   31  C   UNK N   1       4.805  -7.600   0.351  0.00  0.00    -0.027 C 
BRANCH  31  32
HETATM   32  C   UNK N   1       5.049  -8.785  -0.532  0.00  0.00     0.053 C 
BRANCH  32  33
HETATM   33  C   UNK N   1       4.084  -9.876  -0.190  0.00  0.00    -0.027 C 
HETATM   34  C   UNK N   1       4.471 -11.087   0.232  0.00  0.00    -0.030 C 
BRANCH  34  35
HETATM   35  C   UNK N   1       5.906 -11.476   0.398  0.00  0.00     0.027 C 
BRANCH  35  36
HETATM   36  C   UNK N   1       6.148 -12.856  -0.186  0.00  0.00     0.004 C 
BRANCH  36  37
HETATM   37  C   UNK N   1       7.517 -13.352   0.249  0.00  0.00    -0.000 C 
BRANCH  37  38
HETATM   38  C   UNK N   1       7.838 -14.697  -0.379  0.00  0.00    -0.005 C 
HETATM   39  C   UNK N   1       7.034 -15.801   0.282  0.00  0.00     0.005 C 
ENDBRANCH  37  38
ENDBRANCH  36  37
ENDBRANCH  35  36
ENDBRANCH  34  35
ENDBRANCH  32  33
ENDBRANCH  31  32
ENDBRANCH  29  30
ENDBRANCH  28  29
ENDBRANCH  27  28
ENDBRANCH  26  27
ENDBRANCH  25  26
ENDBRANCH  24  25
ENDBRANCH  23  24
ENDBRANCH  21  23
ENDBRANCH  20  21
ENDBRANCH   2  20
BRANCH  17  40
HETATM   40  C   UNK N   1      20.990  -3.680   0.162  0.00  0.00    -0.014 C 
HETATM   41  C   UNK N   1      20.198  -2.832   1.145  0.00  0.00     0.010 C 
BRANCH  40  42
HETATM   42  C   UNK N   1      21.110  -2.983  -1.183  0.00  0.00     0.005 C 
BRANCH  42  43
HETATM   43  C   UNK N   1      22.520  -3.240  -1.708  0.00  0.00     0.001 C 
BRANCH  43  44
HETATM   44  C   UNK N   1      23.563  -2.198  -1.272  0.00  0.00     0.004 C 
BRANCH  44  45
HETATM   45  C   UNK N   1      23.307  -1.540   0.082  0.00  0.00    -0.023 C 
HETATM   46  C   UNK N   1      24.598  -0.966   0.623  0.00  0.00     0.009 C 
HETATM   47  C   UNK N   1      22.310  -0.406  -0.080  0.00  0.00     0.009 C 
ENDBRANCH  44  45
ENDBRANCH  43  44
ENDBRANCH  42  43
ENDBRANCH  40  42
ENDBRANCH  17  40
TORSDOF 21
