REMARK  12 active torsions:
REMARK  status: ('A' for Active; 'I' for Inactive)
REMARK    1  A    between atoms: C_4  and  C_1 
REMARK    2  A    between atoms: O_26  and  C_1 
REMARK    3  A    between atoms: C_6  and  O_19 
REMARK    4  A    between atoms: C_7  and  O_28 
REMARK    5  A    between atoms: N_11  and  C_8 
REMARK    6  A    between atoms: C_10  and  N_18 
REMARK    7  A    between atoms: P_29  and  O_20 
REMARK    8  A    between atoms: P_29  and  O_21 
REMARK    9  A    between atoms: P_30  and  O_23 
REMARK   10  A    between atoms: P_30  and  O_24 
REMARK   11  A    between atoms: P_29  and  O_26 
REMARK   12  A    between atoms: P_30  and  O_28 
ROOT
HETATM    1  C   UNK N   1      -0.582  -1.402  -1.019  0.00  0.00     0.180 C 
HETATM    2  C   UNK N   1       0.689  -2.150  -0.657  0.00  0.00     0.183 C 
HETATM    3  C   UNK N   1       1.640  -0.968  -0.655  0.00  0.00     0.214 C 
HETATM    4  C   UNK N   1       0.752   0.004   0.143  0.00  0.00     0.263 C 
HETATM    5  O   UNK N   1      -0.605  -0.243  -0.214  0.00  0.00    -0.353 OA
ENDROOT
BRANCH   4   6
HETATM    6  N   UNK N   1       1.103   1.416  -0.076  0.00  0.00    -0.297 N 
HETATM    7  C   UNK N   1       0.246   2.400  -0.461  0.00  0.00     0.188 A 
HETATM    8  N   UNK N   1       0.874   3.605  -0.549  0.00  0.00    -0.346 N 
HETATM    9  C   UNK N   1       2.150   3.342  -0.214  0.00  0.00     0.122 A 
ATOM     10  HN  UNK N   1       0.469   4.504  -0.810  1.00  0.00     0.167 HD
HETATM   11  C   UNK N   1       3.242   4.191  -0.142  0.00  0.00     0.131 A 
HETATM   12  C   UNK N   1       2.286   2.032   0.073  0.00  0.00     0.142 A 
HETATM   13  N   UNK N   1       4.448   3.655   0.214  0.00  0.00    -0.337 N 
HETATM   14  C   UNK N   1       4.567   2.316   0.499  0.00  0.00     0.183 A 
ATOM     15  HN  UNK N   1       5.269   4.256   0.268  1.00  0.00     0.168 HD
HETATM   16  N   UNK N   1       3.476   1.493   0.436  0.00  0.00    -0.336 N 
ATOM     17  HN  UNK N   1       3.555   0.500   0.656  1.00  0.00     0.168 HD
BRANCH  11  18
HETATM   18  N   UNK N   1       3.124   5.566  -0.428  0.00  0.00    -0.383 N 
HETATM   19  H   UNK N   1       3.914   6.118  -0.628  0.00  0.00     0.157 HD
HETATM   20  H   UNK N   1       2.232   5.983  -0.428  0.00  0.00     0.157 HD
ENDBRANCH  11  18
ENDBRANCH   4   6
BRANCH   3  21
HETATM   21  O   UNK N   1       2.906  -1.063  -0.018  0.00  0.00    -0.284 OA
BRANCH  21  22
HETATM   22  P   UNK N   1       3.634  -2.655   0.049  0.00  0.00     0.391 P 
HETATM   23  O   UNK N   1       2.947  -3.456   1.188  0.00  0.00    -0.632 OA
BRANCH  22  24
HETATM   24  O   UNK N   1       3.545  -3.573  -1.420  0.00  0.00    -0.307 OA
HETATM   25  H   UNK N   1       3.075  -3.786  -2.241  0.00  0.00     0.222 HD
ENDBRANCH  22  24
BRANCH  22  26
HETATM   26  O   UNK N   1       5.296  -2.494   0.523  0.00  0.00    -0.307 OA
HETATM   27  H   UNK N   1       5.838  -3.253   0.787  0.00  0.00     0.222 HD
ENDBRANCH  22  26
ENDBRANCH  21  22
ENDBRANCH   3  21
BRANCH   2  28
HETATM   28  O   UNK N   1       0.987  -3.118  -1.616  0.00  0.00    -0.390 OA
HETATM   29  H   UNK N   1       0.508  -3.635  -2.283  0.00  0.00     0.210 HD
ENDBRANCH   2  28
BRANCH   1  30
HETATM   30  C   UNK N   1      -1.841  -2.251  -0.871  0.00  0.00     0.215 C 
BRANCH  30  31
HETATM   31  O   UNK N   1      -2.056  -2.637   0.453  0.00  0.00    -0.294 OA
BRANCH  31  32
HETATM   32  P   UNK N   1      -3.745  -2.326   0.724  0.00  0.00     0.390 P 
HETATM   33  O   UNK N   1      -4.104  -2.961   2.093  0.00  0.00    -0.632 OA
BRANCH  32  34
HETATM   34  O   UNK N   1      -4.753  -3.099  -0.461  0.00  0.00    -0.307 OA
HETATM   35  H   UNK N   1      -5.408  -2.828  -1.123  0.00  0.00     0.222 HD
ENDBRANCH  32  34
BRANCH  32  36
HETATM   36  O   UNK N   1      -4.077  -0.628   0.850  0.00  0.00    -0.307 OA
HETATM   37  H   UNK N   1      -3.348   0.008   0.920  0.00  0.00     0.222 HD
ENDBRANCH  32  36
ENDBRANCH  31  32
ENDBRANCH  30  31
ENDBRANCH   1  30
TORSDOF 12
