REMARK  14 active torsions:
REMARK  status: ('A' for Active; 'I' for Inactive)
REMARK    1  A    between atoms: C_4  and  N_32 
REMARK    2  A    between atoms: C_13  and  N_9 
REMARK    3  A    between atoms: C_14  and  O_31 
REMARK    4  A    between atoms: C_15  and  O_30 
REMARK    5  A    between atoms: C_16  and  C_18 
REMARK    6  A    between atoms: C_18  and  O_19 
REMARK    7  A    between atoms: W_20  and  O_19 
REMARK    8  A    between atoms: W_20  and  O_21 
REMARK    9  A    between atoms: W_20  and  O_23 
REMARK   10  A    between atoms: W_20  and  O_24 
REMARK   11  A    between atoms: O_24  and  W_25 
REMARK   12  A    between atoms: W_25  and  O_26 
REMARK   13  A    between atoms: W_25  and  O_28 
REMARK   14  A    between atoms: W_25  and  O_29 
ROOT
HETATM    1  C   UNK N   1      -1.520  -1.564   0.643  0.00  0.00     0.262 C 
HETATM    2  C   UNK N   1      -2.514  -1.333  -0.474  0.00  0.00     0.198 C 
HETATM    3  C   UNK N   1      -2.789   0.105  -0.234  0.00  0.00     0.182 C 
HETATM    4  C   UNK N   1      -1.388   0.611   0.050  0.00  0.00     0.182 C 
HETATM    5  O   UNK N   1      -0.722  -0.404   0.766  0.00  0.00    -0.353 OA
ENDROOT
BRANCH   1   6
HETATM    6  N   UNK N   1      -0.711  -2.763   0.413  0.00  0.00    -0.297 N 
HETATM    7  C   UNK N   1       0.621  -2.882   0.297  0.00  0.00     0.142 A 
HETATM    8  C   UNK N   1       0.939  -4.181   0.137  0.00  0.00     0.122 A 
HETATM    9  N   UNK N   1       1.558  -1.904   0.338  0.00  0.00    -0.336 N 
HETATM   10  C   UNK N   1       2.264  -4.564   0.012  0.00  0.00     0.131 A 
HETATM   11  N   UNK N   1      -0.178  -4.930   0.140  0.00  0.00    -0.346 N 
HETATM   12  N   UNK N   1       3.219  -3.588   0.051  0.00  0.00    -0.337 N 
HETATM   13  C   UNK N   1       2.873  -2.267   0.210  0.00  0.00     0.183 A 
ATOM     14  HN  UNK N   1       4.203  -3.842  -0.040  1.00  0.00     0.168 HD
HETATM   15  C   UNK N   1      -1.187  -4.031   0.315  0.00  0.00     0.188 A 
ATOM     16  HN  UNK N   1      -0.253  -5.942   0.036  1.00  0.00     0.167 HD
ATOM     17  HN  UNK N   1       1.293  -0.927   0.462  1.00  0.00     0.168 HD
BRANCH  10  18
HETATM   18  N   UNK N   1       2.625  -5.918  -0.141  0.00  0.00    -0.383 N 
HETATM   19  H   UNK N   1       1.932  -6.609  -0.249  0.00  0.00     0.157 HD
HETATM   20  H   UNK N   1       3.575  -6.174  -0.141  0.00  0.00     0.157 HD
ENDBRANCH  10  18
ENDBRANCH   1   6
BRANCH   2  21
HETATM   21  O   UNK N   1      -3.665  -2.098  -0.289  0.00  0.00    -0.388 OA
HETATM   22  H   UNK N   1      -4.526  -1.671  -0.160  0.00  0.00     0.210 HD
ENDBRANCH   2  21
BRANCH   3  23
HETATM   23  O   UNK N   1      -3.394   0.726  -1.330  0.00  0.00    -0.390 OA
HETATM   24  H   UNK N   1      -3.230   1.305  -2.091  0.00  0.00     0.210 HD
ENDBRANCH   3  23
BRANCH   4  25
HETATM   25  C   UNK N   1      -0.588   0.931  -1.205  0.00  0.00     0.244 C 
BRANCH  25  26
HETATM   26  O   UNK N   1      -0.495   2.315  -1.333  0.00  0.00    -0.238 OA
BRANCH  26  27
HETATM   27  W   UNK N   1       0.837   2.859   0.065  0.00  0.00     0.000 W 
BRANCH  27  28
HETATM   28  O   UNK N   1       2.153   2.724  -1.143  0.00  0.00    -0.253 OA
ATOM     29  HO  UNK N   1       2.784   2.982  -0.481  1.00  0.00     0.253 HD
ENDBRANCH  27  28
BRANCH  27  30
HETATM   30  O   UNK N   1      -0.620   3.003   1.433  0.00  0.00    -0.253 OA
HETATM   31  H   UNK N   1      -0.912   3.649   2.095  0.00  0.00     0.253 HD
ENDBRANCH  27  30
BRANCH  27  32
HETATM   32  O   UNK N   1       0.570   4.781  -0.443  0.00  0.00     0.000 OA
BRANCH  32  33
HETATM   33  W   UNK N   1      -0.992   5.416   0.642  0.00  0.00     0.000 W 
BRANCH  33  34
HETATM   34  O   UNK N   1      -1.147   6.847  -0.422  0.00  0.00    -0.253 OA
ATOM     35  HO  UNK N   1      -1.887   7.148   0.092  1.00  0.00     0.253 HD
ENDBRANCH  33  34
BRANCH  33  36
HETATM   36  O   UNK N   1       0.253   6.433   1.834  0.00  0.00    -0.253 OA
HETATM   37  H   UNK N   1       0.981   6.157   2.412  0.00  0.00     0.253 HD
ENDBRANCH  33  36
BRANCH  33  38
HETATM   38  O   UNK N   1      -2.244   4.403  -0.547  0.00  0.00    -0.253 OA
HETATM   39  H   UNK N   1      -2.972   4.683  -1.123  0.00  0.00     0.253 HD
ENDBRANCH  33  38
ENDBRANCH  32  33
ENDBRANCH  27  32
ENDBRANCH  26  27
ENDBRANCH  25  26
ENDBRANCH   4  25
TORSDOF 14
