REMARK  13 active torsions:
REMARK  status: ('A' for Active; 'I' for Inactive)
REMARK    1  A    between atoms: C_4  and  C_1 
REMARK    2  A    between atoms: O_8  and  C_1 
REMARK    3  A    between atoms: C_4  and  C_2 
REMARK    4  A    between atoms: O_14  and  C_2 
REMARK    5  A    between atoms: C_5  and  C_3 
REMARK    6  A    between atoms: O_15  and  C_3 
REMARK    7  A    between atoms: C_4  and  O_9 
REMARK    8  A    between atoms: C_6  and  C_5 
REMARK    9  A    between atoms: C_5  and  N_7 
REMARK   10  A    between atoms: O_11  and  C_6 
REMARK   11  A    between atoms: P_16  and  O_12 
REMARK   12  A    between atoms: P_16  and  O_14 
REMARK   13  A    between atoms: P_16  and  O_15 
ROOT
HETATM    1  O   UNK N   1       0.331   1.433  -0.352  0.00  0.00    -0.631 OA
HETATM    2  P   UNK N   1      -0.071   0.005   0.114  0.00  0.00     0.393 P 
ENDROOT
BRANCH   2   3
HETATM    3  O   UNK N   1      -0.781  -0.886  -1.201  0.00  0.00    -0.307 OA
HETATM    4  H   UNK N   1      -1.410  -0.791  -1.934  0.00  0.00     0.222 HD
ENDBRANCH   2   3
BRANCH   2   5
HETATM    5  O   UNK N   1      -1.596   0.705  -0.360  0.00  0.00    -0.294 OA
BRANCH   5   6
HETATM    6  C   UNK N   1      -2.202   1.146   0.825  0.00  0.00     0.214 C 
BRANCH   6   7
HETATM    7  C   UNK N   1      -3.674   1.466   0.595  0.00  0.00     0.166 C 
BRANCH   7   8
HETATM    8  C   UNK N   1      -3.830   2.519  -0.495  0.00  0.00     0.198 C 
BRANCH   8   9
HETATM    9  O   UNK N   1      -5.177   2.841  -0.670  0.00  0.00    -0.398 OA
HETATM   10  H   UNK N   1      -5.451   3.763  -0.792  0.00  0.00     0.209 HD
ENDBRANCH   8   9
ENDBRANCH   7   8
BRANCH   7  11
HETATM   11  O   UNK N   1      -4.358   0.303   0.237  0.00  0.00    -0.391 OA
HETATM   12  H   UNK N   1      -5.295   0.311  -0.013  0.00  0.00     0.210 HD
ENDBRANCH   7  11
ENDBRANCH   6   7
ENDBRANCH   5   6
ENDBRANCH   2   5
BRANCH   2  13
HETATM   13  O   UNK N   1       1.168  -0.270  -1.084  0.00  0.00    -0.294 OA
BRANCH  13  14
HETATM   14  C   UNK N   1       1.909  -1.399  -0.693  0.00  0.00     0.216 C 
BRANCH  14  15
HETATM   15  C   UNK N   1       3.111  -1.043   0.185  0.00  0.00     0.198 C 
BRANCH  15  16
HETATM   16  C   UNK N   1       4.088  -2.189   0.164  0.00  0.00     0.165 C 
HETATM   17  O   UNK N   1       5.232  -2.025  -0.234  0.00  0.00    -0.648 OA
BRANCH  16  18
HETATM   18  O   UNK N   1       3.701  -3.410   0.579  0.00  0.00    -0.775 OA
HETATM   19  H   UNK N   1       2.830  -3.602   0.868  0.00  0.00     0.167 HD
ENDBRANCH  16  18
ENDBRANCH  15  16
BRANCH  15  20
HETATM   20  N   UNK N   1       3.746   0.175  -0.301  0.00  0.00    -0.416 N 
HETATM   21  H   UNK N   1       4.707   0.216  -0.641  0.00  0.00     0.150 HD
HETATM   22  H   UNK N   1       3.199   1.036  -0.301  0.00  0.00     0.150 HD
ENDBRANCH  15  20
ENDBRANCH  14  15
ENDBRANCH  13  14
ENDBRANCH   2  13
TORSDOF 13
