REMARK  2 active torsions:
REMARK  status: ('A' for Active; 'I' for Inactive)
REMARK    1  A    between atoms: C_2  and  N_1 
REMARK    2  A    between atoms: C_4  and  C_5 
ROOT
HETATM    1  C   UNK N   1       1.690  -0.351   0.143  0.00  0.00     0.192 A 
HETATM    2  C   UNK N   1       2.209  -1.700  -0.294  0.00  0.00     0.045 A 
HETATM    3  C   UNK N   1       1.201  -1.631   0.845  0.00  0.00     0.051 A 
ENDROOT
BRANCH   3   4
HETATM    4  C   UNK N   1      -0.103  -2.229   0.392  0.00  0.00    -0.052 A 
HETATM    5  C   UNK N   1      -0.156  -3.574  -0.010  0.00  0.00     0.007 A 
HETATM    6  C   UNK N   1      -1.368  -4.152  -0.389  0.00  0.00     0.001 A 
HETATM    7  C   UNK N   1      -2.543  -3.393  -0.366  0.00  0.00     0.000 A 
HETATM    8  C   UNK N   1      -2.502  -2.057   0.044  0.00  0.00     0.001 A 
HETATM    9  C   UNK N   1      -1.291  -1.480   0.431  0.00  0.00     0.007 A 
ENDBRANCH   3   4
BRANCH   1  10
HETATM   10  N   UNK N   1       0.760   0.150  -0.856  0.00  0.00    -0.074 N 
HETATM   11  H   UNK N   1       0.738   0.891  -1.558  0.00  0.00     0.274 HD
HETATM   12  H   UNK N   1      -0.108  -0.386  -0.856  0.00  0.00     0.274 HD
HETATM   13  H   UNK N   1      -0.028   0.332  -1.478  0.00  0.00     0.274 HD
ENDBRANCH   1  10
TORSDOF 2
