REMARK  22 active torsions:
REMARK  status: ('A' for Active; 'I' for Inactive)
REMARK    1  A    between atoms: C_3  and  C_2 
REMARK    2  A    between atoms: C_7  and  C_3 
REMARK    3  A    between atoms: C_14  and  C_7 
REMARK    4  A    between atoms: N_28  and  C_14 
REMARK    5  A    between atoms: C_18  and  C_15 
REMARK    6  A    between atoms: C_20  and  C_15 
REMARK    7  A    between atoms: C_17  and  C_16 
REMARK    8  A    between atoms: C_21  and  C_16 
REMARK    9  A    between atoms: O_41  and  C_19 
REMARK   10  A    between atoms: C_23  and  C_20 
REMARK   11  A    between atoms: C_20  and  N_30 
REMARK   12  A    between atoms: C_24  and  C_21 
REMARK   13  A    between atoms: C_21  and  N_32 
REMARK   14  A    between atoms: C_25  and  C_22 
REMARK   15  A    between atoms: C_26  and  C_22 
REMARK   16  A    between atoms: O_41  and  C_22 
REMARK   17  A    between atoms: O_33  and  C_23 
REMARK   18  A    between atoms: O_35  and  C_24 
REMARK   19  A    between atoms: O_37  and  C_25 
REMARK   20  A    between atoms: O_39  and  C_26 
REMARK   21  A    between atoms: N_32  and  C_27 
REMARK   22  A    between atoms: C_27  and  O_40 
ROOT
HETATM    1  C   UNK N   1       5.703   4.220   0.586  0.00  0.00     0.163 C 
ENDROOT
BRANCH   1   2
HETATM    2  C   UNK N   1       6.885   4.570  -0.353  0.00  0.00     0.072 C 
BRANCH   2   3
HETATM    3  C   UNK N   1       6.965   6.055  -0.515  0.00  0.00    -0.056 A 
HETATM    4  C   UNK N   1       7.508   6.854   0.496  0.00  0.00     0.010 A 
HETATM    5  C   UNK N   1       7.322   8.239   0.461  0.00  0.00     0.037 A 
HETATM    6  C   UNK N   1       6.551   8.821  -0.550  0.00  0.00     0.070 A 
HETATM    7  C   UNK N   1       6.059   8.024  -1.591  0.00  0.00     0.037 A 
HETATM    8  C   UNK N   1       6.264   6.647  -1.571  0.00  0.00     0.010 A 
BRANCH   6   9
HETATM    9  O   UNK N   1       6.263  10.141  -0.467  0.00  0.00    -0.325 OA
BRANCH   9  10
HETATM   10  C   UNK N   1       5.046  10.765  -0.745  0.00  0.00     0.323 C 
BRANCH  10  11
HETATM   11  C   UNK N   1       4.883  11.915   0.217  0.00  0.00     0.181 C 
HETATM   12  O   UNK N   1       3.915  12.654   0.128  0.00  0.00    -0.648 OA
BRANCH  11  13
HETATM   13  O   UNK N   1       5.797  12.129   1.185  0.00  0.00    -0.774 OA
HETATM   14  H   UNK N   1       6.243  11.654   1.857  0.00  0.00     0.167 HD
ENDBRANCH  11  13
ENDBRANCH  10  11
BRANCH  10  15
HETATM   15  C   UNK N   1       3.837   9.840  -0.653  0.00  0.00     0.181 C 
HETATM   16  O   UNK N   1       3.524   9.149  -1.608  0.00  0.00    -0.648 OA
BRANCH  15  17
HETATM   17  O   UNK N   1       3.056   9.834   0.447  0.00  0.00    -0.774 OA
HETATM   18  H   UNK N   1       2.781  10.301   1.211  0.00  0.00     0.167 HD
ENDBRANCH  15  17
ENDBRANCH  10  15
ENDBRANCH   9  10
ENDBRANCH   6   9
ENDBRANCH   2   3
ENDBRANCH   1   2
BRANCH   1  19
HETATM   19  C   UNK N   1       4.445   5.006   0.277  0.00  0.00     0.135 C 
HETATM   20  N   UNK N   1       3.849   5.676   1.209  0.00  0.00    -0.373 N 
ATOM     21  HN  UNK N   1       4.266   5.702   2.139  1.00  0.00     0.161 HD
BRANCH  20  22
HETATM   22  C   UNK N   1       2.610   6.393   0.978  0.00  0.00     0.121 C 
BRANCH  22  23
HETATM   23  C   UNK N   1       1.545   5.431   0.467  0.00  0.00     0.020 C 
BRANCH  23  24
HETATM   24  C   UNK N   1       0.176   6.062   0.371  0.00  0.00     0.001 C 
BRANCH  24  25
HETATM   25  C   UNK N   1      -0.715   5.095  -0.384  0.00  0.00    -0.004 C 
HETATM   26  C   UNK N   1      -2.165   5.506  -0.254  0.00  0.00     0.005 C 
ENDBRANCH  24  25
ENDBRANCH  23  24
ENDBRANCH  22  23
ENDBRANCH  20  22
BRANCH  19  27
HETATM   27  O   UNK N   1       3.924   4.958  -0.968  0.00  0.00    -0.348 OA
HETATM   28  H   UNK N   1       3.714   5.254  -1.832  0.00  0.00     0.219 HD
ENDBRANCH  19  27
ENDBRANCH   1  19
BRANCH   1  29
HETATM   29  N   UNK N   1       5.328   2.821   0.553  0.00  0.00    -0.344 N 
HETATM   30  C   UNK N   1       5.031   2.128  -0.498  0.00  0.00     0.214 C 
ATOM     31  HN  UNK N   1       5.294   2.334   1.448  1.00  0.00     0.163 HD
BRANCH  30  32
HETATM   32  N   UNK N   1       4.362   0.879  -0.343  0.00  0.00    -0.342 N 
HETATM   33  H   UNK N   1       4.331   0.236  -1.088  0.00  0.00     0.164 HD
BRANCH  32  34
HETATM   34  C   UNK N   1       3.723   0.564   0.926  0.00  0.00     0.187 C 
BRANCH  34  35
HETATM   35  C   UNK N   1       3.169  -0.872   0.965  0.00  0.00     0.074 C 
BRANCH  35  36
HETATM   36  C   UNK N   1       1.932  -1.213   0.170  0.00  0.00    -0.056 A 
HETATM   37  C   UNK N   1       1.819  -2.496  -0.376  0.00  0.00     0.007 A 
HETATM   38  C   UNK N   1       0.636  -2.894  -1.009  0.00  0.00     0.001 A 
HETATM   39  C   UNK N   1      -0.446  -2.012  -1.091  0.00  0.00     0.000 A 
HETATM   40  C   UNK N   1      -0.347  -0.734  -0.539  0.00  0.00     0.001 A 
HETATM   41  C   UNK N   1       0.831  -0.343   0.103  0.00  0.00     0.007 A 
ENDBRANCH  35  36
ENDBRANCH  34  35
BRANCH  34  42
HETATM   42  C   UNK N   1       2.651   1.583   1.266  0.00  0.00     0.163 C 
HETATM   43  O   UNK N   1       2.086   1.536   2.347  0.00  0.00    -0.648 OA
BRANCH  42  44
HETATM   44  O   UNK N   1       2.293   2.528   0.374  0.00  0.00    -0.775 OA
HETATM   45  H   UNK N   1       2.738   3.072  -0.246  0.00  0.00     0.167 HD
ENDBRANCH  42  44
ENDBRANCH  34  42
ENDBRANCH  32  34
ENDBRANCH  30  32
BRANCH  30  46
HETATM   46  O   UNK N   1       5.238   2.621  -1.740  0.00  0.00    -0.333 OA
HETATM   47  H   UNK N   1       5.605   2.668  -2.601  0.00  0.00     0.220 HD
ENDBRANCH  30  46
ENDBRANCH   1  29
TORSDOF 22
