REMARK  18 active torsions:
REMARK  status: ('A' for Active; 'I' for Inactive)
REMARK    1  A    between atoms: C_2  and  C_3 
REMARK    2  A    between atoms: C_3  and  C_4 
REMARK    3  A    between atoms: C_4  and  C_5 
REMARK    4  A    between atoms: C_5  and  C_6 
REMARK    5  A    between atoms: C_6  and  C_7 
REMARK    6  A    between atoms: C_7  and  C_8 
REMARK    7  A    between atoms: C_8  and  C_9 
REMARK    8  A    between atoms: C_9  and  C_10 
REMARK    9  A    between atoms: C_10  and  C_11 
REMARK   10  A    between atoms: C_11  and  C_12 
REMARK   11  A    between atoms: C_12  and  C_13 
REMARK   12  A    between atoms: C_13  and  C_14 
REMARK   13  A    between atoms: C_14  and  C_15 
REMARK   14  A    between atoms: C_15  and  C_16 
REMARK   15  A    between atoms: C_16  and  S_18 
REMARK   16  A    between atoms: S_18  and  C_19 
REMARK   17  A    between atoms: C_19  and  C_20 
REMARK   18  A    between atoms: C_20  and  N_21 
REMARK       I    between atoms: N_21  and  C_22 
ROOT
HETATM    1  C   UNK N   1      17.830   6.994  -0.896  0.00  0.00     0.000 C 
ENDROOT
BRANCH   1   2
HETATM    2  C   UNK N   1      17.435   7.677   0.418  0.00  0.00     0.000 C 
BRANCH   2   3
HETATM    3  C   UNK N   1      16.606   6.790   1.344  0.00  0.00     0.000 C 
BRANCH   3   4
HETATM    4  C   UNK N   1      15.158   6.679   0.898  0.00  0.00     0.000 C 
BRANCH   4   5
HETATM    5  C   UNK N   1      15.018   5.696  -0.249  0.00  0.00     0.000 C 
BRANCH   5   6
HETATM    6  C   UNK N   1      14.659   6.447  -1.519  0.00  0.00     0.000 C 
BRANCH   6   7
HETATM    7  C   UNK N   1      13.180   6.309  -1.844  0.00  0.00     0.000 C 
BRANCH   7   8
HETATM    8  C   UNK N   1      12.310   7.139  -0.915  0.00  0.00     0.000 C 
BRANCH   8   9
HETATM    9  C   UNK N   1      11.949   6.342   0.329  0.00  0.00     0.000 C 
BRANCH   9  10
HETATM   10  C   UNK N   1      10.711   6.932   0.970  0.00  0.00     0.000 C 
BRANCH  10  11
HETATM   11  C   UNK N   1       9.488   6.490   0.192  0.00  0.00    -0.000 C 
BRANCH  11  12
HETATM   12  C   UNK N   1       8.354   7.462   0.427  0.00  0.00    -0.005 C 
HETATM   13  C   UNK N   1       7.136   7.002  -0.345  0.00  0.00     0.005 C 
ENDBRANCH  11  12
ENDBRANCH  10  11
ENDBRANCH   9  10
ENDBRANCH   8   9
ENDBRANCH   7   8
ENDBRANCH   6   7
ENDBRANCH   5   6
ENDBRANCH   4   5
ENDBRANCH   3   4
ENDBRANCH   2   3
ENDBRANCH   1   2
BRANCH   1  14
HETATM   14  C   UNK N   1      18.390   5.576  -0.725  0.00  0.00     0.008 C 
BRANCH  14  15
HETATM   15  C   UNK N   1      19.412   5.457   0.404  0.00  0.00     0.091 C 
BRANCH  15  16
HETATM   16  C   UNK N   1      20.680   6.176   0.088  0.00  0.00     0.186 C 
HETATM   17  O   UNK N   1      20.671   7.382  -0.106  0.00  0.00    -0.286 OA
BRANCH  16  18
HETATM   18  S   UNK N   1      22.216   5.256  -0.003  0.00  0.00    -0.091 SA
BRANCH  18  19
HETATM   19  C   UNK N   1      23.111   6.401   1.089  0.00  0.00     0.102 C 
BRANCH  19  20
HETATM   20  C   UNK N   1      23.733   7.501   0.244  0.00  0.00     0.133 C 
BRANCH  20  21
HETATM   21  N   UNK N   1      25.170   7.512   0.386  0.00  0.00    -0.361 N 
HETATM   22  C   UNK N   1      25.963   6.518  -0.082  0.00  0.00     0.213 C 
HETATM   23  C   UNK N   1      27.437   6.612   0.090  0.00  0.00     0.117 C 
HETATM   24  O   UNK N   1      25.482   5.546  -0.649  0.00  0.00    -0.274 OA
HETATM   25  H   UNK N   1      25.592   8.275   0.842  0.00  0.00     0.162 HD
ENDBRANCH  20  21
ENDBRANCH  19  20
ENDBRANCH  18  19
ENDBRANCH  16  18
ENDBRANCH  15  16
ENDBRANCH  14  15
ENDBRANCH   1  14
TORSDOF 18
