REMARK  14 active torsions:
REMARK  status: ('A' for Active; 'I' for Inactive)
REMARK    1  A    between atoms: C_1  and  C_5 
REMARK    2  A    between atoms: C_3  and  C_6 
REMARK    3  A    between atoms: C_5  and  C_19 
REMARK    4  A    between atoms: C_13  and  C_7 
REMARK    5  A    between atoms: C_8  and  C_13 
REMARK    6  A    between atoms: C_9  and  C_8 
REMARK    7  A    between atoms: C_10  and  C_9 
REMARK    8  A    between atoms: C_11  and  C_10 
REMARK    9  A    between atoms: C_13  and  O_14 
REMARK   10  A    between atoms: C_22  and  C_17 
REMARK   11  A    between atoms: O_18  and  C_17 
REMARK   12  A    between atoms: C_23  and  C_20 
REMARK   13  A    between atoms: C_24  and  C_22 
REMARK   14  A    between atoms: C_24  and  C_23 
ROOT
HETATM    1  C   UNK N   1       4.987 -19.838  -0.155  0.00  0.00    -0.003 A 
HETATM    2  C   UNK N   1       2.711 -20.636   0.078  0.00  0.00     0.088 A 
HETATM    3  C   UNK N   1       5.061 -21.172  -0.181  0.00  0.00    -0.048 A 
HETATM    4  C   UNK N   1       3.703 -21.811  -0.057  0.00  0.00     0.047 A 
HETATM    5  C   UNK N   1       3.606 -19.454  -0.002  0.00  0.00     0.156 A 
HETATM    6  O   UNK N   1       3.214 -18.299   0.062  0.00  0.00    -0.293 OA
ENDROOT
BRANCH   1   7
HETATM    7  C   UNK N   1       6.107 -18.843  -0.310  0.00  0.00     0.070 C 
BRANCH   7   8
HETATM    8  C   UNK N   1       7.047 -18.837   0.856  0.00  0.00    -0.026 C 
HETATM    9  C   UNK N   1       8.133 -18.055   0.894  0.00  0.00    -0.030 C 
BRANCH   9  10
HETATM   10  C   UNK N   1       8.478 -17.087  -0.196  0.00  0.00     0.027 C 
BRANCH  10  11
HETATM   11  C   UNK N   1       9.936 -16.692  -0.064  0.00  0.00     0.014 C 
BRANCH  11  12
HETATM   12  C   UNK N   1      10.091 -15.181  -0.131  0.00  0.00     0.110 C 
BRANCH  12  13
HETATM   13  C   UNK N   1      11.531 -14.763  -0.040  0.00  0.00     0.139 C 
HETATM   14  O   UNK N   1      11.812 -13.576  -0.031  0.00  0.00    -0.650 OA
BRANCH  13  15
HETATM   15  O   UNK N   1      12.516 -15.681   0.029  0.00  0.00    -0.776 OA
HETATM   16  H   UNK N   1      12.307 -16.593   0.077  0.00  0.00     0.167 HD
ENDBRANCH  13  15
ENDBRANCH  12  13
ENDBRANCH  11  12
ENDBRANCH  10  11
ENDBRANCH   9  10
ENDBRANCH   7   8
ENDBRANCH   1   7
BRANCH   3  17
HETATM   17  C   UNK N   1       6.268 -22.021  -0.323  0.00  0.00     0.006 C 
HETATM   18  C   UNK N   1       7.515 -21.587  -0.135  0.00  0.00     0.005 C 
BRANCH  18  19
HETATM   19  C   UNK N   1       8.688 -22.507  -0.284  0.00  0.00     0.141 C 
BRANCH  19  20
HETATM   20  C   UNK N   1       9.946 -21.841   0.253  0.00  0.00     0.036 C 
BRANCH  20  21
HETATM   21  C   UNK N   1      10.373 -20.659  -0.602  0.00  0.00     0.003 C 
BRANCH  21  22
HETATM   22  C   UNK N   1      11.622 -20.015  -0.024  0.00  0.00    -0.000 C 
BRANCH  22  23
HETATM   23  C   UNK N   1      12.836 -20.893  -0.270  0.00  0.00    -0.005 C 
HETATM   24  C   UNK N   1      14.086 -20.171   0.189  0.00  0.00     0.005 C 
ENDBRANCH  22  23
ENDBRANCH  21  22
ENDBRANCH  20  21
ENDBRANCH  19  20
BRANCH  19  25
HETATM   25  O   UNK N   1       8.467 -23.677   0.445  0.00  0.00    -0.392 OA
HETATM   26  H   UNK N   1       7.686 -23.950   0.952  0.00  0.00     0.210 HD
ENDBRANCH  19  25
ENDBRANCH  18  19
ENDBRANCH   3  17
TORSDOF 14
