REMARK  6 active torsions:
REMARK  status: ('A' for Active; 'I' for Inactive)
REMARK    1  A    between atoms: C_6  and  C_5 
REMARK    2  A    between atoms: N_17  and  C_5 
REMARK    3  A    between atoms: C_9  and  C_7 
REMARK    4  A    between atoms: C_11  and  C_7 
REMARK    5  A    between atoms: C_12  and  C_8 
REMARK    6  A    between atoms: N_14  and  C_8 
ROOT
HETATM    1  C   UNK N   1      -0.542   3.526   0.499  0.00  0.00     0.176 A 
HETATM    2  C   UNK N   1       0.527   1.609  -0.078  0.00  0.00     0.100 A 
HETATM    3  C   UNK N   1      -1.502   2.451   0.057  0.00  0.00     0.248 A 
HETATM    4  N   UNK N   1       0.721   2.812   0.330  0.00  0.00    -0.365 N 
ATOM      5  HN  UNK N   1       1.639   3.216   0.513  1.00  0.00     0.161 HD
HETATM    6  N   UNK N   1      -0.840   1.336  -0.267  0.00  0.00    -0.298 N 
HETATM    7  O   UNK N   1      -2.719   2.550   0.012  0.00  0.00    -0.271 OA
ENDROOT
BRANCH   1   8
HETATM    8  C   UNK N   1      -0.592   4.779  -0.383  0.00  0.00     0.047 C 
BRANCH   8   9
HETATM    9  C   UNK N   1      -1.581   5.798   0.183  0.00  0.00     0.033 C 
HETATM   10  C   UNK N   1      -1.267   7.231  -0.176  0.00  0.00    -0.014 C 
HETATM   11  C   UNK N   1      -2.237   8.148  -0.310  0.00  0.00     0.051 C 
HETATM   12  C   UNK N   1      -3.653   7.757  -0.178  0.00  0.00     0.171 C 
HETATM   13  C   UNK N   1      -4.004   6.332  -0.047  0.00  0.00     0.051 C 
HETATM   14  O   UNK N   1      -4.529   8.604  -0.203  0.00  0.00    -0.289 OA
HETATM   15  C   UNK N   1      -3.042   5.413   0.093  0.00  0.00    -0.014 C 
ENDBRANCH   8   9
ENDBRANCH   1   8
BRANCH   6  16
HETATM   16  C   UNK N   1      -1.458   0.118  -0.738  0.00  0.00     0.202 C 
BRANCH  16  17
HETATM   17  C   UNK N   1      -1.606  -0.856   0.383  0.00  0.00     0.251 C 
HETATM   18  O   UNK N   1      -2.113  -1.946   0.178  0.00  0.00    -0.305 OA
ENDBRANCH  16  17
ENDBRANCH   6  16
BRANCH   2  19
HETATM   19  C   UNK N   1       1.682   0.663  -0.291  0.00  0.00     0.188 C 
BRANCH  19  20
HETATM   20  N   UNK N   1       1.264  -0.685  -0.633  0.00  0.00    -0.424 N 
HETATM   21  H   UNK N   1       0.297  -0.903  -0.873  0.00  0.00     0.150 HD
HETATM   22  H   UNK N   1       1.956  -1.434  -0.633  0.00  0.00     0.150 HD
ENDBRANCH  19  20
ENDBRANCH   2  19
TORSDOF 6
