REMARK  10 active torsions:
REMARK  status: ('A' for Active; 'I' for Inactive)
REMARK    1  A    between atoms: O_12  and  C_3 
REMARK    2  A    between atoms: O_13  and  C_4 
REMARK    3  A    between atoms: C_6  and  C_5 
REMARK    4  A    between atoms: O_14  and  C_5 
REMARK    5  A    between atoms: C_7  and  C_6 
REMARK    6  A    between atoms: C_6  and  N_8 
REMARK    7  A    between atoms: O_10  and  C_7 
REMARK    8  A    between atoms: P_15  and  O_12 
REMARK    9  A    between atoms: P_15  and  O_13 
REMARK   10  A    between atoms: P_15  and  O_14 
ROOT
HETATM    1  C   UNK N   1       0.986   2.129   0.789  0.00  0.00     0.216 C 
ENDROOT
BRANCH   1   2
HETATM    2  C   UNK N   1       0.567   3.565   0.486  0.00  0.00     0.198 C 
BRANCH   2   3
HETATM    3  C   UNK N   1       1.625   4.348  -0.248  0.00  0.00     0.165 C 
HETATM    4  O   UNK N   1       1.438   5.527  -0.500  0.00  0.00    -0.648 OA
BRANCH   3   5
HETATM    5  O   UNK N   1       2.782   3.766  -0.622  0.00  0.00    -0.775 OA
HETATM    6  H   UNK N   1       2.835   2.867  -0.882  0.00  0.00     0.167 HD
ENDBRANCH   3   5
ENDBRANCH   2   3
BRANCH   2   7
HETATM    7  N   UNK N   1      -0.667   3.562  -0.284  0.00  0.00    -0.416 N 
HETATM    8  H   UNK N   1      -1.101   4.311  -0.824  0.00  0.00     0.150 HD
HETATM    9  H   UNK N   1      -1.175   2.678  -0.284  0.00  0.00     0.150 HD
ENDBRANCH   2   7
ENDBRANCH   1   2
BRANCH   1  10
HETATM   10  O   UNK N   1       1.219   1.398  -0.382  0.00  0.00    -0.290 OA
BRANCH  10  11
HETATM   11  P   UNK N   1       1.894  -0.106   0.178  0.00  0.00     0.477 P 
HETATM   12  O   UNK N   1       2.986   0.446  -0.778  0.00  0.00    -0.227 OA
BRANCH  11  13
HETATM   13  O   UNK N   1       2.189  -1.446  -0.902  0.00  0.00    -0.293 OA
BRANCH  13  14
HETATM   14  C   UNK N   1       2.115  -2.600  -0.108  0.00  0.00     0.176 C 
HETATM   15  C   UNK N   1       3.498  -3.038   0.331  0.00  0.00     0.034 C 
ENDBRANCH  13  14
ENDBRANCH  11  13
BRANCH  11  16
HETATM   16  O   UNK N   1       0.419  -0.417  -0.699  0.00  0.00    -0.293 OA
BRANCH  16  17
HETATM   17  C   UNK N   1      -0.504  -0.818   0.275  0.00  0.00     0.176 C 
HETATM   18  C   UNK N   1      -1.829  -1.137  -0.380  0.00  0.00     0.034 C 
ENDBRANCH  16  17
ENDBRANCH  11  16
ENDBRANCH  10  11
ENDBRANCH   1  10
TORSDOF 10
