REMARK  6 active torsions:
REMARK  status: ('A' for Active; 'I' for Inactive)
REMARK    1  A    between atoms: O_1  and  C_2 
REMARK    2  A    between atoms: C_3  and  C_2 
REMARK    3  A    between atoms: C_3  and  O_4 
REMARK    4  A    between atoms: C_7  and  O_8 
REMARK    5  A    between atoms: C_9  and  O_10 
REMARK    6  A    between atoms: C_11  and  O_12 
ROOT
HETATM    1  C   UNK N   1       0.604   1.746   0.379  0.00  0.00     0.212 C 
HETATM    2  O   UNK N   1       1.616   1.021   1.065  0.00  0.00    -0.349 OA
HETATM    3  C   UNK N   1       1.974  -0.139   0.337  0.00  0.00     0.206 C 
HETATM    4  C   UNK N   1       0.810  -1.122   0.298  0.00  0.00     0.173 C 
HETATM    5  C   UNK N   1      -0.342  -0.460  -0.444  0.00  0.00     0.183 C 
HETATM    6  C   UNK N   1      -0.661   0.873   0.225  0.00  0.00     0.213 C 
ENDROOT
BRANCH   1   7
HETATM    7  C   UNK N   1       1.111   2.269  -0.974  0.00  0.00     0.235 C 
BRANCH   7   8
HETATM    8  O   UNK N   1       2.209   3.114  -0.789  0.00  0.00    -0.395 OA
HETATM    9  H   UNK N   1       3.098   2.747  -0.661  0.00  0.00     0.209 HD
ENDBRANCH   7   8
ENDBRANCH   1   7
BRANCH   1  10
HETATM   10  O   UNK N   1       0.257   2.849   1.162  0.00  0.00    -0.362 OA
HETATM   11  H   UNK N   1       0.800   3.441   1.705  0.00  0.00     0.213 HD
ENDBRANCH   1  10
BRANCH   6  12
HETATM   12  O   UNK N   1      -1.656   1.550  -0.486  0.00  0.00    -0.387 OA
HETATM   13  H   UNK N   1      -1.595   2.383  -0.979  0.00  0.00     0.210 HD
ENDBRANCH   6  12
BRANCH   5  14
HETATM   14  O   UNK N   1      -1.466  -1.288  -0.408  0.00  0.00    -0.390 OA
HETATM   15  H   UNK N   1      -2.354  -0.900  -0.383  0.00  0.00     0.210 HD
ENDBRANCH   5  14
BRANCH   4  16
HETATM   16  O   UNK N   1       1.199  -2.285  -0.366  0.00  0.00    -0.391 OA
HETATM   17  H   UNK N   1       0.634  -2.924  -0.828  0.00  0.00     0.210 HD
ENDBRANCH   4  16
TORSDOF 6
