REMARK  3 active torsions:
REMARK  status: ('A' for Active; 'I' for Inactive)
REMARK    1  A    between atoms: C_3  and  N_7 
REMARK    2  A    between atoms: C_4  and  O_8 
REMARK    3  A    between atoms: C_6  and  O_10 
ROOT
HETATM    1  C   UNK N   1       3.134   1.573  -0.432  0.00  0.00     0.042 C 
HETATM    2  C   UNK N   1       1.767   0.918  -0.512  0.00  0.00     0.145 C 
HETATM    3  C   UNK N   1       0.719   1.790   0.227  0.00  0.00     0.134 C 
HETATM    4  C   UNK N   1      -0.617   1.032   0.453  0.00  0.00     0.176 C 
HETATM    5  C   UNK N   1      -0.654  -0.284  -0.325  0.00  0.00     0.204 C 
HETATM    6  C   UNK N   1       0.610  -1.088   0.084  0.00  0.00     0.288 C 
HETATM    7  O   UNK N   1      -0.681  -0.045  -1.704  0.00  0.00    -0.388 OA
HETATM    8  O   UNK N   1       1.855  -0.393   0.025  0.00  0.00    -0.352 OA
HETATM    9  H   UNK N   1      -0.547   0.054  -2.659  0.00  0.00     0.210 HD
ENDROOT
BRANCH   4  10
HETATM   10  O   UNK N   1      -1.734   1.823   0.163  0.00  0.00    -0.391 OA
HETATM   11  H   UNK N   1      -1.646   2.768  -0.038  0.00  0.00     0.210 HD
ENDBRANCH   4  10
BRANCH   6  12
HETATM   12  O   UNK N   1       0.688  -2.261  -0.673  0.00  0.00    -0.369 OA
HETATM   13  H   UNK N   1       0.010  -2.714  -1.198  0.00  0.00     0.212 HD
ENDBRANCH   6  12
BRANCH   3  14
HETATM   14  N   UNK N   1       0.510   3.020  -0.531  0.00  0.00    -0.422 N 
HETATM   15  H   UNK N   1       1.181   3.576  -1.061  0.00  0.00     0.150 HD
HETATM   16  H   UNK N   1      -0.446   3.374  -0.531  0.00  0.00     0.150 HD
ENDBRANCH   3  14
TORSDOF 3
