REMARK  10 active torsions:
REMARK  status: ('A' for Active; 'I' for Inactive)
REMARK    1  A    between atoms: C_4  and  C_2 
REMARK    2  A    between atoms: O_8  and  C_2 
REMARK    3  A    between atoms: C_5  and  C_3 
REMARK    4  A    between atoms: O_9  and  C_3 
REMARK    5  A    between atoms: C_6  and  C_4 
REMARK    6  A    between atoms: C_4  and  O_10 
REMARK    7  A    between atoms: C_7  and  C_5 
REMARK    8  A    between atoms: C_7  and  C_6 
REMARK    9  A    between atoms: C_6  and  O_12 
REMARK   10  A    between atoms: C_7  and  O_13 
ROOT
HETATM    1  C   UNK N   1       1.683   1.623   0.008  0.00  0.00     0.185 C 
ENDROOT
BRANCH   1   2
HETATM    2  C   UNK N   1       0.491   0.655   0.187  0.00  0.00     0.173 C 
BRANCH   2   3
HETATM    3  C   UNK N   1      -0.842   1.394   0.292  0.00  0.00     0.198 C 
BRANCH   3   4
HETATM    4  O   UNK N   1      -1.127   2.091  -0.883  0.00  0.00    -0.398 OA
HETATM    5  H   UNK N   1      -0.806   2.505  -1.700  0.00  0.00     0.209 HD
ENDBRANCH   3   4
ENDBRANCH   2   3
BRANCH   2   6
HETATM    6  O   UNK N   1       0.421  -0.247  -0.877  0.00  0.00    -0.391 OA
HETATM    7  H   UNK N   1      -0.146  -0.518  -1.616  0.00  0.00     0.210 HD
ENDBRANCH   2   6
ENDBRANCH   1   2
BRANCH   1   8
HETATM    8  C   UNK N   1       3.057   0.902   0.111  0.00  0.00     0.223 C 
BRANCH   8   9
HETATM    9  C   UNK N   1       4.234   1.855  -0.050  0.00  0.00     0.181 C 
HETATM   10  O   UNK N   1       4.042   3.039  -0.277  0.00  0.00    -0.293 OA
BRANCH   9  11
HETATM   11  C   UNK N   1       5.657   1.378   0.068  0.00  0.00     0.245 C 
BRANCH  11  12
HETATM   12  O   UNK N   1       5.737   0.007   0.315  0.00  0.00    -0.393 OA
HETATM   13  H   UNK N   1       4.939  -0.517   0.487  0.00  0.00     0.209 HD
ENDBRANCH  11  12
ENDBRANCH   9  11
ENDBRANCH   8   9
BRANCH   8  14
HETATM   14  O   UNK N   1       3.158  -0.092  -0.893  0.00  0.00    -0.380 OA
HETATM   15  C   UNK N   1       3.083  -1.366  -0.302  0.00  0.00     0.202 C 
ENDBRANCH   8  14
ENDBRANCH   1   8
BRANCH   1  16
HETATM   16  O   UNK N   1       1.616   2.607   1.001  0.00  0.00    -0.390 OA
HETATM   17  H   UNK N   1       2.184   2.988   1.689  0.00  0.00     0.210 HD
ENDBRANCH   1  16
TORSDOF 10
