REMARK  6 active torsions:
REMARK  status: ('A' for Active; 'I' for Inactive)
REMARK    1  A    between atoms: N_2  and  C_4 
REMARK    2  A    between atoms: C_4  and  C_5 
REMARK    3  A    between atoms: C_5  and  C_6 
REMARK    4  A    between atoms: C_6  and  N_7 
REMARK       I    between atoms: N_7  and  C_8 
REMARK    5  A    between atoms: C_8  and  C_10 
REMARK    6  A    between atoms: C_15  and  N_16 
ROOT
HETATM    1  C   UNK N   1      -1.497  -2.230  -0.020  0.00  0.00     0.059 A 
HETATM    2  C   UNK N   1      -1.352  -3.627  -0.065  0.00  0.00     0.019 A 
HETATM    3  C   UNK N   1      -0.096  -4.222  -0.135  0.00  0.00     0.002 A 
HETATM    4  C   UNK N   1       1.049  -3.432  -0.141  0.00  0.00     0.016 A 
HETATM    5  C   UNK N   1       0.946  -2.036  -0.093  0.00  0.00     0.019 A 
HETATM    6  C   UNK N   1       2.102  -1.241  -0.076  0.00  0.00     0.051 A 
HETATM    7  C   UNK N   1       1.976   0.154  -0.022  0.00  0.00     0.018 A 
HETATM    8  C   UNK N   1       0.687   0.730   0.008  0.00  0.00     0.045 A 
HETATM    9  C   UNK N   1       0.549   2.121   0.056  0.00  0.00     0.030 A 
HETATM   10  C   UNK N   1       1.683   2.939   0.078  0.00  0.00     0.002 A 
HETATM   11  C   UNK N   1       2.960   2.370   0.054  0.00  0.00     0.001 A 
HETATM   12  C   UNK N   1       3.107   0.981   0.003  0.00  0.00     0.016 A 
HETATM   13  N   UNK N   1      -0.419  -0.061   0.001  0.00  0.00    -0.354 N 
ATOM     14  HN  UNK N   1      -1.340   0.376   0.030  1.00  0.00     0.166 HD
HETATM   15  C   UNK N   1      -0.332  -1.422  -0.045  0.00  0.00     0.061 A 
ENDROOT
BRANCH   1  16
HETATM   16  C   UNK N   1      -2.876  -1.681   0.090  0.00  0.00     0.253 C 
HETATM   17  N   UNK N   1      -3.910  -2.556   0.239  0.00  0.00    -0.357 N 
HETATM   18  H   UNK N   1      -3.662  -3.508   0.237  0.00  0.00     0.162 HD
HETATM   19  O   UNK N   1      -3.071  -0.474   0.076  0.00  0.00    -0.268 OA
BRANCH  17  20
HETATM   20  C   UNK N   1      -5.326  -2.279   0.401  0.00  0.00     0.124 C 
BRANCH  20  21
HETATM   21  C   UNK N   1      -5.737  -0.814   0.421  0.00  0.00     0.050 C 
BRANCH  21  22
HETATM   22  C   UNK N   1      -7.039  -0.625  -0.355  0.00  0.00     0.273 C 
BRANCH  22  23
HETATM   23  N   UNK N   1      -8.128  -1.409   0.217  0.00  0.00     0.080 N 
HETATM   24  C   UNK N   1      -9.360  -0.710  -0.096  0.00  0.00     0.309 C 
HETATM   25  C   UNK N   1      -8.190  -2.677  -0.493  0.00  0.00     0.309 C 
ENDBRANCH  22  23
ENDBRANCH  21  22
ENDBRANCH  20  21
ENDBRANCH  17  20
ENDBRANCH   1  16
BRANCH   6  26
HETATM   26  N   UNK N   1       3.383  -1.842  -0.102  0.00  0.00    -0.398 N 
HETATM   27  H   UNK N   1       3.467  -2.823  -0.120  0.00  0.00     0.156 HD
HETATM   28  H   UNK N   1       4.191  -1.279  -0.102  0.00  0.00     0.156 HD
ENDBRANCH   6  26
TORSDOF 6
