REMARK  0 active torsions:
REMARK  status: ('A' for Active; 'I' for Inactive)
ROOT
HETATM    1  C   UNK N   1       1.657   0.257  -1.490  0.00  0.00     0.018 C 
HETATM    2  C   UNK N   1      -0.668   0.401  -0.637  0.00  0.00     0.018 C 
HETATM    3  C   UNK N   1      -0.023  -2.421  -1.881  0.00  0.00     0.039 C 
HETATM    4  C   UNK N   1       2.378  -1.374   0.816  0.00  0.00     0.009 C 
HETATM    5  C   UNK N   1       1.930  -2.372  -0.258  0.00  0.00     0.031 C 
HETATM    6  C   UNK N   1       0.065  -1.256   1.594  0.00  0.00     0.120 C 
HETATM    7  C   UNK N   1       1.169  -0.434   0.925  0.00  0.00     0.013 C 
HETATM    8  C   UNK N   1       0.658  -0.354  -0.500  0.00  0.00    -0.018 C 
HETATM    9  C   UNK N   1       0.518  -1.869  -0.572  0.00  0.00     0.029 C 
HETATM   10  N   UNK N   1      -0.337  -2.227   0.566  0.00  0.00    -0.412 N 
HETATM   11  H   UNK N   1      -1.037  -2.966   0.628  0.00  0.00     0.154 HD
ENDROOT
TORSDOF 0
