REMARK  1 active torsions:
REMARK  status: ('A' for Active; 'I' for Inactive)
REMARK    1  A    between atoms: C_2  and  N_3 
ROOT
HETATM    1  N   UNK N   1       1.361   0.819   0.000  0.00  0.00    -0.282 N 
HETATM    2  C   UNK N   1       0.909  -0.443   0.000  0.00  0.00     0.250 A 
HETATM    3  O   UNK N   1       1.631  -1.428  -0.000  0.00  0.00    -0.268 OA
HETATM    4  C   UNK N   1      -0.560  -0.462  -0.000  0.00  0.00     0.080 A 
HETATM    5  C   UNK N   1      -0.951   0.824  -0.000  0.00  0.00     0.080 A 
HETATM    6  C   UNK N   1       0.281   1.628   0.000  0.00  0.00     0.250 A 
HETATM    7  O   UNK N   1       0.322   2.848  -0.000  0.00  0.00    -0.268 OA
ENDROOT
BRANCH   1   8
HETATM    8  C   UNK N   1       2.778   1.162   0.000  0.00  0.00     0.131 C 
HETATM    9  C   UNK N   1       3.075   2.653   0.000  0.00  0.00     0.027 C 
ENDBRANCH   1   8
TORSDOF 1
