REMARK  19 active torsions:
REMARK  status: ('A' for Active; 'I' for Inactive)
REMARK    1  A    between atoms: C_1  and  O_4 
REMARK    2  A    between atoms: C_1  and  C_5 
REMARK    3  A    between atoms: O_4  and  P_8 
REMARK    4  A    between atoms: C_6  and  C_33 
REMARK    5  A    between atoms: C_7  and  O_12 
REMARK    6  A    between atoms: P_8  and  O_13 
REMARK    7  A    between atoms: P_8  and  O_14 
REMARK    8  A    between atoms: C_11  and  N_37 
REMARK    9  A    between atoms: O_13  and  C_16 
REMARK   10  A    between atoms: C_17  and  C_16 
REMARK   11  A    between atoms: C_19  and  O_22 
REMARK   12  A    between atoms: C_20  and  N_23 
REMARK   13  A    between atoms: C_21  and  O_24 
REMARK   14  A    between atoms: C_31  and  N_32 
REMARK   15  A    between atoms: C_33  and  C_34 
REMARK   16  A    between atoms: C_33  and  O_39 
REMARK   17  A    between atoms: C_34  and  C_35 
REMARK   18  A    between atoms: C_34  and  O_38 
REMARK   19  A    between atoms: C_35  and  O_36 
REMARK       I    between atoms: N_37  and  C_40 
ROOT
HETATM    1  C   UNK N   1      11.089  -8.186   0.778  0.00  0.00     0.206 C 
HETATM    2  O   UNK N   1      11.034  -8.006   2.113  0.00  0.00    -0.772 OA
HETATM    3  O   UNK N   1      11.278  -7.220   0.053  0.00  0.00    -0.646 OA
HETATM    4  H   UNK N   1      11.123  -7.911   3.041  0.00  0.00     0.167 HD
ENDROOT
BRANCH   1   5
HETATM    5  C   UNK N   1      10.912  -9.558   0.164  0.00  0.00     0.264 C 
HETATM    6  O   UNK N   1       9.813  -9.461  -0.738  0.00  0.00    -0.336 OA
HETATM    7  C   UNK N   1       8.559  -9.798  -0.174  0.00  0.00     0.182 C 
HETATM    8  C   UNK N   1       8.608 -11.310   0.071  0.00  0.00     0.145 C 
HETATM    9  C   UNK N   1       9.508 -11.497   1.293  0.00  0.00     0.149 C 
HETATM   10  C   UNK N   1      10.751 -10.601   1.324  0.00  0.00     0.115 C 
BRANCH   7  11
HETATM   11  C   UNK N   1       7.467  -9.275  -1.145  0.00  0.00     0.180 C 
BRANCH  11  12
HETATM   12  C   UNK N   1       7.242  -7.755  -0.984  0.00  0.00     0.173 C 
BRANCH  12  13
HETATM   13  C   UNK N   1       6.643  -7.428   0.388  0.00  0.00     0.198 C 
BRANCH  13  14
HETATM   14  O   UNK N   1       6.405  -6.061   0.514  0.00  0.00    -0.398 OA
HETATM   15  H   UNK N   1       7.146  -5.441   0.603  0.00  0.00     0.209 HD
ENDBRANCH  13  14
ENDBRANCH  12  13
BRANCH  12  16
HETATM   16  O   UNK N   1       8.432  -7.047  -1.169  0.00  0.00    -0.391 OA
HETATM   17  H   UNK N   1       9.271  -7.517  -1.297  0.00  0.00     0.210 HD
ENDBRANCH  12  16
ENDBRANCH  11  12
BRANCH  11  18
HETATM   18  O   UNK N   1       6.236  -9.910  -0.967  0.00  0.00    -0.390 OA
HETATM   19  H   UNK N   1       5.426  -9.390  -0.843  0.00  0.00     0.210 HD
ENDBRANCH  11  18
ENDBRANCH   7  11
BRANCH   8  20
HETATM   20  N   UNK N   1       7.314 -11.882   0.363  0.00  0.00    -0.352 N 
HETATM   21  C   UNK N   1       7.021 -13.174   0.074  0.00  0.00     0.214 C 
HETATM   22  O   UNK N   1       7.859 -13.908  -0.430  0.00  0.00    -0.274 OA
HETATM   23  C   UNK N   1       5.664 -13.705   0.374  0.00  0.00     0.117 C 
HETATM   24  H   UNK N   1       6.625 -11.318   0.783  0.00  0.00     0.163 HD
ENDBRANCH   8  20
BRANCH   9  25
HETATM   25  O   UNK N   1       9.861 -12.835   1.470  0.00  0.00    -0.393 OA
HETATM   26  H   UNK N   1       9.178 -13.512   1.593  0.00  0.00     0.210 HD
ENDBRANCH   9  25
BRANCH   5  27
HETATM   27  O   UNK N   1      12.096  -9.798  -0.597  0.00  0.00    -0.248 OA
BRANCH  27  28
HETATM   28  P   UNK N   1      12.439 -11.504  -0.898  0.00  0.00     0.396 P 
HETATM   29  O   UNK N   1      13.090 -12.043   0.410  0.00  0.00    -0.631 OA
BRANCH  28  30
HETATM   30  O   UNK N   1      13.586 -11.708  -2.209  0.00  0.00    -0.294 OA
BRANCH  30  31
HETATM   31  C   UNK N   1      14.391 -12.816  -1.899  0.00  0.00     0.215 C 
BRANCH  31  32
HETATM   32  C   UNK N   1      15.543 -12.331  -1.043  0.00  0.00     0.180 C 
HETATM   33  O   UNK N   1      16.443 -11.518  -1.738  0.00  0.00    -0.353 OA
HETATM   34  C   UNK N   1      17.507 -11.371  -0.823  0.00  0.00     0.263 C 
HETATM   35  C   UNK N   1      17.285 -12.350   0.328  0.00  0.00     0.198 C 
HETATM   36  C   UNK N   1      16.359 -13.342  -0.304  0.00  0.00     0.182 C 
BRANCH  34  37
HETATM   37  N   UNK N   1      17.591  -9.977  -0.371  0.00  0.00    -0.280 N 
HETATM   38  C   UNK N   1      16.513  -9.310   0.195  0.00  0.00     0.330 A 
HETATM   39  N   UNK N   1      16.633  -7.990   0.541  0.00  0.00    -0.295 N 
HETATM   40  O   UNK N   1      15.450  -9.876   0.375  0.00  0.00    -0.246 OA
HETATM   41  C   UNK N   1      17.795  -7.321   0.343  0.00  0.00     0.103 A 
ATOM     42  HN  UNK N   1      15.837  -7.504   0.954  1.00  0.00     0.172 HD
HETATM   43  C   UNK N   1      18.889  -7.975  -0.214  0.00  0.00     0.065 A 
HETATM   44  C   UNK N   1      18.761  -9.316  -0.571  0.00  0.00     0.102 A 
BRANCH  41  45
HETATM   45  N   UNK N   1      17.890  -5.961   0.694  0.00  0.00    -0.385 N 
HETATM   46  H   UNK N   1      18.747  -5.543   0.939  0.00  0.00     0.157 HD
HETATM   47  H   UNK N   1      17.074  -5.410   0.694  0.00  0.00     0.157 HD
ENDBRANCH  41  45
ENDBRANCH  34  37
BRANCH  35  48
HETATM   48  O   UNK N   1      18.477 -12.948   0.734  0.00  0.00    -0.388 OA
HETATM   49  H   UNK N   1      18.532 -13.874   1.017  0.00  0.00     0.210 HD
ENDBRANCH  35  48
BRANCH  36  50
HETATM   50  O   UNK N   1      15.603 -13.999   0.667  0.00  0.00    -0.390 OA
HETATM   51  H   UNK N   1      14.944 -13.772   1.342  0.00  0.00     0.210 HD
ENDBRANCH  36  50
ENDBRANCH  31  32
ENDBRANCH  30  31
ENDBRANCH  28  30
BRANCH  28  52
HETATM   52  O   UNK N   1      11.021 -12.455  -1.195  0.00  0.00    -0.307 OA
HETATM   53  H   UNK N   1      10.163 -12.034  -1.362  0.00  0.00     0.222 HD
ENDBRANCH  28  52
ENDBRANCH  27  28
ENDBRANCH   5  27
ENDBRANCH   1   5
TORSDOF 19
