REMARK  11 active torsions:
REMARK  status: ('A' for Active; 'I' for Inactive)
REMARK    1  A    between atoms: C_2  and  C_4 
REMARK    2  A    between atoms: C_4  and  N_5 
REMARK    3  A    between atoms: C_4  and  C_22 
REMARK       I    between atoms: N_5  and  C_6 
REMARK    4  A    between atoms: C_6  and  C_8 
REMARK    5  A    between atoms: C_11  and  C_14 
REMARK       I    between atoms: C_14  and  N_16 
REMARK       I    between atoms: C_22  and  N_24 
REMARK    6  A    between atoms: C_28  and  C_29 
REMARK       I    between atoms: C_29  and  N_31 
REMARK    7  A    between atoms: C_32  and  N_31 
REMARK    8  A    between atoms: C_32  and  C_33 
REMARK    9  A    between atoms: C_32  and  C_36 
REMARK   10  A    between atoms: C_36  and  C_38 
REMARK   11  A    between atoms: C_38  and  C_41 
ROOT
HETATM    1  C   UNK N   1       1.100  -7.033  -0.403  0.00  0.00     0.243 C 
HETATM    2  O   UNK N   1       2.305  -7.216  -0.272  0.00  0.00    -0.271 OA
HETATM    3  N   UNK N   1       0.572  -5.809  -0.136  0.00  0.00    -0.337 N 
HETATM    4  C   UNK N   1      -0.833  -5.559  -0.019  0.00  0.00     0.127 C 
HETATM    5  C   UNK N   1      -0.949  -4.059   0.263  0.00  0.00     0.022 C 
HETATM    6  C   UNK N   1       0.467  -3.518   0.525  0.00  0.00     0.037 C 
HETATM    7  C   UNK N   1       1.363  -4.635   0.068  0.00  0.00     0.179 C 
ENDROOT
BRANCH   1   8
HETATM    8  C   UNK N   1       0.250  -8.222  -0.758  0.00  0.00     0.180 C 
BRANCH   8   9
HETATM    9  C   UNK N   1      -0.823  -8.270  -1.847  0.00  0.00     0.009 C 
HETATM   10  C   UNK N   1      -2.041  -8.881  -1.179  0.00  0.00     0.012 C 
HETATM   11  C   UNK N   1      -1.218  -6.949  -2.481  0.00  0.00     0.012 C 
ENDBRANCH   8   9
BRANCH   8  12
HETATM   12  N   UNK N   1       1.138  -9.339  -0.865  0.00  0.00    -0.343 N 
HETATM   13  C   UNK N   1       1.214 -10.168   0.182  0.00  0.00     0.252 C 
HETATM   14  O   UNK N   1       0.336 -10.156   1.032  0.00  0.00    -0.268 OA
HETATM   15  H   UNK N   1       1.671  -9.492  -1.679  0.00  0.00     0.163 HD
BRANCH  13  16
HETATM   16  C   UNK N   1       2.385 -11.005   0.369  0.00  0.00     0.032 A 
HETATM   17  C   UNK N   1       3.501 -10.896  -0.474  0.00  0.00     0.018 A 
HETATM   18  C   UNK N   1       4.570 -11.772  -0.313  0.00  0.00     0.018 A 
HETATM   19  C   UNK N   1       4.549 -12.718   0.718  0.00  0.00     0.032 A 
HETATM   20  C   UNK N   1       3.447 -12.783   1.577  0.00  0.00     0.018 A 
HETATM   21  C   UNK N   1       2.390 -11.910   1.425  0.00  0.00     0.018 A 
BRANCH  19  22
HETATM   22  C   UNK N   1       5.218 -13.976   0.473  0.00  0.00     0.253 C 
HETATM   23  O   UNK N   1       6.329 -14.203   0.954  0.00  0.00    -0.267 OA
HETATM   24  N   UNK N   1       4.572 -14.922  -0.271  0.00  0.00    -0.344 N 
HETATM   25  C   UNK N   1       5.077 -16.253  -0.443  0.00  0.00     0.152 C 
HETATM   26  C   UNK N   1       3.256 -14.635  -0.836  0.00  0.00     0.152 C 
HETATM   27  C   UNK N   1       3.965 -17.213   0.007  0.00  0.00     0.187 C 
HETATM   28  O   UNK N   1       2.774 -16.960  -0.714  0.00  0.00    -0.388 OA
HETATM   29  C   UNK N   1       2.298 -15.696  -0.316  0.00  0.00     0.187 C 
ENDBRANCH  19  22
ENDBRANCH  13  16
ENDBRANCH   8  12
ENDBRANCH   1   8
BRANCH   7  30
HETATM   30  C   UNK N   1       2.857  -4.717   0.178  0.00  0.00     0.241 C 
HETATM   31  O   UNK N   1       3.372  -4.748   1.282  0.00  0.00    -0.271 OA
HETATM   32  N   UNK N   1       3.596  -4.887  -0.955  0.00  0.00    -0.347 N 
HETATM   33  H   UNK N   1       3.106  -4.869  -1.809  0.00  0.00     0.163 HD
BRANCH  32  34
HETATM   34  C   UNK N   1       5.039  -5.093  -1.031  0.00  0.00     0.164 C 
BRANCH  34  35
HETATM   35  C   UNK N   1       5.872  -3.930  -0.482  0.00  0.00     0.008 C 
HETATM   36  C   UNK N   1       5.876  -3.796   1.029  0.00  0.00     0.012 C 
HETATM   37  C   UNK N   1       5.450  -2.622  -1.121  0.00  0.00     0.012 C 
ENDBRANCH  34  35
BRANCH  34  38
HETATM   38  C   UNK N   1       5.469  -6.546  -0.831  0.00  0.00     0.230 C 
HETATM   39  O   UNK N   1       4.856  -7.396  -1.460  0.00  0.00    -0.289 OA
BRANCH  38  40
HETATM   40  C   UNK N   1       6.626  -7.020   0.051  0.00  0.00     0.400 C 
HETATM   41  F   UNK N   1       6.374  -6.705   1.374  0.00  0.00    -0.187 F 
HETATM   42  F   UNK N   1       6.691  -8.404  -0.042  0.00  0.00    -0.187 F 
BRANCH  40  43
HETATM   43  C   UNK N   1       8.014  -6.486  -0.359  0.00  0.00     0.462 C 
HETATM   44  F   UNK N   1       8.214  -6.658  -1.716  0.00  0.00    -0.165 F 
HETATM   45  F   UNK N   1       8.993  -7.186   0.324  0.00  0.00    -0.165 F 
HETATM   46  F   UNK N   1       8.175  -5.154  -0.046  0.00  0.00    -0.165 F 
ENDBRANCH  40  43
ENDBRANCH  38  40
ENDBRANCH  34  38
ENDBRANCH  32  34
ENDBRANCH   7  30
TORSDOF 11
