REMARK  4 active torsions:
REMARK  status: ('A' for Active; 'I' for Inactive)
REMARK    1  A    between atoms: O_1  and  C_2 
REMARK    2  A    between atoms: C_2  and  C_4 
REMARK    3  A    between atoms: C_6  and  S_7 
REMARK    4  A    between atoms: C_10  and  N_11 
ROOT
HETATM    1  C   UNK N   1       1.513   0.565   0.030  0.00  0.00     0.071 A 
HETATM    2  C   UNK N   1       1.460  -0.842   0.031  0.00  0.00     0.039 A 
HETATM    3  C   UNK N   1       0.248  -1.529   0.040  0.00  0.00    -0.002 A 
HETATM    4  C   UNK N   1      -0.947  -0.824   0.043  0.00  0.00     0.021 A 
HETATM    5  C   UNK N   1      -0.933   0.566   0.025  0.00  0.00     0.038 A 
HETATM    6  C   UNK N   1       0.271   1.295   0.016  0.00  0.00     0.119 A 
ENDROOT
BRANCH   1   7
HETATM    7  C   UNK N   1       2.883   1.163   0.119  0.00  0.00     0.178 C 
HETATM    8  O   UNK N   1       3.860   0.457  -0.081  0.00  0.00    -0.646 OA
BRANCH   7   9
HETATM    9  O   UNK N   1       3.084   2.425   0.534  0.00  0.00    -0.773 OA
HETATM   10  H   UNK N   1       3.916   2.744   0.823  0.00  0.00     0.167 HD
ENDBRANCH   7   9
ENDBRANCH   1   7
BRANCH   6  11
HETATM   11  N   UNK N   1       0.163   2.723  -0.034  0.00  0.00    -0.115 N 
HETATM   12  O   UNK N   1      -1.014   3.288   0.134  0.00  0.00    -0.532 OA
HETATM   13  O   UNK N   1       1.074   3.401  -0.393  0.00  0.00    -0.532 OA
ENDBRANCH   6  11
BRANCH   3  14
HETATM   14  S   UNK N   1       0.228  -3.312   0.124  0.00  0.00    -0.143 SA
HETATM   15  H   UNK N   1      -0.957  -3.978   0.187  0.00  0.00     0.107 HD
ENDBRANCH   3  14
TORSDOF 4
