REMARK  26 active torsions:
REMARK  status: ('A' for Active; 'I' for Inactive)
REMARK    1  A    between atoms: C_6  and  C_5 
REMARK    2  A    between atoms: C_10  and  C_6 
REMARK    3  A    between atoms: C_15  and  C_10 
REMARK    4  A    between atoms: N_32  and  C_15 
REMARK    5  A    between atoms: C_20  and  C_17 
REMARK    6  A    between atoms: C_24  and  C_17 
REMARK    7  A    between atoms: C_21  and  C_18 
REMARK    8  A    between atoms: C_23  and  C_18 
REMARK    9  A    between atoms: C_26  and  C_19 
REMARK   10  A    between atoms: O_42  and  C_19 
REMARK   11  A    between atoms: C_29  and  C_22 
REMARK   12  A    between atoms: C_27  and  C_23 
REMARK   13  A    between atoms: C_23  and  N_33 
REMARK   14  A    between atoms: C_28  and  C_24 
REMARK   15  A    between atoms: C_24  and  N_34 
REMARK   16  A    between atoms: O_42  and  C_25 
REMARK   17  A    between atoms: O_36  and  C_26 
REMARK   18  A    between atoms: N_32  and  C_27 
REMARK   19  A    between atoms: C_27  and  O_37 
REMARK   20  A    between atoms: N_33  and  C_28 
REMARK   21  A    between atoms: C_28  and  O_38 
REMARK   22  A    between atoms: O_40  and  C_29 
REMARK   23  A    between atoms: N_34  and  C_30 
REMARK   24  A    between atoms: C_30  and  O_41 
REMARK   25  A    between atoms: O_43  and  C_30 
REMARK   26  A    between atoms: O_43  and  C_31 
ROOT
HETATM    1  C   UNK N   1       4.695   8.879   0.877  0.00  0.00     0.131 C 
ENDROOT
BRANCH   1   2
HETATM    2  C   UNK N   1       5.238  10.299   1.213  0.00  0.00     0.067 C 
BRANCH   2   3
HETATM    3  C   UNK N   1       4.321  11.398   0.780  0.00  0.00    -0.055 A 
HETATM    4  C   UNK N   1       4.788  12.355  -0.111  0.00  0.00     0.010 A 
HETATM    5  C   UNK N   1       3.888  13.194  -0.759  0.00  0.00     0.038 A 
HETATM    6  C   UNK N   1       2.501  13.051  -0.601  0.00  0.00     0.086 A 
HETATM    7  C   UNK N   1       2.014  12.047   0.322  0.00  0.00     0.071 A 
HETATM    8  C   UNK N   1       2.953  11.282   1.020  0.00  0.00     0.028 A 
BRANCH   6   9
HETATM    9  O   UNK N   1       1.741  13.895  -1.355  0.00  0.00    -0.340 OA
BRANCH   9  10
HETATM   10  C   UNK N   1       0.382  14.099  -1.323  0.00  0.00     0.285 C 
BRANCH  10  11
HETATM   11  C   UNK N   1      -0.056  14.756  -0.051  0.00  0.00     0.164 C 
HETATM   12  O   UNK N   1      -1.243  14.792   0.226  0.00  0.00    -0.648 OA
BRANCH  11  13
HETATM   13  O   UNK N   1       0.847  15.272   0.805  0.00  0.00    -0.775 OA
HETATM   14  H   UNK N   1       1.472  14.907   1.400  0.00  0.00     0.167 HD
ENDBRANCH  11  13
ENDBRANCH  10  11
ENDBRANCH   9  10
ENDBRANCH   6   9
BRANCH   7  15
HETATM   15  C   UNK N   1       0.598  11.617   0.538  0.00  0.00     0.178 C 
HETATM   16  O   UNK N   1      -0.281  11.863  -0.261  0.00  0.00    -0.646 OA
BRANCH  15  17
HETATM   17  O   UNK N   1       0.316  10.785   1.564  0.00  0.00    -0.773 OA
HETATM   18  H   UNK N   1      -0.282  10.666   2.276  0.00  0.00     0.167 HD
ENDBRANCH  15  17
ENDBRANCH   7  15
ENDBRANCH   2   3
ENDBRANCH   1   2
BRANCH   1  19
HETATM   19  C   UNK N   1       4.153   8.708  -0.609  0.00  0.00     0.236 C 
BRANCH  19  20
HETATM   20  N   UNK N   1       3.345   7.495  -0.760  0.00  0.00    -0.395 N 
HETATM   21  H   UNK N   1       3.599   6.686  -1.327  0.00  0.00     0.155 HD
BRANCH  20  22
HETATM   22  C   UNK N   1       2.117   7.621   0.027  0.00  0.00     0.116 C 
BRANCH  22  23
HETATM   23  C   UNK N   1       1.012   6.808  -0.603  0.00  0.00     0.019 C 
BRANCH  23  24
HETATM   24  C   UNK N   1       0.218   6.121   0.492  0.00  0.00     0.001 C 
BRANCH  24  25
HETATM   25  C   UNK N   1       0.038   4.652   0.152  0.00  0.00    -0.004 C 
HETATM   26  C   UNK N   1       1.364   3.919   0.249  0.00  0.00     0.005 C 
ENDBRANCH  24  25
ENDBRANCH  23  24
ENDBRANCH  22  23
ENDBRANCH  20  22
ENDBRANCH  19  20
BRANCH  19  27
HETATM   27  O   UNK N   1       3.383   9.764  -1.090  0.00  0.00    -0.375 OA
HETATM   28  H   UNK N   1       3.751  10.597  -1.424  0.00  0.00     0.212 HD
ENDBRANCH  19  27
ENDBRANCH   1  19
BRANCH   1  29
HETATM   29  N   UNK N   1       5.799   7.942   1.214  0.00  0.00    -0.387 N 
HETATM   30  H   UNK N   1       6.672   8.301   1.602  0.00  0.00     0.156 HD
BRANCH  29  31
HETATM   31  C   UNK N   1       5.633   6.491   0.987  0.00  0.00     0.236 C 
BRANCH  31  32
HETATM   32  C   UNK N   1       6.086   6.067  -0.444  0.00  0.00     0.133 C 
BRANCH  32  33
HETATM   33  C   UNK N   1       7.606   6.218  -0.677  0.00  0.00     0.067 C 
BRANCH  33  34
HETATM   34  C   UNK N   1       8.145   7.602  -0.479  0.00  0.00    -0.056 A 
HETATM   35  C   UNK N   1       7.697   8.670  -1.268  0.00  0.00     0.007 A 
HETATM   36  C   UNK N   1       8.204   9.957  -1.063  0.00  0.00     0.001 A 
HETATM   37  C   UNK N   1       9.170  10.178  -0.077  0.00  0.00     0.000 A 
HETATM   38  C   UNK N   1       9.630   9.112   0.702  0.00  0.00     0.001 A 
HETATM   39  C   UNK N   1       9.117   7.826   0.502  0.00  0.00     0.007 A 
ENDBRANCH  33  34
ENDBRANCH  32  33
BRANCH  32  40
HETATM   40  N   UNK N   1       5.588   4.724  -0.784  0.00  0.00    -0.367 N 
HETATM   41  H   UNK N   1       4.710   4.594  -1.286  0.00  0.00     0.158 HD
BRANCH  40  42
HETATM   42  C   UNK N   1       6.405   3.585  -0.374  0.00  0.00     0.364 C 
BRANCH  42  43
HETATM   43  O   UNK N   1       7.492   3.476  -1.249  0.00  0.00    -0.355 OA
HETATM   44  H   UNK N   1       7.803   2.786  -1.855  0.00  0.00     0.214 HD
ENDBRANCH  42  43
BRANCH  42  45
HETATM   45  O   UNK N   1       5.578   2.434  -0.457  0.00  0.00    -0.334 OA
BRANCH  45  46
HETATM   46  C   UNK N   1       6.234   1.201  -0.188  0.00  0.00     0.055 C 
HETATM   47  C   UNK N   1       7.073   0.746  -1.372  0.00  0.00     0.045 C 
HETATM   48  C   UNK N   1       7.074   1.218   1.085  0.00  0.00     0.045 C 
HETATM   49  C   UNK N   1       5.158   0.156   0.014  0.00  0.00     0.045 C 
ENDBRANCH  45  46
ENDBRANCH  42  45
ENDBRANCH  40  42
ENDBRANCH  32  40
ENDBRANCH  31  32
BRANCH  31  50
HETATM   50  O   UNK N   1       4.323   6.093   1.267  0.00  0.00    -0.375 OA
HETATM   51  H   UNK N   1       3.629   6.742   1.461  0.00  0.00     0.212 HD
ENDBRANCH  31  50
ENDBRANCH  29  31
ENDBRANCH   1  29
TORSDOF 26
