REMARK  6 active torsions:
REMARK  status: ('A' for Active; 'I' for Inactive)
REMARK    1  A    between atoms: O_1  and  C_2 
REMARK    2  A    between atoms: C_3  and  C_2 
REMARK    3  A    between atoms: C_5  and  C_6 
REMARK    4  A    between atoms: C_6  and  O_7 
REMARK    5  A    between atoms: C_8  and  O_9 
REMARK    6  A    between atoms: C_10  and  O_11 
ROOT
HETATM    1  C   UNK N   1       1.593   0.801   0.295  0.00  0.00     0.132 C 
HETATM    2  N   UNK N   1       1.268  -0.604   0.042  0.00  0.00    -0.404 N 
HETATM    3  C   UNK N   1      -0.162  -0.612  -0.260  0.00  0.00     0.132 C 
HETATM    4  C   UNK N   1      -0.708   0.720   0.199  0.00  0.00     0.173 C 
HETATM    5  C   UNK N   1       0.420   1.608  -0.215  0.00  0.00     0.173 C 
HETATM    6  H   UNK N   1       1.902  -1.403   0.069  0.00  0.00     0.154 HD
ENDROOT
BRANCH   1   7
HETATM    7  C   UNK N   1       2.893   1.184  -0.386  0.00  0.00     0.191 C 
BRANCH   7   8
HETATM    8  O   UNK N   1       3.301   2.445   0.047  0.00  0.00    -0.399 OA
HETATM    9  H   UNK N   1       4.203   2.638   0.347  0.00  0.00     0.209 HD
ENDBRANCH   7   8
ENDBRANCH   1   7
BRANCH   5  10
HETATM   10  O   UNK N   1       0.346   2.857   0.403  0.00  0.00    -0.391 OA
HETATM   11  H   UNK N   1       1.072   3.336   0.833  0.00  0.00     0.210 HD
ENDBRANCH   5  10
BRANCH   3  12
HETATM   12  C   UNK N   1      -0.860  -1.777   0.418  0.00  0.00     0.191 C 
BRANCH  12  13
HETATM   13  O   UNK N   1      -0.350  -2.978  -0.077  0.00  0.00    -0.399 OA
HETATM   14  H   UNK N   1      -0.896  -3.702  -0.422  0.00  0.00     0.209 HD
ENDBRANCH  12  13
ENDBRANCH   3  12
BRANCH   4  15
HETATM   15  O   UNK N   1      -1.888   1.048  -0.467  0.00  0.00    -0.391 OA
HETATM   16  H   UNK N   1      -2.101   1.873  -0.930  0.00  0.00     0.210 HD
ENDBRANCH   4  15
TORSDOF 6
