REMARK  5 active torsions:
REMARK  status: ('A' for Active; 'I' for Inactive)
REMARK    1  A    between atoms: O_1  and  N_2 
REMARK    2  A    between atoms: N_2  and  C_3 
REMARK    3  A    between atoms: N_2  and  C_7 
REMARK    4  A    between atoms: C_3  and  C_4 
REMARK    5  A    between atoms: C_4  and  O_5 
ROOT
HETATM    1  N   UNK N   1       2.374   1.037  -0.000  0.00  0.00    -0.226 N 
ENDROOT
BRANCH   1   2
HETATM    2  O   UNK N   1       2.319   2.379   0.000  0.00  0.00    -0.285 OA
HETATM    3  H   UNK N   1       3.138   2.898   0.000  0.00  0.00     0.245 HD
ENDBRANCH   1   2
BRANCH   1   4
HETATM    4  C   UNK N   1       1.175   0.219  -0.000  0.00  0.00     0.268 C 
BRANCH   4   5
HETATM    5  C   UNK N   1      -0.148   0.943   0.000  0.00  0.00     0.160 C 
HETATM    6  O   UNK N   1      -0.219   2.161  -0.000  0.00  0.00    -0.649 OA
BRANCH   5   7
HETATM    7  O   UNK N   1      -1.281   0.217   0.000  0.00  0.00    -0.775 OA
HETATM    8  H   UNK N   1      -2.113   0.646  -0.000  0.00  0.00     0.167 HD
ENDBRANCH   5   7
ENDBRANCH   4   5
ENDBRANCH   1   4
BRANCH   1   9
HETATM    9  C   UNK N   1       3.572   0.412  -0.000  0.00  0.00     0.377 C 
HETATM   10  O   UNK N   1       4.612   1.052   0.000  0.00  0.00    -0.281 OA
ENDBRANCH   1   9
TORSDOF 5
