REMARK  3 active torsions:
REMARK  status: ('A' for Active; 'I' for Inactive)
REMARK    1  A    between atoms: C_7  and  C_4 
REMARK    2  A    between atoms: C_8  and  C_4 
REMARK    3  A    between atoms: O_18  and  C_10 
ROOT
HETATM    1  C   UNK N   1      -0.161  -0.522   0.632  0.00  0.00     0.022 C 
HETATM    2  C   UNK N   1       1.042  -1.430   0.945  0.00  0.00     0.035 C 
HETATM    3  C   UNK N   1       0.435   0.735  -0.013  0.00  0.00     0.127 C 
HETATM    4  C   UNK N   1       4.264   0.876  -0.218  0.00  0.00     0.181 C 
HETATM    5  C   UNK N   1       2.037  -1.024  -0.115  0.00  0.00     0.161 C 
HETATM    6  C   UNK N   1       3.468  -1.409   0.128  0.00  0.00     0.135 C 
HETATM    7  C   UNK N   1       2.807   1.304  -0.246  0.00  0.00     0.243 C 
HETATM    8  N   UNK N   1       4.425  -0.546   0.053  0.00  0.00    -0.359 N 
ATOM      9  HN  UNK N   1       5.375  -0.890   0.196  1.00  0.00     0.162 HD
HETATM   10  N   UNK N   1       1.812   0.383  -0.199  0.00  0.00    -0.338 N 
HETATM   11  O   UNK N   1       2.523   2.492  -0.319  0.00  0.00    -0.271 OA
ENDROOT
BRANCH   4  12
HETATM   12  C   UNK N   1       5.072   1.635   0.846  0.00  0.00     0.093 C 
BRANCH  12  13
HETATM   13  C   UNK N   1       5.506   3.008   0.409  0.00  0.00     0.028 A 
HETATM   14  C   UNK N   1       4.708   4.113   0.236  0.00  0.00     0.114 A 
HETATM   15  N   UNK N   1       5.494   5.132  -0.157  0.00  0.00    -0.360 N 
HETATM   16  C   UNK N   1       6.747   4.634  -0.210  0.00  0.00     0.180 A 
ATOM     17  HN  UNK N   1       5.202   6.086  -0.370  1.00  0.00     0.166 HD
HETATM   18  N   UNK N   1       6.781   3.331   0.137  0.00  0.00    -0.354 N 
HETATM   19  H   UNK N   1       7.570   2.744   0.181  0.00  0.00     0.166 HD
ENDBRANCH  12  13
ENDBRANCH   4  12
BRANCH   6  20
HETATM   20  O   UNK N   1       3.765  -2.703   0.358  0.00  0.00    -0.348 OA
HETATM   21  H   UNK N   1       3.090  -3.332   0.518  0.00  0.00     0.219 HD
ENDBRANCH   6  20
TORSDOF 3
