REMARK  15 active torsions:
REMARK  status: ('A' for Active; 'I' for Inactive)
REMARK    1  A    between atoms: C_26  and  C_9 
REMARK    2  A    between atoms: C_30  and  C_10 
REMARK    3  A    between atoms: C_28  and  C_22 
REMARK    4  A    between atoms: C_32  and  C_22 
REMARK    5  A    between atoms: C_31  and  C_24 
REMARK    6  A    between atoms: C_41  and  C_24 
REMARK    7  A    between atoms: C_34  and  C_26 
REMARK    8  A    between atoms: C_37  and  C_28 
REMARK    9  A    between atoms: C_38  and  C_32 
REMARK   10  A    between atoms: C_32  and  O_45 
REMARK   11  A    between atoms: C_35  and  O_46 
REMARK   12  A    between atoms: C_36  and  O_47 
REMARK   13  A    between atoms: C_41  and  C_40 
REMARK   14  A    between atoms: O_49  and  C_40 
REMARK   15  A    between atoms: C_41  and  O_50 
ROOT
HETATM    1  C   UNK N   1      11.764  -1.996  -1.077  0.00  0.00     0.020 C 
HETATM    2  C   UNK N   1      11.536  -8.763  -1.716  0.00  0.00     0.041 C 
HETATM    3  C   UNK N   1      13.525  -6.177   1.479  0.00  0.00     0.040 C 
HETATM    4  C   UNK N   1      12.264  -7.456  -1.887  0.00  0.00     0.071 C 
HETATM    5  C   UNK N   1      13.655  -6.620   0.022  0.00  0.00     0.071 C 
HETATM    6  C   UNK N   1      11.932  -2.767   0.004  0.00  0.00    -0.027 C 
HETATM    7  C   UNK N   1      10.859  -8.627  -0.375  0.00  0.00     0.148 C 
HETATM    8  C   UNK N   1      12.555  -4.999   1.654  0.00  0.00     0.154 C 
HETATM    9  C   UNK N   1      10.801  -3.594   0.550  0.00  0.00     0.180 C 
HETATM   10  C   UNK N   1      13.288  -2.889   0.677  0.00  0.00     0.181 C 
HETATM   11  C   UNK N   1      11.317  -5.023   0.687  0.00  0.00     0.187 C 
HETATM   12  C   UNK N   1      12.246  -6.819  -0.508  0.00  0.00     0.165 C 
HETATM   13  O   UNK N   1      13.274  -3.777   1.782  0.00  0.00    -0.371 OA
HETATM   14  O   UNK N   1      11.569  -7.693   0.378  0.00  0.00    -0.346 OA
HETATM   15  O   UNK N   1      11.620  -5.546  -0.600  0.00  0.00    -0.344 OA
ENDROOT
BRANCH   7  16
HETATM   16  C   UNK N   1       9.448  -8.129  -0.479  0.00  0.00     0.001 C 
HETATM   17  C   UNK N   1       8.461  -8.735   0.192  0.00  0.00    -0.021 C 
BRANCH  17  18
HETATM   18  C   UNK N   1       7.049  -8.198   0.214  0.00  0.00     0.033 C 
HETATM   19  C   UNK N   1       6.207  -9.186   1.017  0.00  0.00     0.017 C 
BRANCH  18  20
HETATM   20  C   UNK N   1       6.959  -6.795   0.887  0.00  0.00     0.136 C 
HETATM   21  C   UNK N   1       7.594  -5.644   0.102  0.00  0.00     0.066 C 
HETATM   22  C   UNK N   1       6.638  -4.968  -0.818  0.00  0.00    -0.080 C 
HETATM   23  C   UNK N   1       7.151  -4.106  -1.919  0.00  0.00     0.043 C 
HETATM   24  C   UNK N   1       5.328  -5.057  -0.622  0.00  0.00     0.046 C 
HETATM   25  C   UNK N   1       4.707  -5.865   0.505  0.00  0.00     0.211 C 
HETATM   26  C   UNK N   1       3.780  -6.974  -0.078  0.00  0.00     0.185 C 
HETATM   27  O   UNK N   1       3.978  -4.978   1.364  0.00  0.00    -0.344 OA
HETATM   28  O   UNK N   1       5.657  -6.491   1.369  0.00  0.00    -0.343 OA
HETATM   29  C   UNK N   1       2.552  -6.378  -0.722  0.00  0.00     0.040 C 
HETATM   30  C   UNK N   1       1.832  -5.576   0.328  0.00  0.00     0.035 C 
HETATM   31  C   UNK N   1       2.748  -4.471   0.850  0.00  0.00     0.129 C 
BRANCH  26  32
HETATM   32  O   UNK N   1       4.424  -7.738  -1.045  0.00  0.00    -0.390 OA
HETATM   33  H   UNK N   1       4.188  -8.393  -1.720  0.00  0.00     0.210 HD
ENDBRANCH  26  32
BRANCH  31  34
HETATM   34  C   UNK N   1       2.987  -3.301  -0.128  0.00  0.00     0.080 C 
BRANCH  34  35
HETATM   35  C   UNK N   1       1.795  -2.815  -0.971  0.00  0.00     0.141 C 
HETATM   36  C   UNK N   1       1.657  -3.721  -2.188  0.00  0.00     0.057 C 
BRANCH  35  37
HETATM   37  C   UNK N   1       0.509  -2.754  -0.175  0.00  0.00     0.175 C 
HETATM   38  O   UNK N   1      -0.465  -3.411  -0.507  0.00  0.00    -0.648 OA
BRANCH  37  39
HETATM   39  O   UNK N   1       0.435  -1.967   0.917  0.00  0.00    -0.774 OA
HETATM   40  H   UNK N   1       0.882  -1.649   1.676  0.00  0.00     0.167 HD
ENDBRANCH  37  39
ENDBRANCH  35  37
BRANCH  35  41
HETATM   41  O   UNK N   1       2.090  -1.534  -1.434  0.00  0.00    -0.379 OA
HETATM   42  H   UNK N   1       2.964  -1.265  -1.756  0.00  0.00     0.211 HD
ENDBRANCH  35  41
ENDBRANCH  34  35
ENDBRANCH  31  34
ENDBRANCH  18  20
ENDBRANCH  17  18
ENDBRANCH   7  16
BRANCH   9  43
HETATM   43  O   UNK N   1       9.676  -3.540  -0.277  0.00  0.00    -0.388 OA
HETATM   44  H   UNK N   1       9.317  -2.844  -0.850  0.00  0.00     0.210 HD
ENDBRANCH   9  43
BRANCH  10  45
HETATM   45  C   UNK N   1      14.430  -3.270  -0.289  0.00  0.00     0.151 C 
BRANCH  45  46
HETATM   46  C   UNK N   1      14.804  -2.095  -1.206  0.00  0.00     0.041 C 
BRANCH  46  47
HETATM   47  C   UNK N   1      15.641  -0.991  -0.527  0.00  0.00     0.013 C 
HETATM   48  C   UNK N   1      17.003  -1.001  -1.203  0.00  0.00     0.012 C 
BRANCH  47  49
HETATM   49  C   UNK N   1      14.957   0.391  -0.656  0.00  0.00     0.132 C 
HETATM   50  C   UNK N   1      15.845   1.561  -0.138  0.00  0.00     0.011 C 
HETATM   51  C   UNK N   1      16.273   1.355   1.307  0.00  0.00     0.012 C 
HETATM   52  C   UNK N   1      15.100   2.896  -0.211  0.00  0.00     0.012 C 
HETATM   53  C   UNK N   1      13.703   2.734  -0.802  0.00  0.00     0.069 C 
HETATM   54  C   UNK N   1      12.948   1.570  -0.118  0.00  0.00     0.164 C 
HETATM   55  C   UNK N   1      12.548   2.085   1.288  0.00  0.00     0.068 C 
HETATM   56  O   UNK N   1      11.832   1.271  -0.955  0.00  0.00    -0.355 OA
HETATM   57  O   UNK N   1      13.728   0.383   0.056  0.00  0.00    -0.349 OA
HETATM   58  C   UNK N   1      11.298   2.953   1.181  0.00  0.00     0.007 C 
HETATM   59  C   UNK N   1      10.156   2.162   0.534  0.00  0.00     0.026 C 
HETATM   60  C   UNK N   1      10.688   0.929  -0.201  0.00  0.00     0.171 C 
ENDBRANCH  47  49
ENDBRANCH  46  47
ENDBRANCH  45  46
BRANCH  45  61
HETATM   61  O   UNK N   1      15.562  -3.674   0.426  0.00  0.00    -0.393 OA
HETATM   62  H   UNK N   1      15.711  -4.494   0.923  0.00  0.00     0.210 HD
ENDBRANCH  45  61
ENDBRANCH  10  45
TORSDOF 15
