REMARK  15 active torsions:
REMARK  status: ('A' for Active; 'I' for Inactive)
REMARK    1  A    between atoms: C_2  and  C_3 
REMARK    2  A    between atoms: C_3  and  C_4 
REMARK    3  A    between atoms: C_4  and  C_5 
REMARK    4  A    between atoms: C_5  and  C_6 
REMARK    5  A    between atoms: C_6  and  C_7 
REMARK    6  A    between atoms: C_7  and  C_8 
REMARK    7  A    between atoms: C_8  and  C_9 
REMARK    8  A    between atoms: C_9  and  C_10 
REMARK    9  A    between atoms: C_10  and  C_11 
REMARK   10  A    between atoms: C_11  and  C_12 
REMARK   11  A    between atoms: C_12  and  C_13 
REMARK   12  A    between atoms: C_13  and  C_14 
REMARK   13  A    between atoms: C_14  and  C_15 
REMARK   14  A    between atoms: C_15  and  C_16 
REMARK   15  A    between atoms: C_16  and  S_17 
ROOT
HETATM    1  C   UNK N   1      14.126  -5.170  -0.249  0.00  0.00     0.000 C 
ENDROOT
BRANCH   1   2
HETATM    2  C   UNK N   1      12.831  -4.396  -0.184  0.00  0.00     0.000 C 
BRANCH   2   3
HETATM    3  C   UNK N   1      11.675  -5.369  -0.225  0.00  0.00     0.000 C 
BRANCH   3   4
HETATM    4  C   UNK N   1      10.392  -4.608   0.005  0.00  0.00     0.000 C 
BRANCH   4   5
HETATM    5  C   UNK N   1       9.213  -5.553  -0.045  0.00  0.00     0.000 C 
BRANCH   5   6
HETATM    6  C   UNK N   1       7.952  -4.735   0.108  0.00  0.00     0.000 C 
BRANCH   6   7
HETATM    7  C   UNK N   1       6.731  -5.619  -0.008  0.00  0.00     0.000 C 
BRANCH   7   8
HETATM    8  C   UNK N   1       5.503  -4.737   0.050  0.00  0.00    -0.000 C 
BRANCH   8   9
HETATM    9  C   UNK N   1       4.253  -5.582  -0.044  0.00  0.00    -0.005 C 
HETATM   10  C   UNK N   1       3.041  -4.675  -0.005  0.00  0.00     0.005 C 
ENDBRANCH   8   9
ENDBRANCH   7   8
ENDBRANCH   6   7
ENDBRANCH   5   6
ENDBRANCH   4   5
ENDBRANCH   3   4
ENDBRANCH   2   3
ENDBRANCH   1   2
BRANCH   1  11
HETATM   11  C   UNK N   1      15.285  -4.238   0.034  0.00  0.00     0.000 C 
BRANCH  11  12
HETATM   12  C   UNK N   1      16.430  -5.038   0.619  0.00  0.00     0.000 C 
BRANCH  12  13
HETATM   13  C   UNK N   1      17.168  -5.806  -0.465  0.00  0.00     0.000 C 
BRANCH  13  14
HETATM   14  C   UNK N   1      17.952  -6.961   0.142  0.00  0.00     0.001 C 
BRANCH  14  15
HETATM   15  C   UNK N   1      18.974  -6.485   1.167  0.00  0.00     0.018 C 
BRANCH  15  16
HETATM   16  C   UNK N   1      20.367  -6.474   0.565  0.00  0.00     0.175 C 
BRANCH  16  17
HETATM   17  S   UNK N   1      20.796  -4.860  -0.168  0.00  0.00     0.300 S 
HETATM   18  F   UNK N   1      22.015  -3.782   0.357  0.00  0.00    -0.105 F 
HETATM   19  O   UNK N   1      21.045  -5.115  -1.661  0.00  0.00    -0.194 OA
HETATM   20  O   UNK N   1      19.513  -4.024  -0.306  0.00  0.00    -0.194 OA
ENDBRANCH  16  17
ENDBRANCH  15  16
ENDBRANCH  14  15
ENDBRANCH  13  14
ENDBRANCH  12  13
ENDBRANCH  11  12
ENDBRANCH   1  11
TORSDOF 15
