REMARK  18 active torsions:
REMARK  status: ('A' for Active; 'I' for Inactive)
REMARK    1  A    between atoms: O_1  and  C_2 
REMARK    2  A    between atoms: C_2  and  C_3 
REMARK    3  A    between atoms: C_3  and  C_4 
REMARK    4  A    between atoms: C_3  and  C_6 
REMARK    5  A    between atoms: C_3  and  N_8 
REMARK    6  A    between atoms: C_4  and  O_5 
REMARK    7  A    between atoms: C_6  and  O_7 
REMARK    8  A    between atoms: N_8  and  C_9 
REMARK    9  A    between atoms: C_9  and  C_10 
REMARK   10  A    between atoms: C_10  and  C_11 
REMARK   11  A    between atoms: C_11  and  N_12 
REMARK   12  A    between atoms: N_12  and  C_13 
REMARK   13  A    between atoms: C_13  and  C_14 
REMARK   14  A    between atoms: C_13  and  C_16 
REMARK   15  A    between atoms: C_13  and  C_18 
REMARK   16  A    between atoms: C_14  and  O_15 
REMARK   17  A    between atoms: C_16  and  O_17 
REMARK   18  A    between atoms: C_18  and  O_19 
ROOT
HETATM    1  C   UNK N   1       5.484  -3.536  -0.513  0.00  0.00     0.038 C 
ENDROOT
BRANCH   1   2
HETATM    2  C   UNK N   1       4.170  -3.557   0.256  0.00  0.00     0.116 C 
BRANCH   2   3
HETATM    3  N   UNK N   1       3.094  -4.065  -0.595  0.00  0.00    -0.407 N 
HETATM    4  H   UNK N   1       3.063  -3.945  -1.608  0.00  0.00     0.154 HD
BRANCH   3   5
HETATM    5  C   UNK N   1       2.059  -4.769   0.184  0.00  0.00     0.089 C 
BRANCH   5   6
HETATM    6  C   UNK N   1       1.055  -5.363  -0.808  0.00  0.00     0.199 C 
BRANCH   6   7
HETATM    7  O   UNK N   1       0.037  -6.058  -0.147  0.00  0.00    -0.398 OA
HETATM    8  H   UNK N   1      -0.733  -5.688   0.311  0.00  0.00     0.209 HD
ENDBRANCH   6   7
ENDBRANCH   5   6
BRANCH   5   9
HETATM    9  C   UNK N   1       2.672  -5.897   1.024  0.00  0.00     0.199 C 
BRANCH   9  10
HETATM   10  O   UNK N   1       3.356  -6.811   0.220  0.00  0.00    -0.398 OA
HETATM   11  H   UNK N   1       3.045  -7.540  -0.339  0.00  0.00     0.209 HD
ENDBRANCH   9  10
ENDBRANCH   5   9
BRANCH   5  12
HETATM   12  C   UNK N   1       1.340  -3.795   1.122  0.00  0.00     0.199 C 
BRANCH  12  13
HETATM   13  O   UNK N   1       0.746  -2.753   0.406  0.00  0.00    -0.398 OA
HETATM   14  H   UNK N   1       1.166  -2.034  -0.092  0.00  0.00     0.209 HD
ENDBRANCH  12  13
ENDBRANCH   5  12
ENDBRANCH   3   5
ENDBRANCH   2   3
ENDBRANCH   1   2
BRANCH   1  15
HETATM   15  C   UNK N   1       5.826  -4.939  -0.988  0.00  0.00     0.116 C 
BRANCH  15  16
HETATM   16  N   UNK N   1       7.273  -5.141  -1.096  0.00  0.00    -0.407 N 
HETATM   17  H   UNK N   1       7.803  -4.991  -1.954  0.00  0.00     0.154 HD
BRANCH  16  18
HETATM   18  C   UNK N   1       7.878  -5.585   0.176  0.00  0.00     0.089 C 
BRANCH  18  19
HETATM   19  C   UNK N   1       9.257  -6.194  -0.101  0.00  0.00     0.199 C 
BRANCH  19  20
HETATM   20  O   UNK N   1      10.109  -5.292  -0.742  0.00  0.00    -0.398 OA
HETATM   21  H   UNK N   1      10.947  -5.491  -1.188  0.00  0.00     0.209 HD
ENDBRANCH  19  20
ENDBRANCH  18  19
BRANCH  18  22
HETATM   22  C   UNK N   1       7.039  -6.669   0.866  0.00  0.00     0.199 C 
BRANCH  22  23
HETATM   23  O   UNK N   1       6.828  -7.760   0.019  0.00  0.00    -0.398 OA
HETATM   24  H   UNK N   1       6.100  -8.012  -0.570  0.00  0.00     0.209 HD
ENDBRANCH  22  23
ENDBRANCH  18  22
BRANCH  18  25
HETATM   25  C   UNK N   1       8.009  -4.409   1.150  0.00  0.00     0.199 C 
BRANCH  25  26
HETATM   26  O   UNK N   1       8.706  -3.343   0.574  0.00  0.00    -0.398 OA
HETATM   27  H   UNK N   1       9.589  -3.392   0.175  0.00  0.00     0.209 HD
ENDBRANCH  25  26
ENDBRANCH  18  25
ENDBRANCH  16  18
ENDBRANCH  15  16
ENDBRANCH   1  15
TORSDOF 18
