REMARK  12 active torsions:
REMARK  status: ('A' for Active; 'I' for Inactive)
REMARK    1  A    between atoms: C_2  and  C_4 
REMARK    2  A    between atoms: C_4  and  C_5 
REMARK    3  A    between atoms: C_5  and  N_6 
REMARK    4  A    between atoms: C_5  and  C_11 
REMARK       I    between atoms: C_8  and  N_9 
REMARK       I    between atoms: C_8  and  N_10 
REMARK       I    between atoms: C_11  and  N_13 
REMARK    5  A    between atoms: N_13  and  C_14 
REMARK    6  A    between atoms: C_14  and  C_15 
REMARK       I    between atoms: C_15  and  N_17 
REMARK    7  A    between atoms: C_20  and  C_23 
REMARK    8  A    between atoms: C_25  and  C_30 
REMARK    9  A    between atoms: C_35  and  O_36 
REMARK   10  A    between atoms: O_36  and  C_37 
REMARK   11  A    between atoms: C_37  and  C_38 
REMARK   12  A    between atoms: C_41  and  N_42 
REMARK       I    between atoms: N_42  and  C_43 
ROOT
HETATM    1  C   UNK N   1       4.509 -16.039   0.053  0.00  0.00     0.034 A 
HETATM    2  C   UNK N   1       5.768 -15.565   0.159  0.00  0.00     0.059 A 
HETATM    3  C   UNK N   1       6.590 -16.564  -0.190  0.00  0.00     0.062 A 
HETATM    4  N   UNK N   1       5.854 -17.657  -0.512  0.00  0.00    -0.298 N 
ATOM      5  HN  UNK N   1       6.212 -18.565  -0.808  1.00  0.00     0.187 HD
HETATM    6  N   UNK N   1       4.576 -17.319  -0.367  0.00  0.00    -0.300 N 
HETATM    7  C   UNK N   1       3.459 -18.223  -0.585  0.00  0.00     0.177 C 
ENDROOT
BRANCH   1   8
HETATM    8  C   UNK N   1       3.338 -15.182   0.445  0.00  0.00     0.040 C 
HETATM    9  C   UNK N   1       3.946 -13.954   1.185  0.00  0.00     0.030 C 
HETATM   10  C   UNK N   1       4.086 -12.780   0.227  0.00  0.00     0.126 C 
HETATM   11  N   UNK N   1       2.718 -12.413   0.088  0.00  0.00    -0.351 N 
HETATM   12  C   UNK N   1       2.231 -11.582   1.066  0.00  0.00     0.237 C 
HETATM   13  C   UNK N   1       1.859 -13.343  -0.649  0.00  0.00     0.126 C 
HETATM   14  O   UNK N   1       3.001 -10.889   1.719  0.00  0.00    -0.272 OA
HETATM   15  C   UNK N   1       2.500 -14.756  -0.789  0.00  0.00     0.030 C 
BRANCH  12  16
HETATM   16  C   UNK N   1       0.811 -11.634   1.502  0.00  0.00     0.225 C 
BRANCH  16  17
HETATM   17  N   UNK N   1       0.492 -13.011   1.794  0.00  0.00    -0.351 N 
HETATM   18  C   UNK N   1      -0.550 -13.651   1.213  0.00  0.00     0.241 C 
HETATM   19  O   UNK N   1      -0.655 -14.860   1.361  0.00  0.00    -0.271 OA
HETATM   20  H   UNK N   1       1.051 -13.501   2.438  0.00  0.00     0.163 HD
BRANCH  18  21
HETATM   21  C   UNK N   1      -1.593 -12.889   0.414  0.00  0.00     0.192 C 
BRANCH  21  22
HETATM   22  C   UNK N   1      -2.617 -13.819  -0.225  0.00  0.00     0.039 C 
BRANCH  22  23
HETATM   23  C   UNK N   1      -3.982 -13.161  -0.347  0.00  0.00    -0.020 C 
HETATM   24  C   UNK N   1      -4.966 -14.185  -0.866  0.00  0.00     0.009 C 
HETATM   25  C   UNK N   1      -3.960 -11.980  -1.298  0.00  0.00     0.009 C 
ENDBRANCH  22  23
ENDBRANCH  21  22
BRANCH  21  26
HETATM   26  N   UNK N   1      -1.001 -12.040  -0.599  0.00  0.00    -0.214 N 
HETATM   27  C   UNK N   1      -1.080 -10.752  -0.533  0.00  0.00     0.666 C 
HETATM   28  N   UNK N   1      -1.729 -10.119   0.558  0.00  0.00    -0.235 N 
HETATM   29  N   UNK N   1      -0.454  -9.961  -1.519  0.00  0.00    -0.235 N 
HETATM   30  H   UNK N   1      -1.573  -9.509   1.315  0.00  0.00     0.174 HD
HETATM   31  H   UNK N   1      -2.676 -10.385   0.558  0.00  0.00     0.174 HD
HETATM   32  H   UNK N   1       0.243 -10.064  -2.207  0.00  0.00     0.174 HD
HETATM   33  H   UNK N   1      -0.817  -9.046  -1.519  0.00  0.00     0.174 HD
ATOM     34  HN  UNK N   1      -0.509 -12.469  -1.383  1.00  0.00     0.178 HD
ENDBRANCH  21  26
ENDBRANCH  18  21
ENDBRANCH  16  17
ENDBRANCH  12  16
ENDBRANCH   1   8
BRANCH   3  35
HETATM   35  C   UNK N   1       8.051 -16.381  -0.171  0.00  0.00     0.016 A 
HETATM   36  C   UNK N   1       8.635 -15.089   0.065  0.00  0.00     0.071 A 
HETATM   37 Cl   UNK N   1       7.701 -13.593   0.347  0.00  0.00    -0.081 Cl
HETATM   38  C   UNK N   1      10.017 -14.942   0.039  0.00  0.00     0.090 A 
HETATM   39 Cl   UNK N   1      10.706 -13.334   0.335  0.00  0.00    -0.080 Cl
HETATM   40  C   UNK N   1      10.834 -16.056  -0.227  0.00  0.00     0.092 A 
HETATM   41  C   UNK N   1      10.265 -17.319  -0.405  0.00  0.00     0.039 A 
HETATM   42  C   UNK N   1       8.882 -17.481  -0.383  0.00  0.00     0.018 A 
BRANCH  40  43
HETATM   43  O   UNK N   1      12.159 -15.919  -0.391  0.00  0.00    -0.345 OA
BRANCH  43  44
HETATM   44  C   UNK N   1      12.617 -14.998  -1.305  0.00  0.00     0.214 C 
BRANCH  44  45
HETATM   45  C   UNK N   1      13.528 -13.989  -0.713  0.00  0.00    -0.034 A 
HETATM   46  C   UNK N   1      14.073 -13.024  -1.558  0.00  0.00     0.011 A 
HETATM   47  C   UNK N   1      15.061 -12.169  -1.088  0.00  0.00     0.030 A 
HETATM   48  C   UNK N   1      15.484 -12.256   0.239  0.00  0.00     0.034 A 
HETATM   49  C   UNK N   1      14.891 -13.181   1.107  0.00  0.00     0.030 A 
HETATM   50  C   UNK N   1      13.902 -14.038   0.636  0.00  0.00     0.011 A 
BRANCH  48  51
HETATM   51  N   UNK N   1      16.748 -11.733   0.571  0.00  0.00    -0.328 N 
HETATM   52  C   UNK N   1      17.834 -12.544   0.448  0.00  0.00     0.218 C 
HETATM   53  C   UNK N   1      19.190 -12.033   0.764  0.00  0.00     0.117 C 
HETATM   54  O   UNK N   1      17.709 -13.699   0.056  0.00  0.00    -0.274 OA
HETATM   55  H   UNK N   1      16.844 -10.804   0.883  0.00  0.00     0.169 HD
ENDBRANCH  48  51
ENDBRANCH  44  45
ENDBRANCH  43  44
ENDBRANCH  40  43
ENDBRANCH   3  35
TORSDOF 12
