REMARK  7 active torsions:
REMARK  status: ('A' for Active; 'I' for Inactive)
REMARK    1  A    between atoms: C_9  and  C_8 
REMARK    2  A    between atoms: O_27  and  C_8 
REMARK    3  A    between atoms: C_18  and  C_10 
REMARK    4  A    between atoms: C_17  and  C_11 
REMARK    5  A    between atoms: O_27  and  C_15 
REMARK    6  A    between atoms: O_26  and  C_16 
REMARK    7  A    between atoms: N_22  and  C_17 
ROOT
HETATM    1  C   UNK N   1       2.568   0.108  -0.002  0.00  0.00     0.049 A 
HETATM    2  C   UNK N   1       2.337   2.930  -0.022  0.00  0.00     0.056 A 
HETATM    3  C   UNK N   1       3.741   0.896  -0.007  0.00  0.00     0.031 A 
HETATM    4  C   UNK N   1       3.615   2.332  -0.014  0.00  0.00     0.050 A 
HETATM    5  C   UNK N   1       1.341   0.749  -0.004  0.00  0.00     0.061 A 
HETATM    6  C   UNK N   1       1.225   2.098  -0.018  0.00  0.00     0.062 A 
HETATM    7  C   UNK N   1      -0.725   1.249   0.006  0.00  0.00     0.119 A 
HETATM    8 Cl   UNK N   1       5.000   3.419  -0.010  0.00  0.00    -0.083 Cl
HETATM    9  N   UNK N   1       0.124   0.190   0.013  0.00  0.00    -0.340 N 
ATOM     10  HN  UNK N   1      -0.111  -0.803   0.028  1.00  0.00     0.167 HD
HETATM   11  N   UNK N   1      -0.070   2.443  -0.016  0.00  0.00    -0.340 N 
HETATM   12  H   UNK N   1      -0.458   3.348  -0.027  0.00  0.00     0.167 HD
ENDROOT
BRANCH   7  13
HETATM   13  C   UNK N   1      -2.198   1.097   0.031  0.00  0.00     0.044 A 
HETATM   14  C   UNK N   1      -2.732  -0.194   0.132  0.00  0.00     0.018 A 
HETATM   15  C   UNK N   1      -4.110  -0.394   0.175  0.00  0.00     0.004 A 
HETATM   16  C   UNK N   1      -4.976   0.694   0.101  0.00  0.00     0.040 A 
HETATM   17  C   UNK N   1      -4.480   1.996  -0.024  0.00  0.00     0.102 A 
HETATM   18  C   UNK N   1      -3.073   2.203  -0.044  0.00  0.00     0.113 A 
BRANCH  17  19
HETATM   19  O   UNK N   1      -5.379   3.010  -0.139  0.00  0.00    -0.348 OA
BRANCH  19  20
HETATM   20  C   UNK N   1      -5.070   4.241  -0.675  0.00  0.00     0.179 C 
BRANCH  20  21
HETATM   21  C   UNK N   1      -5.251   5.346   0.342  0.00  0.00     0.002 C 
HETATM   22  C   UNK N   1      -6.699   5.792   0.358  0.00  0.00     0.011 C 
HETATM   23  C   UNK N   1      -4.378   6.515  -0.061  0.00  0.00     0.011 C 
ENDBRANCH  20  21
ENDBRANCH  19  20
ENDBRANCH  17  19
BRANCH  18  24
HETATM   24  O   UNK N   1      -2.568   3.448  -0.132  0.00  0.00    -0.357 OA
HETATM   25  H   UNK N   1      -1.642   3.577  -0.194  0.00  0.00     0.217 HD
ENDBRANCH  18  24
ENDBRANCH   7  13
BRANCH   3  26
HETATM   26  C   UNK N   1       5.046   0.174   0.001  0.00  0.00     0.104 C 
HETATM   27  N   UNK N   1       6.161   0.804   0.008  0.00  0.00    -0.385 N 
HETATM   28  H   UNK N   1       7.009   0.305   0.014  0.00  0.00     0.157 HD
ATOM     29  HN  UNK N   1       6.170   1.824   0.008  1.00  0.00     0.157 HD
BRANCH  26  30
HETATM   30  N   UNK N   1       5.063  -1.241   0.001  0.00  0.00    -0.385 N 
HETATM   31  H   UNK N   1       4.216  -1.743   0.001  0.00  0.00     0.157 HD
HETATM   32  H   UNK N   1       5.921  -1.723   0.001  0.00  0.00     0.157 HD
ENDBRANCH  26  30
ENDBRANCH   3  26
TORSDOF 7
