REMARK  0 active torsions:
REMARK  status: ('A' for Active; 'I' for Inactive)
ROOT
HETATM    1  O   UNK N   1      -2.561   0.997  -0.000  0.00  0.00    -0.273 OA
HETATM    2  C   UNK N   1      -1.575   0.277  -0.000  0.00  0.00     0.224 A 
HETATM    3  C   UNK N   1      -1.757  -1.231  -0.000  0.00  0.00     0.108 A 
HETATM    4  C   UNK N   1      -0.471  -2.097   0.000  0.00  0.00     0.050 A 
HETATM    5  C   UNK N   1       0.819  -1.332   0.000  0.00  0.00    -0.030 A 
HETATM    6  C   UNK N   1       2.065  -1.977   0.000  0.00  0.00     0.009 A 
HETATM    7  C   UNK N   1       3.249  -1.206  -0.000  0.00  0.00     0.001 A 
HETATM    8  C   UNK N   1       3.182   0.204  -0.000  0.00  0.00     0.009 A 
HETATM    9  C   UNK N   1       1.922   0.805  -0.000  0.00  0.00    -0.029 A 
HETATM   10  C   UNK N   1       0.804   0.051   0.000  0.00  0.00     0.050 A 
HETATM   11  N   UNK N   1      -0.333   0.821   0.000  0.00  0.00    -0.317 N 
HETATM   12  C   UNK N   1      -0.005   2.232   0.000  0.00  0.00     0.137 A 
HETATM   13  C   UNK N   1       1.566   2.262  -0.000  0.00  0.00     0.061 A 
ENDROOT
TORSDOF 0
