REMARK  9 active torsions:
REMARK  status: ('A' for Active; 'I' for Inactive)
REMARK    1  A    between atoms: P_1  and  O_2 
REMARK    2  A    between atoms: P_1  and  O_3 
REMARK    3  A    between atoms: P_1  and  O_4 
REMARK    4  A    between atoms: O_2  and  C_6 
REMARK    5  A    between atoms: C_7  and  C_6 
REMARK    6  A    between atoms: C_8  and  O_11 
REMARK    7  A    between atoms: C_10  and  O_14 
REMARK    8  A    between atoms: C_12  and  O_15 
REMARK    9  A    between atoms: C_13  and  O_16 
ROOT
HETATM    1  C   UNK N   1      13.741  -8.718  -0.178  0.00  0.00     0.180 C 
HETATM    2  C   UNK N   1      13.802 -10.186   0.289  0.00  0.00     0.180 C 
HETATM    3  O   UNK N   1      14.825  -8.010   0.373  0.00  0.00    -0.349 OA
HETATM    4  C   UNK N   1      15.126 -10.785  -0.189  0.00  0.00     0.183 C 
HETATM    5  C   UNK N   1      16.000  -8.479  -0.250  0.00  0.00     0.288 C 
HETATM    6  C   UNK N   1      16.289  -9.898   0.245  0.00  0.00     0.204 C 
ENDROOT
BRANCH   1   7
HETATM    7  C   UNK N   1      12.454  -8.039   0.273  0.00  0.00     0.215 C 
BRANCH   7   8
HETATM    8  O   UNK N   1      11.364  -8.478  -0.486  0.00  0.00    -0.294 OA
BRANCH   8   9
HETATM    9  P   UNK N   1      10.031  -8.542   0.631  0.00  0.00     0.390 P 
HETATM   10  O   UNK N   1       9.865  -9.877  -0.145  0.00  0.00    -0.632 OA
BRANCH   9  11
HETATM   11  O   UNK N   1       8.395  -8.448   0.058  0.00  0.00    -0.307 OA
HETATM   12  H   UNK N   1       7.984  -7.630  -0.263  0.00  0.00     0.222 HD
ENDBRANCH   9  11
BRANCH   9  13
HETATM   13  O   UNK N   1       9.811  -7.202  -0.454  0.00  0.00    -0.307 OA
HETATM   14  H   UNK N   1      10.397  -6.722  -1.060  0.00  0.00     0.222 HD
ENDBRANCH   9  13
ENDBRANCH   8   9
ENDBRANCH   7   8
ENDBRANCH   1   7
BRANCH   2  15
HETATM   15  O   UNK N   1      12.743 -10.923  -0.241  0.00  0.00    -0.390 OA
HETATM   16  H   UNK N   1      11.931 -10.542  -0.609  0.00  0.00     0.210 HD
ENDBRANCH   2  15
BRANCH   4  17
HETATM   17  O   UNK N   1      15.284 -12.077   0.315  0.00  0.00    -0.390 OA
HETATM   18  H   UNK N   1      14.561 -12.621   0.665  0.00  0.00     0.210 HD
ENDBRANCH   4  17
BRANCH   5  19
HETATM   19  O   UNK N   1      17.059  -7.634   0.072  0.00  0.00    -0.369 OA
HETATM   20  H   UNK N   1      17.938  -7.978   0.296  0.00  0.00     0.212 HD
ENDBRANCH   5  19
BRANCH   6  21
HETATM   21  O   UNK N   1      17.480 -10.372  -0.312  0.00  0.00    -0.388 OA
HETATM   22  H   UNK N   1      17.608 -11.253  -0.698  0.00  0.00     0.210 HD
ENDBRANCH   6  21
TORSDOF 9
