REMARK  7 active torsions:
REMARK  status: ('A' for Active; 'I' for Inactive)
REMARK    1  A    between atoms: C_20  and  C_15 
REMARK    2  A    between atoms: O_31  and  C_16 
REMARK    3  A    between atoms: C_21  and  C_17 
REMARK    4  A    between atoms: C_21  and  C_18 
REMARK    5  A    between atoms: S_32  and  C_19 
REMARK    6  A    between atoms: O_28  and  C_22 
REMARK    7  A    between atoms: N_26  and  C_23 
ROOT
HETATM    1  C   UNK N   1      -2.597   4.150   0.851  0.00  0.00     0.050 C 
HETATM    2  C   UNK N   1       0.037   1.410   0.700  0.00  0.00     0.017 A 
HETATM    3  C   UNK N   1       1.189   2.148   0.446  0.00  0.00     0.025 A 
HETATM    4  C   UNK N   1      -1.278   3.446   0.692  0.00  0.00    -0.035 A 
HETATM    5  C   UNK N   1      -1.206   2.035   0.843  0.00  0.00     0.022 A 
HETATM    6  C   UNK N   1       1.142   3.536   0.296  0.00  0.00     0.070 A 
HETATM    7  C   UNK N   1      -0.111   4.207   0.396  0.00  0.00     0.003 A 
ENDROOT
BRANCH   5   8
HETATM    8  C   UNK N   1      -2.444   1.211   1.069  0.00  0.00     0.198 C 
HETATM    9  O   UNK N   1      -3.501   1.763   1.331  0.00  0.00    -0.286 OA
BRANCH   8  10
HETATM   10  C   UNK N   1      -2.485  -0.248   0.833  0.00  0.00     0.084 A 
HETATM   11  C   UNK N   1      -1.449  -1.163   0.737  0.00  0.00     0.127 A 
HETATM   12  N   UNK N   1      -1.979  -2.364   0.404  0.00  0.00    -0.306 N 
HETATM   13  N   UNK N   1      -3.294  -2.232   0.265  0.00  0.00    -0.262 N 
ATOM     14  HN  UNK N   1      -1.454  -3.229   0.280  1.00  0.00     0.186 HD
HETATM   15  C   UNK N   1      -3.624  -0.956   0.540  0.00  0.00     0.173 A 
BRANCH  13  16
HETATM   16  C   UNK N   1      -4.163  -3.332  -0.189  0.00  0.00     0.045 C 
HETATM   17  C   UNK N   1      -3.654  -3.848  -1.523  0.00  0.00     0.039 C 
HETATM   18  C   UNK N   1      -4.132  -4.461   0.820  0.00  0.00     0.039 C 
HETATM   19  C   UNK N   1      -5.612  -2.912  -0.388  0.00  0.00     0.039 C 
ENDBRANCH  13  16
BRANCH  15  20
HETATM   20  O   UNK N   1      -4.867  -0.444   0.472  0.00  0.00    -0.344 OA
HETATM   21  H   UNK N   1      -4.991   0.483   0.424  0.00  0.00     0.219 HD
ENDBRANCH  15  20
ENDBRANCH   8  10
ENDBRANCH   5   8
BRANCH   7  22
HETATM   22  C   UNK N   1      -0.251   5.679   0.170  0.00  0.00    -0.024 A 
HETATM   23  C   UNK N   1       0.612   6.609   0.764  0.00  0.00     0.015 A 
HETATM   24  C   UNK N   1       0.413   7.981   0.575  0.00  0.00     0.037 A 
HETATM   25  C   UNK N   1      -0.645   8.441  -0.219  0.00  0.00     0.068 A 
HETATM   26  C   UNK N   1      -1.500   7.514  -0.828  0.00  0.00     0.037 A 
HETATM   27  C   UNK N   1      -1.306   6.152  -0.628  0.00  0.00     0.015 A 
BRANCH  25  28
HETATM   28  O   UNK N   1      -0.824   9.773  -0.380  0.00  0.00    -0.356 OA
HETATM   29  C   UNK N   1      -1.838  10.306  -1.146  0.00  0.00     0.210 C 
ENDBRANCH  25  28
ENDBRANCH   7  22
BRANCH   6  30
HETATM   30  S   UNK N   1       2.700   4.360  -0.110  0.00  0.00     0.172 S 
HETATM   31  C   UNK N   1       4.211   3.514  -0.652  0.00  0.00     0.167 C 
HETATM   32  O   UNK N   1       2.430   5.472  -1.136  0.00  0.00    -0.223 OA
HETATM   33  O   UNK N   1       3.098   5.215   1.102  0.00  0.00    -0.223 OA
ENDBRANCH   6  30
TORSDOF 7
