REMARK  7 active torsions:
REMARK  status: ('A' for Active; 'I' for Inactive)
REMARK    1  A    between atoms: N_1  and  S_2 
REMARK    2  A    between atoms: S_2  and  C_5 
REMARK    3  A    between atoms: C_7  and  C_23 
REMARK    4  A    between atoms: C_9  and  N_10 
REMARK    5  A    between atoms: C_15  and  O_16 
REMARK    6  A    between atoms: O_16  and  C_17 
REMARK    7  A    between atoms: C_23  and  O_24 
ROOT
HETATM    1  C   UNK N   1       1.427  -0.017  -0.307  0.00  0.00     0.116 A 
HETATM    2  C   UNK N   1       0.100   0.484  -0.237  0.00  0.00     0.046 A 
HETATM    3  C   UNK N   1      -1.007  -0.318  -0.023  0.00  0.00     0.041 A 
HETATM    4  C   UNK N   1      -0.837  -1.683   0.113  0.00  0.00     0.050 A 
HETATM    5  C   UNK N   1       0.426  -2.283   0.066  0.00  0.00     0.067 A 
HETATM    6  C   UNK N   1       1.592  -1.468  -0.109  0.00  0.00     0.126 A 
ENDROOT
BRANCH   6   7
HETATM    7  O   UNK N   1       2.794  -2.132  -0.155  0.00  0.00    -0.307 OA
BRANCH   7   8
HETATM    8  C   UNK N   1       4.111  -1.893   0.097  0.00  0.00     0.076 A 
HETATM    9  C   UNK N   1       4.578  -0.782   0.807  0.00  0.00     0.037 A 
HETATM   10  C   UNK N   1       5.945  -0.606   1.046  0.00  0.00     0.003 A 
HETATM   11  C   UNK N   1       6.859  -1.561   0.600  0.00  0.00     0.000 A 
HETATM   12  C   UNK N   1       6.404  -2.692  -0.081  0.00  0.00     0.003 A 
HETATM   13  C   UNK N   1       5.038  -2.855  -0.328  0.00  0.00     0.037 A 
ENDBRANCH   7   8
ENDBRANCH   6   7
BRANCH   5  14
HETATM   14  N   UNK N   1       0.484  -3.719   0.154  0.00  0.00    -0.379 N 
HETATM   15  C   UNK N   1       1.692  -4.491   0.053  0.00  0.00     0.123 C 
HETATM   16  C   UNK N   1       1.257  -5.943   0.106  0.00  0.00     0.021 C 
HETATM   17  C   UNK N   1      -0.262  -5.945  -0.007  0.00  0.00     0.021 C 
HETATM   18  C   UNK N   1      -0.712  -4.514   0.216  0.00  0.00     0.123 C 
ENDBRANCH   5  14
BRANCH   1  19
HETATM   19  S   UNK N   1       2.835   1.232  -0.652  0.00  0.00     0.259 S 
HETATM   20  O   UNK N   1       2.891   0.076  -1.660  0.00  0.00    -0.201 OA
HETATM   21  O   UNK N   1       2.535   0.918   0.824  0.00  0.00    -0.201 OA
BRANCH  19  22
HETATM   22  N   UNK N   1       1.573   2.317  -1.257  0.00  0.00    -0.324 N 
HETATM   23  H   UNK N   1       1.751   3.259  -1.606  0.00  0.00     0.169 HD
HETATM   24  H   UNK N   1       0.611   1.980  -1.257  0.00  0.00     0.169 HD
ENDBRANCH  19  22
ENDBRANCH   1  19
BRANCH   3  25
HETATM   25  C   UNK N   1      -2.355   0.280   0.029  0.00  0.00     0.176 C 
HETATM   26  O   UNK N   1      -3.336  -0.423   0.216  0.00  0.00    -0.646 OA
BRANCH  25  27
HETATM   27  O   UNK N   1      -2.514   1.609  -0.134  0.00  0.00    -0.773 OA
HETATM   28  H   UNK N   1      -1.769   2.166  -0.248  0.00  0.00     0.167 HD
ENDBRANCH  25  27
ENDBRANCH   3  25
TORSDOF 7
