REMARK  1 active torsions:
REMARK  status: ('A' for Active; 'I' for Inactive)
REMARK    1  A    between atoms: C_2  and  C_5 
ROOT
HETATM    1  C   UNK N   1       0.659  -0.466   0.030  0.00  0.00     0.192 A 
HETATM    2  N   UNK N   1      -0.481   0.134  -0.133  0.00  0.00    -0.324 N 
ATOM      3  HN  UNK N   1      -1.325  -0.424  -0.263  1.00  0.00     0.169 HD
HETATM    4  C   UNK N   1      -0.576   1.550  -0.134  0.00  0.00     0.111 A 
HETATM    5  N   UNK N   1      -1.723   2.118  -0.239  0.00  0.00    -0.385 N 
ATOM      6  HN  UNK N   1      -2.572   1.553  -0.239  1.00  0.00     0.157 HD
HETATM    7  C   UNK N   1       0.655   2.337   0.036  0.00  0.00     0.014 A 
HETATM    8  C   UNK N   1       0.661   3.669   0.071  0.00  0.00     0.028 C 
HETATM    9  C   UNK N   1       1.900   1.575   0.201  0.00  0.00     0.104 A 
HETATM   10  N   UNK N   1       1.871   0.283   0.200  0.00  0.00    -0.347 N 
ATOM     11  HN  UNK N   1       2.747  -0.225   0.327  1.00  0.00     0.166 HD
HETATM   12  H   UNK N   1      -1.786   3.097  -0.320  0.00  0.00     0.157 HD
ENDROOT
BRANCH   1  13
HETATM   13  C   UNK N   1       0.701  -1.964   0.060  0.00  0.00     0.449 C 
HETATM   14  F   UNK N   1       0.329  -2.468  -1.173  0.00  0.00    -0.163 F 
HETATM   15  F   UNK N   1       1.977  -2.406   0.362  0.00  0.00    -0.163 F 
HETATM   16  F   UNK N   1      -0.173  -2.430   1.025  0.00  0.00    -0.163 F 
ENDBRANCH   1  13
TORSDOF 1
