REMARK  6 active torsions:
REMARK  status: ('A' for Active; 'I' for Inactive)
REMARK    1  A    between atoms: O_2  and  C_3 
REMARK    2  A    between atoms: C_3  and  C_4 
REMARK    3  A    between atoms: C_4  and  O_5 
REMARK    4  A    between atoms: O_5  and  C_6 
REMARK    5  A    between atoms: C_6  and  C_7 
REMARK    6  A    between atoms: C_7  and  O_8 
ROOT
HETATM    1  O   UNK N   1       5.855   2.720   0.000  0.00  0.00    -0.387 OA
ENDROOT
BRANCH   1   2
HETATM    2  C   UNK N   1       4.741   1.885  -0.000  0.00  0.00     0.193 C 
BRANCH   2   3
HETATM    3  C   UNK N   1       3.505   2.760  -0.000  0.00  0.00     0.193 C 
BRANCH   3   4
HETATM    4  O   UNK N   1       2.353   1.980  -0.000  0.00  0.00    -0.394 OA
HETATM    5  C   UNK N   1       1.313   2.909   0.000  0.00  0.00     0.201 C 
ENDBRANCH   3   4
ENDBRANCH   2   3
ENDBRANCH   1   2
BRANCH   1   6
HETATM    6  C   UNK N   1       6.969   1.884   0.000  0.00  0.00     0.193 C 
BRANCH   6   7
HETATM    7  C   UNK N   1       8.206   2.759   0.000  0.00  0.00     0.193 C 
BRANCH   7   8
HETATM    8  O   UNK N   1       9.357   1.977   0.000  0.00  0.00    -0.394 OA
HETATM    9  C   UNK N   1      10.398   2.906  -0.000  0.00  0.00     0.201 C 
ENDBRANCH   7   8
ENDBRANCH   6   7
ENDBRANCH   1   6
TORSDOF 6
