REMARK  15 active torsions:
REMARK  status: ('A' for Active; 'I' for Inactive)
REMARK    1  A    between atoms: C_4  and  C_1 
REMARK    2  A    between atoms: O_28  and  C_1 
REMARK    3  A    between atoms: C_6  and  O_19 
REMARK    4  A    between atoms: C_7  and  O_30 
REMARK    5  A    between atoms: N_11  and  C_8 
REMARK    6  A    between atoms: C_10  and  N_18 
REMARK    7  A    between atoms: P_32  and  O_20 
REMARK    8  A    between atoms: P_32  and  O_21 
REMARK    9  A    between atoms: P_33  and  O_23 
REMARK   10  A    between atoms: P_33  and  O_24 
REMARK   11  A    between atoms: P_34  and  O_26 
REMARK   12  A    between atoms: P_34  and  O_28 
REMARK   13  A    between atoms: P_32  and  O_30 
REMARK   14  A    between atoms: P_33  and  O_31 
REMARK   15  A    between atoms: P_34  and  O_31 
ROOT
HETATM    1  C   UNK N   1      -0.596  -1.138  -0.033  0.00  0.00     0.180 C 
HETATM    2  C   UNK N   1       0.756  -1.856  -0.094  0.00  0.00     0.183 C 
HETATM    3  C   UNK N   1       1.598  -0.700  -0.594  0.00  0.00     0.214 C 
HETATM    4  C   UNK N   1       1.067   0.336   0.394  0.00  0.00     0.263 C 
HETATM    5  O   UNK N   1      -0.342   0.178   0.428  0.00  0.00    -0.353 OA
ENDROOT
BRANCH   4   6
HETATM    6  N   UNK N   1       1.455   1.715   0.080  0.00  0.00    -0.297 N 
HETATM    7  C   UNK N   1       0.634   2.760  -0.200  0.00  0.00     0.188 A 
HETATM    8  N   UNK N   1       1.337   3.921  -0.341  0.00  0.00    -0.346 N 
HETATM    9  C   UNK N   1       2.617   3.563  -0.131  0.00  0.00     0.122 A 
ATOM     10  HN  UNK N   1       0.975   4.850  -0.557  1.00  0.00     0.167 HD
HETATM   11  C   UNK N   1       3.768   4.336  -0.104  0.00  0.00     0.131 A 
HETATM   12  C   UNK N   1       2.689   2.241   0.112  0.00  0.00     0.142 A 
HETATM   13  N   UNK N   1       4.955   3.712   0.159  0.00  0.00    -0.337 N 
HETATM   14  C   UNK N   1       5.004   2.360   0.398  0.00  0.00     0.183 A 
ATOM     15  HN  UNK N   1       5.817   4.258   0.178  1.00  0.00     0.168 HD
HETATM   16  N   UNK N   1       3.857   1.615   0.388  0.00  0.00    -0.336 N 
ATOM     17  HN  UNK N   1       3.881   0.614   0.583  1.00  0.00     0.168 HD
BRANCH  11  18
HETATM   18  N   UNK N   1       3.721   5.729  -0.315  0.00  0.00    -0.383 N 
HETATM   19  H   UNK N   1       4.547   6.244  -0.462  0.00  0.00     0.157 HD
HETATM   20  H   UNK N   1       2.852   6.192  -0.315  0.00  0.00     0.157 HD
ENDBRANCH  11  18
ENDBRANCH   4   6
BRANCH   3  21
HETATM   21  O   UNK N   1       3.019  -0.717  -0.596  0.00  0.00    -0.284 OA
BRANCH  21  22
HETATM   22  P   UNK N   1       3.864  -2.174  -0.104  0.00  0.00     0.391 P 
HETATM   23  O   UNK N   1       3.196  -2.864   1.113  0.00  0.00    -0.632 OA
BRANCH  22  24
HETATM   24  O   UNK N   1       4.044  -3.326  -1.388  0.00  0.00    -0.307 OA
HETATM   25  H   UNK N   1       3.536  -3.736  -2.107  0.00  0.00     0.222 HD
ENDBRANCH  22  24
BRANCH  22  26
HETATM   26  O   UNK N   1       5.437  -1.703   0.458  0.00  0.00    -0.307 OA
HETATM   27  H   UNK N   1       6.104  -2.333   0.773  0.00  0.00     0.222 HD
ENDBRANCH  22  26
ENDBRANCH  21  22
ENDBRANCH   3  21
BRANCH   2  28
HETATM   28  O   UNK N   1       0.748  -2.956  -0.956  0.00  0.00    -0.390 OA
HETATM   29  H   UNK N   1       0.084  -3.333  -1.554  0.00  0.00     0.210 HD
ENDBRANCH   2  28
BRANCH   1  30
HETATM   30  C   UNK N   1      -1.610  -1.827   0.885  0.00  0.00     0.215 C 
BRANCH  30  31
HETATM   31  O   UNK N   1      -1.673  -3.203   0.645  0.00  0.00    -0.294 OA
BRANCH  31  32
HETATM   32  P   UNK N   1      -2.955  -3.472  -0.509  0.00  0.00     0.401 P 
HETATM   33  O   UNK N   1      -2.409  -3.027  -1.892  0.00  0.00    -0.631 OA
BRANCH  32  34
HETATM   34  O   UNK N   1      -4.367  -2.513  -0.185  0.00  0.00    -0.307 OA
HETATM   35  H   UNK N   1      -4.298  -1.563  -0.004  0.00  0.00     0.222 HD
ENDBRANCH  32  34
BRANCH  32  36
HETATM   36  O   UNK N   1      -3.348  -5.167  -0.692  0.00  0.00    -0.195 OA
BRANCH  36  37
HETATM   37  P   UNK N   1      -2.476  -6.040   0.543  0.00  0.00     0.399 P 
HETATM   38  O   UNK N   1      -1.413  -6.012  -0.592  0.00  0.00    -0.631 OA
BRANCH  37  39
HETATM   39  O   UNK N   1      -2.061  -7.715   0.356  0.00  0.00    -0.307 OA
HETATM   40  H   UNK N   1      -2.756  -8.383   0.252  0.00  0.00     0.222 HD
ENDBRANCH  37  39
BRANCH  37  41
HETATM   41  O   UNK N   1      -3.838  -6.967  -0.002  0.00  0.00    -0.307 OA
HETATM   42  H   UNK N   1      -4.667  -6.567  -0.306  0.00  0.00     0.222 HD
ENDBRANCH  37  41
ENDBRANCH  36  37
ENDBRANCH  32  36
ENDBRANCH  31  32
ENDBRANCH  30  31
ENDBRANCH   1  30
TORSDOF 15
