REMARK  30 active torsions:
REMARK  status: ('A' for Active; 'I' for Inactive)
REMARK    1  A    between atoms: C_4  and  C_60 
REMARK    2  A    between atoms: C_5  and  C_55 
REMARK    3  A    between atoms: C_6  and  C_21 
REMARK    4  A    between atoms: C_11  and  C_50 
REMARK    5  A    between atoms: C_22  and  C_30 
REMARK    6  A    between atoms: C_23  and  C_24 
REMARK    7  A    between atoms: C_24  and  C_25 
REMARK    8  A    between atoms: C_25  and  C_26 
REMARK       I    between atoms: C_26  and  N_28 
REMARK    9  A    between atoms: C_30  and  C_31 
REMARK       I    between atoms: C_31  and  N_33 
REMARK   10  A    between atoms: C_36  and  C_44 
REMARK   11  A    between atoms: C_37  and  C_38 
REMARK   12  A    between atoms: C_38  and  C_39 
REMARK   13  A    between atoms: C_39  and  C_40 
REMARK       I    between atoms: C_40  and  N_42 
REMARK   14  A    between atoms: C_44  and  C_45 
REMARK       I    between atoms: C_45  and  N_47 
REMARK   15  A    between atoms: C_50  and  C_51 
REMARK   16  A    between atoms: C_51  and  C_52 
REMARK       I    between atoms: C_52  and  N_54 
REMARK   17  A    between atoms: C_55  and  C_56 
REMARK       I    between atoms: C_56  and  N_58 
REMARK   18  A    between atoms: C_60  and  C_61 
REMARK   19  A    between atoms: C_61  and  C_62 
REMARK       I    between atoms: C_62  and  N_64 
REMARK   20  A    between atoms: N_64  and  C_65 
REMARK   21  A    between atoms: C_65  and  C_66 
REMARK   22  A    between atoms: C_66  and  O_68 
REMARK   23  A    between atoms: P_69  and  O_68 
REMARK   24  A    between atoms: P_69  and  O_72 
REMARK   25  A    between atoms: C_73  and  O_72 
REMARK   26  A    between atoms: C_74  and  C_91 
REMARK   27  A    between atoms: C_76  and  N_79 
REMARK   28  A    between atoms: C_77  and  O_78 
REMARK   29  A    between atoms: C_87  and  O_89 
REMARK   30  A    between atoms: C_91  and  O_92 
ROOT
HETATM    1  C   UNK N   1       1.537   2.706   2.548  0.00  0.00     0.022 C 
HETATM    2  C   UNK N   1       1.327   2.098   1.190  0.00  0.00     0.078 C 
HETATM    3  C   UNK N   1       0.093   1.704   0.871  0.00  0.00     0.031 C 
HETATM    4  C   UNK N   1      -0.332   0.859  -0.228  0.00  0.00     0.007 C 
HETATM    5  C   UNK N   1      -1.766   0.683   0.552  0.00  0.00     0.059 C 
HETATM    6  C   UNK N   1      -2.015   2.074   0.845  0.00  0.00     0.049 C 
HETATM    7  N   UNK N   1      -0.877   2.594   0.832  0.00  0.00    -0.262 N 
HETATM    8 Co   UNK N   1      -0.635   4.207   0.071  0.00  0.00     0.000 Co
HETATM    9  N   UNK N   1       1.266   3.973  -0.110  0.00  0.00    -0.260 N 
HETATM   10  C   UNK N   1       1.911   2.940   0.243  0.00  0.00     0.027 C 
HETATM   11  C   UNK N   1       3.374   2.966  -0.077  0.00  0.00     0.048 C 
HETATM   12  C   UNK N   1       3.530   4.459  -0.373  0.00  0.00     0.006 C 
HETATM   13  C   UNK N   1       2.116   4.838  -0.757  0.00  0.00     0.045 C 
HETATM   14  C   UNK N   1       1.719   6.028  -1.232  0.00  0.00     0.055 C 
HETATM   15  C   UNK N   1       0.338   6.569  -1.074  0.00  0.00     0.041 C 
HETATM   16  N   UNK N   1      -0.624   5.898  -0.586  0.00  0.00    -0.260 N 
HETATM   17  C   UNK N   1      -1.646   6.744  -0.168  0.00  0.00     0.031 C 
HETATM   18  C   UNK N   1      -2.903   6.455  -0.303  0.00  0.00     0.078 C 
HETATM   19  C   UNK N   1      -3.290   5.134   0.082  0.00  0.00     0.022 C 
HETATM   20  N   UNK N   1      -2.480   4.217   0.254  0.00  0.00    -0.280 N 
HETATM   21  C   UNK N   1      -3.105   2.913   0.303  0.00  0.00     0.099 C 
HETATM   22  C   UNK N   1      -4.535   3.222   0.810  0.00  0.00     0.005 C 
HETATM   23  C   UNK N   1      -4.647   4.707   0.350  0.00  0.00     0.046 C 
HETATM   24  C   UNK N   1      -4.626   2.927   2.304  0.00  0.00     0.019 C 
HETATM   25  C   UNK N   1      -3.288   2.398  -1.156  0.00  0.00     0.048 C 
HETATM   26  C   UNK N   1      -3.325   6.701  -1.722  0.00  0.00     0.022 C 
HETATM   27  C   UNK N   1      -1.095   8.072   0.129  0.00  0.00     0.015 C 
HETATM   28  C   UNK N   1      -0.014   8.061  -1.014  0.00  0.00     0.052 C 
HETATM   29  C   UNK N   1      -0.472   7.884   1.519  0.00  0.00     0.023 C 
HETATM   30  C   UNK N   1       3.783   4.976   1.034  0.00  0.00     0.022 C 
HETATM   31  C   UNK N   1       4.694   4.901  -1.235  0.00  0.00     0.022 C 
HETATM   32  C   UNK N   1      -0.587   1.645  -1.540  0.00  0.00     0.022 C 
ENDROOT
BRANCH   4  33
HETATM   33  C   UNK N   1       0.903   0.172  -0.764  0.00  0.00     0.025 C 
BRANCH  33  34
HETATM   34  C   UNK N   1       1.914  -0.406   0.175  0.00  0.00     0.104 C 
BRANCH  34  35
HETATM   35  C   UNK N   1       1.318  -0.838   1.465  0.00  0.00     0.217 C 
HETATM   36  O   UNK N   1       1.931  -0.572   2.487  0.00  0.00    -0.274 OA
HETATM   37  N   UNK N   1       0.121  -1.486   1.554  0.00  0.00    -0.359 N 
HETATM   38  H   UNK N   1      -0.137  -1.702   2.480  0.00  0.00     0.162 HD
BRANCH  37  39
HETATM   39  C   UNK N   1      -0.870  -1.931   0.551  0.00  0.00     0.154 C 
BRANCH  39  40
HETATM   40  C   UNK N   1      -0.698  -1.964  -1.034  0.00  0.00     0.148 C 
HETATM   41  C   UNK N   1      -1.694  -2.867  -1.733  0.00  0.00     0.042 C 
BRANCH  40  42
HETATM   42  O   UNK N   1       0.566  -2.182  -1.607  0.00  0.00    -0.283 OA
BRANCH  42  43
HETATM   43  P   UNK N   1       1.367  -3.420  -0.725  0.00  0.00     0.409 P 
HETATM   44  O   UNK N   1       0.348  -3.939   0.302  0.00  0.00    -0.624 OA
HETATM   45  O   UNK N   1       2.619  -2.848   0.335  0.00  0.00    -0.624 OA
BRANCH  43  46
HETATM   46  O   UNK N   1       1.719  -4.883  -1.595  0.00  0.00    -0.279 OA
BRANCH  46  47
HETATM   47  C   UNK N   1       1.996  -5.881  -0.630  0.00  0.00     0.198 C 
HETATM   48  C   UNK N   1       2.916  -5.395   0.503  0.00  0.00     0.180 C 
HETATM   49  O   UNK N   1       2.576  -6.005   1.731  0.00  0.00    -0.353 OA
HETATM   50  C   UNK N   1       1.524  -6.908   1.420  0.00  0.00     0.261 C 
HETATM   51  C   UNK N   1       0.812  -6.291   0.246  0.00  0.00     0.199 C 
BRANCH  48  52
HETATM   52  C   UNK N   1       4.382  -4.959   0.288  0.00  0.00     0.198 C 
BRANCH  52  53
HETATM   53  O   UNK N   1       4.521  -4.039  -0.759  0.00  0.00    -0.398 OA
HETATM   54  H   UNK N   1       5.121  -3.803  -1.484  0.00  0.00     0.209 HD
ENDBRANCH  52  53
ENDBRANCH  48  52
BRANCH  50  55
HETATM   55  N   UNK N   1       2.066  -8.151   0.901  0.00  0.00    -0.311 N 
HETATM   56  C   UNK N   1       1.320  -9.171   0.421  0.00  0.00     0.186 A 
HETATM   57  N   UNK N   1       2.091 -10.086  -0.210  0.00  0.00    -0.350 N 
HETATM   58  C   UNK N   1       3.340  -9.603  -0.104  0.00  0.00     0.062 A 
ATOM     59  HN  UNK N   1       1.791 -10.948  -0.665  1.00  0.00     0.166 HD
HETATM   60  C   UNK N   1       3.334  -8.446   0.587  0.00  0.00     0.064 A 
HETATM   61  C   UNK N   1       4.505 -10.151  -0.607  0.00  0.00     0.068 A 
HETATM   62  C   UNK N   1       4.503  -7.729   0.828  0.00  0.00     0.035 A 
HETATM   63  C   UNK N   1       5.706  -8.249   0.357  0.00  0.00     0.039 A 
HETATM   64  C   UNK N   1       5.713  -9.475  -0.352  0.00  0.00     0.070 A 
BRANCH  64  65
HETATM   65  O   UNK N   1       6.869 -10.056  -0.725  0.00  0.00    -0.356 OA
HETATM   66  C   UNK N   1       8.073  -9.710  -0.158  0.00  0.00     0.210 C 
ENDBRANCH  64  65
ENDBRANCH  50  55
BRANCH  51  67
HETATM   67  O   UNK N   1      -0.195  -7.046  -0.361  0.00  0.00    -0.388 OA
HETATM   68  H   UNK N   1      -0.999  -6.703  -0.782  0.00  0.00     0.210 HD
ENDBRANCH  51  67
ENDBRANCH  46  47
ENDBRANCH  43  46
ENDBRANCH  42  43
ENDBRANCH  40  42
ENDBRANCH  39  40
ENDBRANCH  37  39
ENDBRANCH  34  35
ENDBRANCH  33  34
ENDBRANCH   4  33
BRANCH   5  69
HETATM   69  C   UNK N   1      -2.887  -0.238   1.012  0.00  0.00     0.114 C 
BRANCH  69  70
HETATM   70  C   UNK N   1      -3.490  -0.979  -0.120  0.00  0.00     0.216 C 
HETATM   71  O   UNK N   1      -3.297  -0.620  -1.270  0.00  0.00    -0.274 OA
HETATM   72  N   UNK N   1      -4.221  -2.079   0.130  0.00  0.00    -0.370 N 
HETATM   73  H   UNK N   1      -5.186  -2.019   0.313  0.00  0.00     0.159 HD
HETATM   74  H   UNK N   1      -3.783  -2.961   0.130  0.00  0.00     0.159 HD
ENDBRANCH  69  70
ENDBRANCH   5  69
BRANCH  11  75
HETATM   75  C   UNK N   1       3.665   2.034  -1.261  0.00  0.00     0.021 C 
BRANCH  75  76
HETATM   76  C   UNK N   1       5.166   1.943  -1.538  0.00  0.00     0.103 C 
BRANCH  76  77
HETATM   77  C   UNK N   1       5.950   1.754  -0.275  0.00  0.00     0.215 C 
HETATM   78  O   UNK N   1       5.800   0.747   0.397  0.00  0.00    -0.274 OA
HETATM   79  N   UNK N   1       6.778   2.729   0.150  0.00  0.00    -0.370 N 
HETATM   80  H   UNK N   1       7.697   2.561   0.461  0.00  0.00     0.159 HD
HETATM   81  H   UNK N   1       6.446   3.656   0.150  0.00  0.00     0.159 HD
ENDBRANCH  76  77
ENDBRANCH  75  76
ENDBRANCH  11  75
BRANCH  28  82
HETATM   82  C   UNK N   1       1.137   9.077  -0.957  0.00  0.00     0.021 C 
BRANCH  82  83
HETATM   83  C   UNK N   1       1.892   9.157   0.368  0.00  0.00     0.103 C 
BRANCH  83  84
HETATM   84  C   UNK N   1       2.622   7.900   0.668  0.00  0.00     0.215 C 
HETATM   85  O   UNK N   1       3.597   7.586   0.004  0.00  0.00    -0.274 OA
HETATM   86  N   UNK N   1       2.150   7.070   1.619  0.00  0.00    -0.370 N 
HETATM   87  H   UNK N   1       1.452   7.065   2.313  0.00  0.00     0.159 HD
HETATM   88  H   UNK N   1       2.648   6.221   1.619  0.00  0.00     0.159 HD
ENDBRANCH  83  84
ENDBRANCH  82  83
ENDBRANCH  28  82
BRANCH  27  89
HETATM   89  C   UNK N   1      -2.045   9.227   0.460  0.00  0.00     0.118 C 
BRANCH  89  90
HETATM   90  C   UNK N   1      -3.175   9.645  -0.408  0.00  0.00     0.216 C 
HETATM   91  O   UNK N   1      -4.140   8.922  -0.580  0.00  0.00    -0.274 OA
HETATM   92  N   UNK N   1      -3.232  10.923  -0.805  0.00  0.00    -0.370 N 
HETATM   93  H   UNK N   1      -2.439  11.429  -1.096  0.00  0.00     0.159 HD
HETATM   94  H   UNK N   1      -4.106  11.377  -0.805  0.00  0.00     0.159 HD
ENDBRANCH  89  90
ENDBRANCH  27  89
BRANCH  23  95
HETATM   95  C   UNK N   1      -5.478   5.659   1.188  0.00  0.00     0.020 C 
BRANCH  95  96
HETATM   96  C   UNK N   1      -6.947   5.400   0.885  0.00  0.00     0.103 C 
BRANCH  96  97
HETATM   97  C   UNK N   1      -7.226   5.423  -0.596  0.00  0.00     0.215 C 
HETATM   98  O   UNK N   1      -6.962   6.415  -1.254  0.00  0.00    -0.274 OA
HETATM   99  N   UNK N   1      -7.750   4.339  -1.202  0.00  0.00    -0.370 N 
HETATM  100  H   UNK N   1      -8.627   4.275  -1.645  0.00  0.00     0.159 HD
HETATM  101  H   UNK N   1      -7.197   3.525  -1.202  0.00  0.00     0.159 HD
ENDBRANCH  96  97
ENDBRANCH  95  96
ENDBRANCH  23  95
BRANCH  22 102
HETATM  102  C   UNK N   1      -5.747   2.704   0.023  0.00  0.00     0.115 C 
BRANCH 102 103
HETATM  103  C   UNK N   1      -6.143   1.291  -0.033  0.00  0.00     0.216 C 
HETATM  104  O   UNK N   1      -5.613   0.469   0.679  0.00  0.00    -0.274 OA
HETATM  105  N   UNK N   1      -7.159   0.932  -0.840  0.00  0.00    -0.370 N 
HETATM  106  H   UNK N   1      -7.758   1.444  -1.430  0.00  0.00     0.159 HD
HETATM  107  H   UNK N   1      -7.339  -0.036  -0.840  0.00  0.00     0.159 HD
ENDBRANCH 102 103
ENDBRANCH  22 102
TORSDOF 30
