REMARK  0 active torsions:
REMARK  status: ('A' for Active; 'I' for Inactive)
REMARK       I    between atoms: N_1  and  C_2 
REMARK       I    between atoms: C_2  and  N_4 
ROOT
HETATM    1  N   UNK N   1      -0.446   3.368  -0.000  0.00  0.00    -0.233 N 
HETATM    2  C   UNK N   1       0.747   2.610  -0.000  0.00  0.00     0.691 C 
HETATM    3  N   UNK N   1       1.880   3.210   0.000  0.00  0.00    -0.233 N 
HETATM    4  N   UNK N   1       0.682   1.177   0.000  0.00  0.00    -0.082 N 
HETATM    5  C   UNK N   1       1.713   0.315   0.000  0.00  0.00     0.226 A 
HETATM    6  N   UNK N   1       1.247  -0.950   0.000  0.00  0.00    -0.345 N 
ATOM      7  HN  UNK N   1       1.788  -1.815   0.000  1.00  0.00     0.167 HD
HETATM    8  C   UNK N   1      -0.098  -0.815  -0.000  0.00  0.00     0.199 A 
HETATM    9  N   UNK N   1      -0.441   0.487  -0.000  0.00  0.00    -0.274 N 
ATOM     10  HN  UNK N   1      -1.388   0.867  -0.000  1.00  0.00     0.189 HD
HETATM   11  H   UNK N   1      -0.404   4.351  -0.000  0.00  0.00     0.174 HD
HETATM   12  H   UNK N   1      -1.319   2.912  -0.000  0.00  0.00     0.174 HD
HETATM   13  H   UNK N   1       2.714   2.688   0.000  0.00  0.00     0.174 HD
HETATM   14  H   UNK N   1       1.915   4.194   0.000  0.00  0.00     0.174 HD
ENDROOT
TORSDOF 0
