REMARK  5 active torsions:
REMARK  status: ('A' for Active; 'I' for Inactive)
REMARK    1  A    between atoms: C_2  and  C_1 
REMARK    2  A    between atoms: O_11  and  C_1 
REMARK    3  A    between atoms: C_3  and  O_12 
REMARK    4  A    between atoms: C_4  and  O_13 
REMARK    5  A    between atoms: C_5  and  O_14 
ROOT
HETATM    1  C   UNK N   1       1.514   0.368   0.817  0.00  0.00     0.144 C 
HETATM    2  C   UNK N   1       2.664   0.866  -0.095  0.00  0.00     0.174 C 
HETATM    3  C   UNK N   1       2.805   2.409  -0.022  0.00  0.00     0.181 C 
HETATM    4  C   UNK N   1       1.467   3.097  -0.391  0.00  0.00     0.192 C 
HETATM    5  C   UNK N   1       0.355   2.595   0.541  0.00  0.00     0.222 A 
HETATM    6  C   UNK N   1      -1.698   1.888  -0.171  0.00  0.00     0.311 A 
HETATM    7  C   UNK N   1      -0.893   0.728   0.064  0.00  0.00     0.313 A 
HETATM    8  N   UNK N   1      -0.979   2.992   0.094  0.00  0.00    -0.329 N 
HETATM    9  N   UNK N   1       0.321   1.140   0.482  0.00  0.00    -0.311 N 
HETATM   10  O   UNK N   1      -2.857   1.906  -0.554  0.00  0.00    -0.262 OA
HETATM   11  O   UNK N   1      -1.232  -0.433  -0.094  0.00  0.00    -0.262 OA
HETATM   12  H   UNK N   1      -1.299   3.919   0.003  0.00  0.00     0.165 HD
ENDROOT
BRANCH   1  13
HETATM   13  C   UNK N   1       1.342  -1.158   0.752  0.00  0.00     0.192 C 
BRANCH  13  14
HETATM   14  O   UNK N   1       1.230  -1.616  -0.562  0.00  0.00    -0.399 OA
HETATM   15  H   UNK N   1       0.915  -1.708  -1.475  0.00  0.00     0.209 HD
ENDBRANCH  13  14
ENDBRANCH   1  13
BRANCH   2  16
HETATM   16  O   UNK N   1       3.869   0.259   0.269  0.00  0.00    -0.391 OA
HETATM   17  H   UNK N   1       3.923  -0.676   0.522  0.00  0.00     0.210 HD
ENDBRANCH   2  16
BRANCH   3  18
HETATM   18  O   UNK N   1       3.201   2.791   1.264  0.00  0.00    -0.390 OA
HETATM   19  H   UNK N   1       3.568   2.685   2.156  0.00  0.00     0.210 HD
ENDBRANCH   3  18
BRANCH   4  20
HETATM   20  O   UNK N   1       1.588   4.485  -0.291  0.00  0.00    -0.389 OA
HETATM   21  H   UNK N   1       2.464   4.895  -0.221  0.00  0.00     0.210 HD
ENDBRANCH   4  20
TORSDOF 5
