REMARK  1 active torsions:
REMARK  status: ('A' for Active; 'I' for Inactive)
REMARK    1  A    between atoms: N_11  and  C_6 
ROOT
HETATM    1  C   UNK N   1       4.794   1.394  -0.000  0.00  0.00     0.003 A 
HETATM    2  C   UNK N   1       3.606   2.144  -0.000  0.00  0.00     0.015 A 
HETATM    3  C   UNK N   1       4.749  -0.016  -0.000  0.00  0.00     0.038 A 
HETATM    4  C   UNK N   1       1.102   1.891  -0.000  0.00  0.00     0.120 A 
HETATM    5  C   UNK N   1       2.403   1.448  -0.000  0.00  0.00     0.011 A 
HETATM    6  C   UNK N   1       3.513  -0.699   0.000  0.00  0.00     0.131 A 
HETATM    7  C   UNK N   1       2.346   0.087   0.000  0.00  0.00     0.092 A 
HETATM    8  N   UNK N   1       0.304   0.794   0.000  0.00  0.00    -0.310 N 
HETATM    9  N   UNK N   1       1.060  -0.302   0.000  0.00  0.00    -0.298 N 
ATOM     10  HN  UNK N   1       0.724  -1.265   0.000  1.00  0.00     0.187 HD
HETATM   11  H   UNK N   1      -0.680   0.806   0.000  0.00  0.00     0.186 HD
ENDROOT
BRANCH   6  12
HETATM   12  N   UNK N   1       3.487  -2.124   0.000  0.00  0.00    -0.113 N 
HETATM   13  O   UNK N   1       4.513  -2.737   0.000  0.00  0.00    -0.532 OA
HETATM   14  O   UNK N   1       2.451  -2.715  -0.000  0.00  0.00    -0.532 OA
ENDBRANCH   6  12
TORSDOF 1
