REMARK  9 active torsions:
REMARK  status: ('A' for Active; 'I' for Inactive)
REMARK    1  A    between atoms: C_14  and  C_11 
REMARK    2  A    between atoms: C_16  and  C_11 
REMARK    3  A    between atoms: C_17  and  C_12 
REMARK    4  A    between atoms: N_22  and  C_12 
REMARK    5  A    between atoms: C_15  and  C_13 
REMARK    6  A    between atoms: O_27  and  C_13 
REMARK    7  A    between atoms: C_17  and  C_16 
REMARK    8  A    between atoms: C_16  and  N_23 
REMARK       I    between atoms: N_23  and  C_18 
REMARK    9  A    between atoms: O_27  and  C_18 
ROOT
HETATM    1  C   UNK N   1       4.157   3.630  -0.204  0.00  0.00     0.163 C 
ENDROOT
BRANCH   1   2
HETATM    2  C   UNK N   1       4.724   4.724   0.712  0.00  0.00     0.071 C 
BRANCH   2   3
HETATM    3  C   UNK N   1       6.102   5.180   0.367  0.00  0.00    -0.056 A 
HETATM    4  C   UNK N   1       6.348   6.519   0.062  0.00  0.00     0.007 A 
HETATM    5  C   UNK N   1       7.652   6.932  -0.236  0.00  0.00     0.001 A 
HETATM    6  C   UNK N   1       8.702   6.006  -0.233  0.00  0.00     0.000 A 
HETATM    7  C   UNK N   1       8.457   4.672   0.087  0.00  0.00     0.001 A 
HETATM    8  C   UNK N   1       7.166   4.270   0.401  0.00  0.00     0.007 A 
ENDBRANCH   2   3
ENDBRANCH   1   2
BRANCH   1   9
HETATM    9  C   UNK N   1       5.135   2.492  -0.423  0.00  0.00     0.181 C 
HETATM   10  O   UNK N   1       5.470   2.179  -1.562  0.00  0.00    -0.293 OA
BRANCH   9  11
HETATM   11  C   UNK N   1       5.584   1.672   0.765  0.00  0.00     0.325 C 
BRANCH  11  12
HETATM   12  N   UNK N   1       6.733   0.917   0.467  0.00  0.00    -0.370 N 
HETATM   13  N   UNK N   1       7.647   0.323   0.213  0.00  0.00    -0.285 N 
ATOM     14  HN2 UNK N   1       7.013   0.992  -0.227  1.00  0.00     0.191 HD
ATOM     15  HN1 UNK N   1       8.479  -0.225  -0.003  1.00  0.00     0.191 HD
ENDBRANCH  11  12
ENDBRANCH   9  11
ENDBRANCH   1   9
BRANCH   1  16
HETATM   16  N   UNK N   1       3.070   3.036   0.513  0.00  0.00    -0.325 N 
HETATM   17  C   UNK N   1       2.404   1.974   0.027  0.00  0.00     0.361 C 
HETATM   18  O   UNK N   1       2.428   1.712  -1.172  0.00  0.00    -0.238 OA
ATOM     19  HN  UNK N   1       2.794   3.428   1.414  1.00  0.00     0.165 HD
BRANCH  17  20
HETATM   20  O   UNK N   1       1.896   1.100   0.914  0.00  0.00    -0.299 OA
BRANCH  20  21
HETATM   21  C   UNK N   1       1.299  -0.069   0.531  0.00  0.00     0.219 C 
BRANCH  21  22
HETATM   22  C   UNK N   1      -0.119   0.212   0.208  0.00  0.00    -0.034 A 
HETATM   23  C   UNK N   1      -0.973  -0.844  -0.088  0.00  0.00     0.009 A 
HETATM   24  C   UNK N   1      -2.316  -0.587  -0.362  0.00  0.00     0.001 A 
HETATM   25  C   UNK N   1      -2.800   0.726  -0.344  0.00  0.00     0.000 A 
HETATM   26  C   UNK N   1      -1.943   1.787  -0.054  0.00  0.00     0.001 A 
HETATM   27  C   UNK N   1      -0.608   1.530   0.225  0.00  0.00     0.009 A 
ENDBRANCH  21  22
ENDBRANCH  20  21
ENDBRANCH  17  20
ENDBRANCH   1  16
TORSDOF 9
