REMARK  16 active torsions:
REMARK  status: ('A' for Active; 'I' for Inactive)
REMARK    1  A    between atoms: C_9  and  C_5 
REMARK    2  A    between atoms: O_22  and  C_5 
REMARK    3  A    between atoms: C_10  and  C_6 
REMARK    4  A    between atoms: O_23  and  C_6 
REMARK    5  A    between atoms: C_11  and  C_7 
REMARK    6  A    between atoms: O_31  and  C_8 
REMARK    7  A    between atoms: C_18  and  C_11 
REMARK    8  A    between atoms: C_11  and  N_21 
REMARK    9  A    between atoms: C_12  and  O_24 
REMARK   10  A    between atoms: C_13  and  O_25 
REMARK   11  A    between atoms: C_14  and  O_26 
REMARK   12  A    between atoms: C_15  and  O_27 
REMARK   13  A    between atoms: C_17  and  O_34 
REMARK   14  A    between atoms: O_30  and  C_18 
REMARK   15  A    between atoms: C_19  and  O_34 
REMARK   16  A    between atoms: C_20  and  O_31 
ROOT
HETATM    1  C   UNK N   1      -2.576   2.440  -0.399  0.00  0.00     0.179 C 
HETATM    2  C   UNK N   1      -2.728   1.233   0.583  0.00  0.00     0.180 C 
HETATM    3  C   UNK N   1      -1.337   0.625   0.714  0.00  0.00     0.183 C 
HETATM    4  C   UNK N   1      -0.369   1.656   1.346  0.00  0.00     0.204 C 
HETATM    5  C   UNK N   1      -0.791   3.118   1.022  0.00  0.00     0.292 C 
HETATM    6  O   UNK N   1      -0.326   1.516   2.737  0.00  0.00    -0.388 OA
HETATM    7  O   UNK N   1      -1.364   3.199  -0.275  0.00  0.00    -0.348 OA
HETATM    8  H   UNK N   1      -0.396   1.441   3.701  0.00  0.00     0.210 HD
ENDROOT
BRANCH   3   9
HETATM    9  O   UNK N   1      -1.355  -0.568   1.441  0.00  0.00    -0.390 OA
HETATM   10  H   UNK N   1      -2.078  -0.972   1.945  0.00  0.00     0.210 HD
ENDBRANCH   3   9
BRANCH   5  11
HETATM   11  O   UNK N   1       0.345   3.964   1.204  0.00  0.00    -0.346 OA
BRANCH  11  12
HETATM   12  C   UNK N   1       0.409   5.098   0.344  0.00  0.00     0.211 C 
HETATM   13  C   UNK N   1      -0.593   6.199   0.780  0.00  0.00     0.183 C 
HETATM   14  C   UNK N   1      -0.375   7.473  -0.050  0.00  0.00     0.180 C 
HETATM   15  C   UNK N   1       1.096   7.898   0.086  0.00  0.00     0.179 C 
HETATM   16  O   UNK N   1       1.942   6.864  -0.392  0.00  0.00    -0.348 OA
HETATM   17  C   UNK N   1       1.838   5.720   0.440  0.00  0.00     0.298 C 
BRANCH  13  18
HETATM   18  O   UNK N   1      -1.914   5.780   0.633  0.00  0.00    -0.390 OA
HETATM   19  H   UNK N   1      -2.626   6.431   0.531  0.00  0.00     0.210 HD
ENDBRANCH  13  18
BRANCH  14  20
HETATM   20  O   UNK N   1      -0.680   7.227  -1.394  0.00  0.00    -0.390 OA
HETATM   21  H   UNK N   1      -0.933   7.325  -2.325  0.00  0.00     0.210 HD
ENDBRANCH  14  20
BRANCH  15  22
HETATM   22  C   UNK N   1       1.351   9.167  -0.716  0.00  0.00     0.198 C 
BRANCH  22  23
HETATM   23  O   UNK N   1       2.669   9.593  -0.537  0.00  0.00    -0.398 OA
HETATM   24  H   UNK N   1       3.383   8.948  -0.413  0.00  0.00     0.209 HD
ENDBRANCH  22  23
ENDBRANCH  15  22
BRANCH  17  25
HETATM   25  O   UNK N   1       2.917   4.882   0.169  0.00  0.00    -0.318 OA
BRANCH  25  26
HETATM   26  C   UNK N   1       2.969   3.590  -0.243  0.00  0.00     0.072 A 
HETATM   27  C   UNK N   1       4.042   2.815   0.195  0.00  0.00     0.037 A 
HETATM   28  C   UNK N   1       4.098   1.456  -0.096  0.00  0.00     0.012 A 
HETATM   29  C   UNK N   1       3.095   0.842  -0.859  0.00  0.00    -0.026 A 
HETATM   30  C   UNK N   1       2.060   1.641  -1.375  0.00  0.00     0.012 A 
HETATM   31  C   UNK N   1       1.991   3.004  -1.061  0.00  0.00     0.037 A 
BRANCH  29  32
HETATM   32  C   UNK N   1       3.066  -0.660  -1.104  0.00  0.00     0.207 C 
BRANCH  32  33
HETATM   33  C   UNK N   1       4.097  -1.509  -0.376  0.00  0.00     0.167 C 
HETATM   34  O   UNK N   1       4.898  -1.023   0.408  0.00  0.00    -0.648 OA
BRANCH  33  35
HETATM   35  O   UNK N   1       4.102  -2.841  -0.568  0.00  0.00    -0.775 OA
HETATM   36  H   UNK N   1       3.301  -3.308  -0.703  0.00  0.00     0.167 HD
ENDBRANCH  33  35
ENDBRANCH  32  33
BRANCH  32  37
HETATM   37  N   UNK N   1       1.752  -1.161  -0.727  0.00  0.00    -0.414 N 
HETATM   38  H   UNK N   1       0.988  -0.540  -0.463  0.00  0.00     0.151 HD
HETATM   39  H   UNK N   1       1.591  -2.168  -0.727  0.00  0.00     0.151 HD
ENDBRANCH  32  37
ENDBRANCH  29  32
ENDBRANCH  25  26
ENDBRANCH  17  25
ENDBRANCH  11  12
ENDBRANCH   5  11
BRANCH   2  40
HETATM   40  O   UNK N   1      -3.198   1.620   1.844  0.00  0.00    -0.390 OA
HETATM   41  H   UNK N   1      -3.128   2.036   2.717  0.00  0.00     0.210 HD
ENDBRANCH   2  40
BRANCH   1  42
HETATM   42  C   UNK N   1      -3.815   3.336  -0.447  0.00  0.00     0.198 C 
BRANCH  42  43
HETATM   43  O   UNK N   1      -4.031   3.980   0.773  0.00  0.00    -0.398 OA
HETATM   44  H   UNK N   1      -3.718   4.333   1.620  0.00  0.00     0.209 HD
ENDBRANCH  42  43
ENDBRANCH   1  42
TORSDOF 16
