REMARK  23 active torsions:
REMARK  status: ('A' for Active; 'I' for Inactive)
REMARK    1  A    between atoms: C_25  and  C_16 
REMARK    2  A    between atoms: O_72  and  C_16 
REMARK    3  A    between atoms: C_26  and  C_17 
REMARK    4  A    between atoms: O_73  and  C_17 
REMARK    5  A    between atoms: C_28  and  C_21 
REMARK    6  A    between atoms: C_34  and  C_22 
REMARK    7  A    between atoms: C_24  and  N_58 
REMARK    8  A    between atoms: C_37  and  C_28 
REMARK    9  A    between atoms: C_28  and  N_56 
REMARK   10  A    between atoms: C_29  and  O_59 
REMARK   11  A    between atoms: C_30  and  O_60 
REMARK   12  A    between atoms: C_31  and  O_62 
REMARK   13  A    between atoms: C_32  and  O_63 
REMARK   14  A    between atoms: N_41  and  C_33 
REMARK   15  A    between atoms: N_42  and  C_34 
REMARK   16  A    between atoms: O_65  and  C_34 
REMARK       I    between atoms: N_54  and  C_37 
REMARK   17  A    between atoms: C_38  and  N_55 
REMARK   18  A    between atoms: C_39  and  N_57 
REMARK   19  A    between atoms: P_78  and  O_70 
REMARK   20  A    between atoms: P_77  and  O_72 
REMARK   21  A    between atoms: P_78  and  O_73 
REMARK   22  A    between atoms: P_77  and  O_76 
REMARK   23  A    between atoms: P_78  and  O_76 
ROOT
HETATM    1  C   UNK N   1      -4.924  -6.016   0.412  0.00  0.00     0.180 C 
HETATM    2  C   UNK N   1      -4.895  -6.976  -0.754  0.00  0.00     0.182 C 
HETATM    3  C   UNK N   1      -4.499  -8.226  -0.037  0.00  0.00     0.198 C 
HETATM    4  C   UNK N   1      -3.570  -7.674   1.097  0.00  0.00     0.259 C 
HETATM    5  O   UNK N   1      -3.768  -6.282   1.167  0.00  0.00    -0.353 OA
ENDROOT
BRANCH   4   6
HETATM    6  N   UNK N   1      -2.179  -7.982   0.862  0.00  0.00    -0.337 N 
HETATM    7  C   UNK N   1      -1.259  -6.960   0.468  0.00  0.00     0.091 C 
HETATM    8  C   UNK N   1      -0.111  -7.272  -0.144  0.00  0.00     0.017 C 
HETATM    9  C   UNK N   1       0.256  -8.711  -0.327  0.00  0.00     0.147 C 
HETATM   10  C   UNK N   1      -0.851  -9.770  -0.015  0.00  0.00     0.031 C 
HETATM   11  C   UNK N   1      -1.899  -9.348   0.661  0.00  0.00     0.106 C 
BRANCH   9  12
HETATM   12  N   UNK N   1       1.409  -8.964  -1.229  0.00  0.00    -0.192 NA
HETATM   13  C   UNK N   1       1.360 -10.104  -1.952  0.00  0.00     0.102 C 
HETATM   14  C   UNK N   1       2.421 -10.864  -1.553  0.00  0.00     0.059 C 
HETATM   15  C   UNK N   1       3.175 -10.071  -0.774  0.00  0.00     0.131 C 
HETATM   16  C   UNK N   1       2.534 -12.250  -1.499  0.00  0.00     0.119 C 
HETATM   17  N   UNK N   1       4.114 -10.548   0.046  0.00  0.00    -0.337 N 
HETATM   18  N   UNK N   1       2.589  -8.894  -0.621  0.00  0.00    -0.299 N 
HETATM   19  C   UNK N   1       4.119 -11.886   0.256  0.00  0.00     0.186 C 
ATOM     20  HN  UNK N   1       4.795  -9.934   0.494  1.00  0.00     0.168 HD
HETATM   21  N   UNK N   1       3.253 -12.739  -0.413  0.00  0.00    -0.315 N 
ATOM     22  HN  UNK N   1       2.972  -8.085  -0.131  1.00  0.00     0.183 HD
HETATM   23  S   UNK N   1       1.725 -13.084  -2.352  0.00  0.00    -0.059 SA
BRANCH  21  24
HETATM   24  C   UNK N   1       2.977 -13.997   0.357  0.00  0.00     0.216 C 
BRANCH  24  25
HETATM   25  C   UNK N   1       1.664 -14.814   0.347  0.00  0.00    -0.026 A 
HETATM   26  C   UNK N   1       1.614 -15.998   1.106  0.00  0.00     0.010 A 
HETATM   27  C   UNK N   1       0.414 -16.698   1.285  0.00  0.00     0.001 A 
HETATM   28  C   UNK N   1      -0.767 -16.219   0.718  0.00  0.00     0.000 A 
HETATM   29  C   UNK N   1      -0.753 -15.027  -0.001  0.00  0.00     0.001 A 
HETATM   30  C   UNK N   1       0.444 -14.317  -0.148  0.00  0.00     0.010 A 
ENDBRANCH  24  25
BRANCH  24  31
HETATM   31  C   UNK N   1       4.258 -14.709   0.730  0.00  0.00     0.247 C 
HETATM   32  N   UNK N   1       4.846 -15.618  -0.087  0.00  0.00    -0.350 N 
HETATM   33  C   UNK N   1       4.246 -16.003  -1.344  0.00  0.00     0.126 C 
HETATM   34  C   UNK N   1       6.161 -16.123   0.247  0.00  0.00     0.126 C 
HETATM   35  C   UNK N   1       3.449 -17.310  -1.232  0.00  0.00     0.020 C 
HETATM   36  C   UNK N   1       3.984 -18.341  -0.234  0.00  0.00     0.002 C 
HETATM   37  C   UNK N   1       5.496 -18.485  -0.275  0.00  0.00     0.002 C 
HETATM   38  C   UNK N   1       6.108 -17.553   0.755  0.00  0.00     0.020 C 
HETATM   39  O   UNK N   1       4.803 -14.402   1.785  0.00  0.00    -0.271 OA
ENDBRANCH  24  31
ENDBRANCH  21  24
ENDBRANCH   9  12
BRANCH  10  40
HETATM   40  C   UNK N   1      -1.015 -11.198  -0.434  0.00  0.00     0.143 C 
BRANCH  40  41
HETATM   41  N   UNK N   1      -0.744 -11.574  -1.622  0.00  0.00    -0.380 N 
HETATM   42  H   UNK N   1      -0.890 -11.901  -2.539  0.00  0.00     0.158 HD
ATOM     43  HN  UNK N   1       0.271 -11.471  -1.622  1.00  0.00     0.158 HD
ENDBRANCH  40  41
BRANCH  40  44
HETATM   44  O   UNK N   1      -1.750 -12.028   0.338  0.00  0.00    -0.346 OA
ATOM     45  HO  UNK N   1      -1.853 -12.934   0.072  1.00  0.00     0.219 HD
ENDBRANCH  40  44
ENDBRANCH  10  40
ENDBRANCH   4   6
BRANCH   3  46
HETATM   46  O   UNK N   1      -3.931  -9.131  -0.942  0.00  0.00    -0.388 OA
HETATM   47  H   UNK N   1      -4.277  -9.786  -1.569  0.00  0.00     0.210 HD
ENDBRANCH   3  46
BRANCH   2  48
HETATM   48  O   UNK N   1      -6.130  -7.112  -1.393  0.00  0.00    -0.390 OA
HETATM   49  H   UNK N   1      -6.641  -6.417  -1.837  0.00  0.00     0.210 HD
ENDBRANCH   2  48
BRANCH   1  50
HETATM   50  C   UNK N   1      -4.905  -4.557  -0.011  0.00  0.00     0.216 C 
BRANCH  50  51
HETATM   51  O   UNK N   1      -4.547  -3.838   1.129  0.00  0.00    -0.287 OA
BRANCH  51  52
HETATM   52  P   UNK N   1      -4.483  -2.158   0.729  0.00  0.00     0.417 P 
HETATM   53  O   UNK N   1      -3.408  -2.424   2.066  0.00  0.00    -0.624 OA
HETATM   54  O   UNK N   1      -5.322  -1.385   1.779  0.00  0.00    -0.624 OA
BRANCH  52  55
HETATM   55  O   UNK N   1      -3.033  -1.250   0.398  0.00  0.00    -0.188 OA
BRANCH  55  56
HETATM   56  P   UNK N   1      -2.550  -1.537  -1.256  0.00  0.00     0.402 P 
HETATM   57  O   UNK N   1      -2.427  -0.133  -1.903  0.00  0.00    -0.631 OA
BRANCH  56  58
HETATM   58  O   UNK N   1      -3.715  -2.411  -2.206  0.00  0.00    -0.307 OA
HETATM   59  H   UNK N   1      -4.462  -2.092  -2.735  0.00  0.00     0.222 HD
ENDBRANCH  56  58
BRANCH  56  60
HETATM   60  O   UNK N   1      -0.955  -2.233  -1.359  0.00  0.00    -0.294 OA
BRANCH  60  61
HETATM   61  C   UNK N   1      -0.601  -2.497  -0.036  0.00  0.00     0.215 C 
BRANCH  61  62
HETATM   62  C   UNK N   1       0.561  -1.629   0.452  0.00  0.00     0.180 C 
HETATM   63  C   UNK N   1       1.951  -2.007  -0.100  0.00  0.00     0.182 C 
HETATM   64  C   UNK N   1       2.533  -0.657  -0.491  0.00  0.00     0.198 C 
HETATM   65  C   UNK N   1       1.717   0.244   0.412  0.00  0.00     0.262 C 
HETATM   66  O   UNK N   1       0.391  -0.231   0.277  0.00  0.00    -0.353 OA
BRANCH  63  67
HETATM   67  O   UNK N   1       1.920  -2.885  -1.188  0.00  0.00    -0.390 OA
ATOM     68  HO  UNK N   1       2.776  -3.118  -1.528  1.00  0.00     0.210 HD
ENDBRANCH  63  67
BRANCH  64  69
HETATM   69  O   UNK N   1       2.223  -0.362  -1.824  0.00  0.00    -0.388 OA
ATOM     70  HO  UNK N   1       2.587   0.481  -2.068  1.00  0.00     0.210 HD
ENDBRANCH  64  69
BRANCH  65  71
HETATM   71  N   UNK N   1       1.849   1.678   0.124  0.00  0.00    -0.297 N 
HETATM   72  C   UNK N   1       0.857   2.587  -0.060  0.00  0.00     0.188 A 
HETATM   73  N   UNK N   1       1.359   3.854  -0.166  0.00  0.00    -0.346 N 
HETATM   74  C   UNK N   1       2.690   3.696  -0.049  0.00  0.00     0.122 A 
ATOM     75  HN  UNK N   1       0.842   4.722  -0.304  1.00  0.00     0.167 HD
HETATM   76  C   UNK N   1       3.709   4.640  -0.041  0.00  0.00     0.131 A 
HETATM   77  C   UNK N   1       2.984   2.392   0.112  0.00  0.00     0.142 A 
HETATM   78  N   UNK N   1       4.993   4.196   0.100  0.00  0.00    -0.337 N 
HETATM   79  C   UNK N   1       5.267   2.857   0.240  0.00  0.00     0.183 A 
ATOM     80  HN  UNK N   1       5.760   4.869   0.101  1.00  0.00     0.168 HD
HETATM   81  N   UNK N   1       4.251   1.941   0.263  0.00  0.00    -0.336 N 
ATOM     82  HN  UNK N   1       4.442   0.947   0.391  1.00  0.00     0.168 HD
BRANCH  76  83
HETATM   83  N   UNK N   1       3.433   6.019  -0.149  0.00  0.00    -0.383 N 
HETATM   84  H   UNK N   1       4.171   6.666  -0.224  0.00  0.00     0.157 HD
HETATM   85  H   UNK N   1       2.501   6.334  -0.149  0.00  0.00     0.157 HD
ENDBRANCH  76  83
ENDBRANCH  65  71
ENDBRANCH  61  62
ENDBRANCH  60  61
ENDBRANCH  56  60
ENDBRANCH  55  56
ENDBRANCH  52  55
ENDBRANCH  51  52
ENDBRANCH  50  51
ENDBRANCH   1  50
TORSDOF 23
