REMARK  12 active torsions:
REMARK  status: ('A' for Active; 'I' for Inactive)
REMARK    1  A    between atoms: C_5  and  C_2 
REMARK    2  A    between atoms: O_14  and  C_2 
REMARK    3  A    between atoms: C_3  and  O_15 
REMARK    4  A    between atoms: C_10  and  C_4 
REMARK    5  A    between atoms: C_6  and  N_13 
REMARK    6  A    between atoms: C_7  and  O_16 
REMARK    7  A    between atoms: C_8  and  O_29 
REMARK    8  A    between atoms: C_9  and  O_28 
REMARK    9  A    between atoms: C_11  and  O_19 
REMARK   10  A    between atoms: C_12  and  O_28 
REMARK   11  A    between atoms: S_30  and  N_13 
REMARK   12  A    between atoms: S_31  and  O_29 
ROOT
HETATM    1  C   UNK N   1      -0.811  -4.488   0.037  0.00  0.00     0.179 C 
HETATM    2  C   UNK N   1      -3.464  -5.660   0.195  0.00  0.00     0.181 C 
HETATM    3  C   UNK N   1      -3.408  -4.137   0.091  0.00  0.00     0.178 C 
HETATM    4  C   UNK N   1      -2.016  -3.516   0.396  0.00  0.00     0.186 C 
HETATM    5  C   UNK N   1      -2.328  -6.146  -0.709  0.00  0.00     0.283 C 
HETATM    6  O   UNK N   1      -1.118  -5.865  -0.065  0.00  0.00    -0.349 OA
ENDROOT
BRANCH   4   7
HETATM    7  O   UNK N   1      -2.038  -2.321  -0.394  0.00  0.00    -0.347 OA
BRANCH   7   8
HETATM    8  C   UNK N   1      -0.993  -1.361  -0.347  0.00  0.00     0.300 C 
HETATM    9  C   UNK N   1      -0.966  -0.503   0.950  0.00  0.00     0.233 C 
HETATM   10  C   UNK N   1       0.314   0.366   0.930  0.00  0.00     0.179 C 
HETATM   11  C   UNK N   1       1.519  -0.491   0.687  0.00  0.00     0.051 C 
HETATM   12  C   UNK N   1       1.433  -1.563  -0.120  0.00  0.00     0.147 C 
HETATM   13  O   UNK N   1       0.239  -1.925  -0.665  0.00  0.00    -0.311 OA
BRANCH   9  14
HETATM   14  O   UNK N   1      -2.156   0.231   1.348  0.00  0.00    -0.244 OA
BRANCH  14  15
HETATM   15  S   UNK N   1      -3.301   1.135   0.311  0.00  0.00     0.252 S 
HETATM   16  O   UNK N   1      -1.805   1.937   0.141  0.00  0.00    -0.572 OA
HETATM   17  O   UNK N   1      -3.509  -0.310  -0.133  0.00  0.00    -0.572 OA
HETATM   18  O   UNK N   1      -2.846   1.111  -1.156  0.00  0.00    -0.572 OA
ENDBRANCH  14  15
ENDBRANCH   9  14
BRANCH  10  19
HETATM   19  O   UNK N   1       0.464   1.048   2.138  0.00  0.00    -0.389 OA
HETATM   20  H   UNK N   1       0.927   1.195   2.978  0.00  0.00     0.210 HD
ENDBRANCH  10  19
BRANCH  12  21
HETATM   21  C   UNK N   1       2.629  -2.389  -0.393  0.00  0.00     0.233 C 
HETATM   22  O   UNK N   1       3.706  -2.110   0.103  0.00  0.00    -0.642 OA
HETATM   23  O   UNK N   1       2.521  -3.475  -1.185  0.00  0.00    -0.642 OA
ENDBRANCH  12  21
ENDBRANCH   7   8
ENDBRANCH   4   7
BRANCH   1  24
HETATM   24  C   UNK N   1       0.240  -4.511   1.165  0.00  0.00     0.198 C 
BRANCH  24  25
HETATM   25  O   UNK N   1       0.482  -3.288   1.777  0.00  0.00    -0.398 OA
HETATM   26  H   UNK N   1       1.307  -3.007   2.204  0.00  0.00     0.209 HD
ENDBRANCH  24  25
ENDBRANCH   1  24
BRANCH   3  27
HETATM   27  O   UNK N   1      -4.387  -3.547   0.899  0.00  0.00    -0.391 OA
HETATM   28  H   UNK N   1      -4.371  -2.755   1.459  0.00  0.00     0.210 HD
ENDBRANCH   3  27
BRANCH   2  29
HETATM   29  N   UNK N   1      -4.774  -6.118  -0.289  0.00  0.00    -0.289 N 
HETATM   30  H   UNK N   1      -5.383  -5.560  -0.888  0.00  0.00     0.175 HD
BRANCH  29  31
HETATM   31  S   UNK N   1      -5.183  -7.755   0.286  0.00  0.00     0.205 S 
HETATM   32  O   UNK N   1      -4.544  -9.047  -0.650  0.00  0.00    -0.578 OA
HETATM   33  O   UNK N   1      -6.713  -7.875   0.287  0.00  0.00    -0.578 OA
HETATM   34  O   UNK N   1      -4.792  -7.916   1.764  0.00  0.00    -0.578 OA
ENDBRANCH  29  31
ENDBRANCH   2  29
BRANCH   5  35
HETATM   35  O   UNK N   1      -2.388  -7.523  -0.894  0.00  0.00    -0.369 OA
HETATM   36  H   UNK N   1      -3.241  -7.967  -1.023  0.00  0.00     0.212 HD
ENDBRANCH   5  35
TORSDOF 12
