REMARK  16 active torsions:
REMARK  status: ('A' for Active; 'I' for Inactive)
REMARK    1  A    between atoms: C_14  and  C_13 
REMARK    2  A    between atoms: C_20  and  C_13 
REMARK    3  A    between atoms: C_23  and  C_14 
REMARK    4  A    between atoms: C_21  and  C_16 
REMARK    5  A    between atoms: C_24  and  C_16 
REMARK    6  A    between atoms: C_25  and  C_18 
REMARK    7  A    between atoms: O_34  and  C_18 
REMARK    8  A    between atoms: C_22  and  C_19 
REMARK    9  A    between atoms: O_38  and  C_19 
REMARK   10  A    between atoms: C_25  and  C_23 
REMARK   11  A    between atoms: C_23  and  N_30 
REMARK   12  A    between atoms: C_26  and  C_24 
REMARK   13  A    between atoms: C_24  and  N_32 
REMARK   14  A    between atoms: C_26  and  O_36 
REMARK   15  A    between atoms: C_27  and  O_37 
REMARK   16  A    between atoms: O_38  and  C_27 
ROOT
HETATM    1  C   UNK N   1       3.656   7.918   1.063  0.00  0.00     0.164 C 
ENDROOT
BRANCH   1   2
HETATM    2  C   UNK N   1       3.350   9.413   0.813  0.00  0.00     0.072 C 
BRANCH   2   3
HETATM    3  C   UNK N   1       4.302  10.332   0.085  0.00  0.00    -0.056 A 
HETATM    4  C   UNK N   1       3.892  11.654  -0.137  0.00  0.00     0.007 A 
HETATM    5  C   UNK N   1       4.748  12.571  -0.754  0.00  0.00     0.001 A 
HETATM    6  C   UNK N   1       6.029  12.177  -1.145  0.00  0.00     0.000 A 
HETATM    7  C   UNK N   1       6.450  10.863  -0.926  0.00  0.00     0.001 A 
HETATM    8  C   UNK N   1       5.589   9.946  -0.313  0.00  0.00     0.007 A 
ENDBRANCH   2   3
ENDBRANCH   1   2
BRANCH   1   9
HETATM    9  C   UNK N   1       3.019   6.963   0.074  0.00  0.00     0.135 C 
HETATM   10  N   UNK N   1       3.076   5.694   0.324  0.00  0.00    -0.361 N 
ATOM     11  HN  UNK N   1       3.474   5.411   1.219  1.00  0.00     0.162 HD
BRANCH  10  12
HETATM   12  C   UNK N   1       2.620   4.643  -0.565  0.00  0.00     0.155 C 
BRANCH  12  13
HETATM   13  C   UNK N   1       1.107   4.731  -0.864  0.00  0.00     0.037 C 
BRANCH  13  14
HETATM   14  C   UNK N   1       0.212   4.176   0.240  0.00  0.00     0.041 C 
BRANCH  14  15
HETATM   15  C   UNK N   1      -1.216   4.555   0.051  0.00  0.00    -0.058 A 
HETATM   16  C   UNK N   1      -2.168   3.579  -0.267  0.00  0.00     0.007 A 
HETATM   17  C   UNK N   1      -3.516   3.931  -0.391  0.00  0.00     0.001 A 
HETATM   18  C   UNK N   1      -3.915   5.255  -0.185  0.00  0.00     0.000 A 
HETATM   19  C   UNK N   1      -2.965   6.229   0.138  0.00  0.00     0.001 A 
HETATM   20  C   UNK N   1      -1.617   5.879   0.256  0.00  0.00     0.007 A 
ENDBRANCH  14  15
ENDBRANCH  13  14
ENDBRANCH  12  13
BRANCH  12  21
HETATM   21  C   UNK N   1       3.017   3.308   0.050  0.00  0.00     0.172 C 
HETATM   22  O   UNK N   1       2.569   2.997   1.144  0.00  0.00    -0.293 OA
BRANCH  21  23
HETATM   23  C   UNK N   1       3.984   2.360  -0.604  0.00  0.00     0.244 C 
BRANCH  23  24
HETATM   24  O   UNK N   1       4.557   2.888  -1.761  0.00  0.00    -0.394 OA
HETATM   25  H   UNK N   1       5.074   2.726  -2.565  0.00  0.00     0.209 HD
ENDBRANCH  23  24
ENDBRANCH  21  23
ENDBRANCH  12  21
ENDBRANCH  10  12
BRANCH   9  26
HETATM   26  O   UNK N   1       2.450   7.424  -1.061  0.00  0.00    -0.348 OA
HETATM   27  H   UNK N   1       2.529   7.926  -1.848  0.00  0.00     0.219 HD
ENDBRANCH   9  26
ENDBRANCH   1   9
BRANCH   1  28
HETATM   28  N   UNK N   1       5.077   7.650   1.305  0.00  0.00    -0.338 N 
HETATM   29  C   UNK N   1       5.902   7.067   0.490  0.00  0.00     0.259 C 
ATOM     30  HN  UNK N   1       5.455   7.952   2.203  1.00  0.00     0.164 HD
BRANCH  29  31
HETATM   31  O   UNK N   1       5.519   6.698  -0.756  0.00  0.00    -0.327 OA
HETATM   32  H   UNK N   1       5.165   6.800  -1.617  0.00  0.00     0.221 HD
ENDBRANCH  29  31
BRANCH  29  33
HETATM   33  O   UNK N   1       7.176   6.832   0.887  0.00  0.00    -0.312 OA
BRANCH  33  34
HETATM   34  C   UNK N   1       8.054   6.105   0.108  0.00  0.00     0.219 C 
BRANCH  34  35
HETATM   35  C   UNK N   1       7.794   4.625   0.193  0.00  0.00    -0.019 A 
HETATM   36  C   UNK N   1       8.500   3.752  -0.638  0.00  0.00     0.012 A 
HETATM   37  C   UNK N   1       8.265   2.378  -0.564  0.00  0.00     0.018 A 
HETATM   38  C   UNK N   1       7.326   1.891   0.348  0.00  0.00     0.087 A 
HETATM   39  N   UNK N   1       6.647   2.752   1.153  0.00  0.00    -0.375 N 
HETATM   40  C   UNK N   1       6.858   4.094   1.093  0.00  0.00     0.096 A 
ATOM     41  HN  UNK N   1       5.966   2.382   1.816  1.00  0.00     0.164 HD
ENDBRANCH  34  35
ENDBRANCH  33  34
ENDBRANCH  29  33
ENDBRANCH   1  28
TORSDOF 16
