REMARK  1 active torsions:
REMARK  status: ('A' for Active; 'I' for Inactive)
REMARK    1  A    between atoms: C_2  and  C_5 
ROOT
HETATM    1 Cl   UNK N   1       2.475  -2.045  -0.000  0.00  0.00    -0.076 Cl
HETATM    2  C   UNK N   1       1.341  -0.677  -0.000  0.00  0.00     0.241 C 
HETATM    3 Cl   UNK N   1       2.892   0.195   0.000  0.00  0.00    -0.076 Cl
HETATM    4 Cl   UNK N   1       0.013  -1.885   0.000  0.00  0.00    -0.076 Cl
ENDROOT
BRANCH   2   5
HETATM    5  C   UNK N   1       0.612   0.651  -0.000  0.00  0.00     0.290 C 
HETATM    6  O   UNK N   1      -0.606   0.754   0.000  0.00  0.00    -0.302 OA
ENDBRANCH   2   5
TORSDOF 1
