REMARK  13 active torsions:
REMARK  status: ('A' for Active; 'I' for Inactive)
REMARK    1  A    between atoms: C_6  and  N_2 
REMARK       I    between atoms: C_11  and  N_16 
REMARK    2  A    between atoms: C_17  and  C_19 
REMARK    3  A    between atoms: C_18  and  O_20 
REMARK    4  A    between atoms: C_19  and  O_21 
REMARK    5  A    between atoms: O_21  and  P_22 
REMARK    6  A    between atoms: P_22  and  O_23 
REMARK    7  A    between atoms: P_22  and  O_24 
REMARK    8  A    between atoms: O_23  and  P_26 
REMARK    9  A    between atoms: P_26  and  O_27 
REMARK   10  A    between atoms: P_26  and  O_28 
REMARK   11  A    between atoms: O_27  and  P_30 
REMARK   12  A    between atoms: P_30  and  O_31 
REMARK   13  A    between atoms: P_30  and  O_32 
ROOT
HETATM    1  C   UNK N   1       2.045   0.619  -0.631  0.00  0.00     0.233 C 
HETATM    2  O   UNK N   1       1.360   0.928   0.558  0.00  0.00    -0.356 OA
HETATM    3  C   UNK N   1       1.884  -0.859  -0.942  0.00  0.00     0.088 C 
HETATM    4  C   UNK N   1       0.781  -0.267   1.027  0.00  0.00     0.177 C 
HETATM    5  C   UNK N   1       0.722  -1.247  -0.111  0.00  0.00     0.153 C 
ENDROOT
BRANCH   4   6
HETATM    6  C   UNK N   1      -0.631   0.024   1.508  0.00  0.00     0.215 C 
BRANCH   6   7
HETATM    7  O   UNK N   1      -1.157   1.091   0.771  0.00  0.00    -0.294 OA
BRANCH   7   8
HETATM    8  P   UNK N   1      -2.391   0.437  -0.257  0.00  0.00     0.401 P 
HETATM    9  O   UNK N   1      -2.688   1.548  -1.302  0.00  0.00    -0.631 OA
BRANCH   8  10
HETATM   10  O   UNK N   1      -3.811   0.173   0.705  0.00  0.00    -0.195 OA
BRANCH  10  11
HETATM   11  P   UNK N   1      -5.166   0.131  -0.375  0.00  0.00     0.410 P 
HETATM   12  O   UNK N   1      -5.297   1.481   0.383  0.00  0.00    -0.631 OA
BRANCH  11  13
HETATM   13  O   UNK N   1      -6.694  -0.003   0.441  0.00  0.00    -0.195 OA
BRANCH  13  14
HETATM   14  P   UNK N   1      -7.907   0.073  -0.798  0.00  0.00     0.399 P 
HETATM   15  O   UNK N   1      -8.149   1.381   0.003  0.00  0.00    -0.631 OA
BRANCH  14  16
HETATM   16  O   UNK N   1      -8.148  -1.322   0.207  0.00  0.00    -0.307 OA
HETATM   17  H   UNK N   1      -8.891  -1.595   0.769  0.00  0.00     0.222 HD
ENDBRANCH  14  16
BRANCH  14  18
HETATM   18  O   UNK N   1      -9.572  -0.054  -0.328  0.00  0.00    -0.307 OA
HETATM   19  H   UNK N   1     -10.099   0.717  -0.065  0.00  0.00     0.222 HD
ENDBRANCH  14  18
ENDBRANCH  13  14
ENDBRANCH  11  13
BRANCH  11  20
HETATM   20  O   UNK N   1      -5.141  -1.273   0.645  0.00  0.00    -0.307 OA
HETATM   21  H   UNK N   1      -5.814  -1.678   1.215  0.00  0.00     0.222 HD
ENDBRANCH  11  20
ENDBRANCH  10  11
ENDBRANCH   8  10
BRANCH   8  22
HETATM   22  O   UNK N   1      -1.900  -0.985  -1.124  0.00  0.00    -0.307 OA
HETATM   23  H   UNK N   1      -2.451  -1.619  -1.609  0.00  0.00     0.222 HD
ENDBRANCH   8  22
ENDBRANCH   7   8
ENDBRANCH   6   7
ENDBRANCH   4   6
BRANCH   5  24
HETATM   24  O   UNK N   1       0.873  -2.552   0.359  0.00  0.00    -0.393 OA
HETATM   25  H   UNK N   1       0.139  -3.096   0.687  0.00  0.00     0.210 HD
ENDBRANCH   5  24
BRANCH   1  26
HETATM   26  N   UNK N   1       3.442   0.998  -0.461  0.00  0.00    -0.299 N 
HETATM   27  C   UNK N   1       4.512   0.220  -0.266  0.00  0.00     0.159 A 
HETATM   28  C   UNK N   1       5.598   0.991  -0.090  0.00  0.00     0.147 A 
HETATM   29  N   UNK N   1       4.558  -1.133  -0.204  0.00  0.00    -0.174 N 
HETATM   30  N   UNK N   1       5.255   2.291  -0.172  0.00  0.00    -0.345 N 
HETATM   31  C   UNK N   1       6.828   0.408   0.157  0.00  0.00     0.290 A 
HETATM   32  C   UNK N   1       3.911   2.270  -0.394  0.00  0.00     0.188 A 
ATOM     33  HN  UNK N   1       5.863   3.106  -0.088  1.00  0.00     0.167 HD
HETATM   34  N   UNK N   1       6.890  -0.969   0.216  0.00  0.00    -0.154 N 
HETATM   35  O   UNK N   1       7.826   1.083   0.329  0.00  0.00    -0.265 OA
HETATM   36  C   UNK N   1       5.761  -1.731   0.037  0.00  0.00     0.680 A 
HETATM   37  H   UNK N   1       7.753  -1.410   0.389  0.00  0.00     0.187 HD
HETATM   38  N   UNK N   1       5.841  -3.135   0.109  0.00  0.00    -0.234 N 
HETATM   39  H   UNK N   1       5.018  -3.674   0.160  0.00  0.00     0.174 HD
HETATM   40  H   UNK N   1       6.720  -3.578   0.109  0.00  0.00     0.174 HD
ATOM     41  HN  UNK N   1       3.714  -1.691  -0.335  1.00  0.00     0.186 HD
ENDBRANCH   1  26
TORSDOF 13
