REMARK  5 active torsions:
REMARK  status: ('A' for Active; 'I' for Inactive)
REMARK    1  A    between atoms: C_15  and  C_11 
REMARK    2  A    between atoms: C_14  and  O_20 
REMARK    3  A    between atoms: C_16  and  C_15 
REMARK    4  A    between atoms: C_15  and  O_18 
REMARK    5  A    between atoms: O_20  and  C_16 
ROOT
HETATM    1  C   UNK N   1       2.976  -2.662  -1.106  0.00  0.00     0.292 C 
HETATM    2  O   UNK N   1       2.922  -2.909  -2.302  0.00  0.00    -0.262 OA
ENDROOT
BRANCH   1   3
HETATM    3  C   UNK N   1       3.496  -3.738  -0.165  0.00  0.00     0.250 C 
BRANCH   3   4
HETATM    4  C   UNK N   1       2.618  -4.967  -0.145  0.00  0.00    -0.020 A 
HETATM    5  C   UNK N   1       3.133  -6.228  -0.491  0.00  0.00     0.010 A 
HETATM    6  C   UNK N   1       2.327  -7.367  -0.413  0.00  0.00     0.001 A 
HETATM    7  C   UNK N   1       1.001  -7.257   0.014  0.00  0.00     0.000 A 
HETATM    8  C   UNK N   1       0.480  -6.008   0.359  0.00  0.00     0.001 A 
HETATM    9  C   UNK N   1       1.285  -4.868   0.284  0.00  0.00     0.010 A 
ENDBRANCH   3   4
BRANCH   3  10
HETATM   10  O   UNK N   1       4.799  -4.068  -0.551  0.00  0.00    -0.381 OA
HETATM   11  H   UNK N   1       5.052  -4.965  -0.819  0.00  0.00     0.211 HD
ENDBRANCH   3  10
ENDBRANCH   1   3
BRANCH   1  12
HETATM   12  O   UNK N   1       2.621  -1.412  -0.681  0.00  0.00    -0.314 OA
BRANCH  12  13
HETATM   13  C   UNK N   1       2.334  -1.055   0.628  0.00  0.00     0.136 C 
HETATM   14  C   UNK N   1       2.201   0.479   0.726  0.00  0.00     0.068 C 
HETATM   15  C   UNK N   1       0.785   0.990   0.407  0.00  0.00     0.225 C 
HETATM   16  C   UNK N   1      -0.019   1.044   1.709  0.00  0.00     0.038 C 
HETATM   17  N   UNK N   1       0.118   0.003  -0.448  0.00  0.00     0.093 N 
HETATM   18  C   UNK N   1      -0.789  -0.267   1.738  0.00  0.00     0.038 C 
HETATM   19  C   UNK N   1      -0.239  -1.026   0.542  0.00  0.00     0.225 C 
HETATM   20  C   UNK N   1       1.028  -1.758   1.048  0.00  0.00     0.068 C 
HETATM   21  C   UNK N   1      -1.087   0.585  -1.044  0.00  0.00     0.310 C 
ENDBRANCH  12  13
ENDBRANCH   1  12
TORSDOF 5
