REMARK  3 active torsions:
REMARK  status: ('A' for Active; 'I' for Inactive)
REMARK    1  A    between atoms: O_1  and  C_2 
REMARK    2  A    between atoms: C_7  and  C_8 
REMARK    3  A    between atoms: C_8  and  C_9 
ROOT
HETATM    1  C   UNK N   1       1.618   0.749  -0.000  0.00  0.00     0.072 A 
HETATM    2  C   UNK N   1       1.655  -0.650  -0.000  0.00  0.00     0.037 A 
HETATM    3  C   UNK N   1       0.477  -1.395  -0.000  0.00  0.00     0.003 A 
HETATM    4  C   UNK N   1      -0.753  -0.745   0.000  0.00  0.00     0.001 A 
HETATM    5  C   UNK N   1      -0.803   0.648   0.000  0.00  0.00     0.010 A 
HETATM    6  C   UNK N   1       0.363   1.425   0.000  0.00  0.00    -0.022 A 
ENDROOT
BRANCH   6   7
HETATM    7  C   UNK N   1       0.104   2.922   0.000  0.00  0.00     0.067 C 
BRANCH   7   8
HETATM    8  C   UNK N   1       1.088   4.066  -0.000  0.00  0.00    -0.032 C 
HETATM    9  C   UNK N   1       2.409   3.975   0.000  0.00  0.00     0.007 C 
ENDBRANCH   7   8
ENDBRANCH   6   7
BRANCH   1  10
HETATM   10  O   UNK N   1       2.787   1.402  -0.000  0.00  0.00    -0.360 OA
HETATM   11  H   UNK N   1       3.591   0.922  -0.000  0.00  0.00     0.217 HD
ENDBRANCH   1  10
TORSDOF 3
