REMARK  1 active torsions:
REMARK  status: ('A' for Active; 'I' for Inactive)
REMARK    1  A    between atoms: C_2  and  N_1 
ROOT
HETATM    1  C   UNK N   1       1.659   0.417   0.510  0.00  0.00     0.177 A 
HETATM    2  C   UNK N   1       1.139  -0.998   0.254  0.00  0.00     0.061 A 
HETATM    3  C   UNK N   1      -0.333  -0.851  -0.175  0.00  0.00     0.181 A 
HETATM    4  O   UNK N   1      -0.548   0.495  -0.313  0.00  0.00    -0.320 OA
HETATM    5  C   UNK N   1       0.514   1.218   0.040  0.00  0.00     0.281 A 
HETATM    6  O   UNK N   1       0.515   2.436  -0.002  0.00  0.00    -0.263 OA
ENDROOT
BRANCH   1   7
HETATM    7  N   UNK N   1       2.828   0.672  -0.314  0.00  0.00    -0.418 N 
HETATM    8  H   UNK N   1       3.394   0.051  -0.893  0.00  0.00     0.150 HD
HETATM    9  H   UNK N   1       3.138   1.644  -0.314  0.00  0.00     0.150 HD
ENDBRANCH   1   7
TORSDOF 1
