REMARK WARNING: 32 MAX_TORS EXCEEDED!!!
REMARK  33 active torsions:
REMARK  status: ('A' for Active; 'I' for Inactive)
REMARK    1  A    between atoms: C_6  and  C_3 
REMARK    2  A    between atoms: C_16  and  C_3 
REMARK    3  A    between atoms: C_18  and  C_6 
REMARK    4  A    between atoms: C_11  and  C_7 
REMARK    5  A    between atoms: C_20  and  C_7 
REMARK    6  A    between atoms: C_12  and  C_8 
REMARK    7  A    between atoms: C_19  and  C_8 
REMARK    8  A    between atoms: C_13  and  C_9 
REMARK    9  A    between atoms: C_22  and  C_9 
REMARK   10  A    between atoms: C_14  and  C_10 
REMARK   11  A    between atoms: C_21  and  C_10 
REMARK   12  A    between atoms: C_23  and  C_11 
REMARK   13  A    between atoms: C_24  and  C_12 
REMARK   14  A    between atoms: C_25  and  C_13 
REMARK   15  A    between atoms: C_26  and  C_14 
REMARK   16  A    between atoms: C_29  and  C_17 
REMARK   17  A    between atoms: C_31  and  C_19 
REMARK   18  A    between atoms: C_19  and  N_39 
REMARK   19  A    between atoms: C_32  and  C_20 
REMARK   20  A    between atoms: C_20  and  N_41 
REMARK   21  A    between atoms: C_33  and  C_21 
REMARK   22  A    between atoms: N_43  and  C_21 
REMARK   23  A    between atoms: C_34  and  C_22 
REMARK   24  A    between atoms: C_22  and  N_45 
REMARK   25  A    between atoms: C_23  and  O_49 
REMARK   26  A    between atoms: O_50  and  C_24 
REMARK   27  A    between atoms: C_25  and  O_51 
REMARK   28  A    between atoms: O_53  and  C_26 
REMARK       I    between atoms: N_45  and  C_29 
REMARK   29  A    between atoms: O_55  and  C_30 
REMARK   30  A    between atoms: O_57  and  C_31 
REMARK   31  A    between atoms: O_59  and  C_32 
REMARK   32  A    between atoms: O_61  and  C_33 
REMARK   33  A    between atoms: O_63  and  C_34 
ROOT
HETATM    1  C   UNK N   1      -9.969   1.481   0.883  0.00  0.00     0.112 C 
HETATM    2  N   UNK N   1     -11.019   0.766   1.106  0.00  0.00    -0.360 N 
ATOM      3  HN  UNK N   1     -11.279   0.599   2.078  1.00  0.00     0.162 HD
ENDROOT
BRANCH   1   4
HETATM    4  C   UNK N   1      -9.578   1.896  -0.517  0.00  0.00     0.086 C 
BRANCH   4   5
HETATM    5  C   UNK N   1      -8.678   3.126  -0.574  0.00  0.00     0.044 C 
BRANCH   5   6
HETATM    6  C   UNK N   1      -9.204   4.342   0.201  0.00  0.00     0.183 C 
BRANCH   6   7
HETATM    7  C   UNK N   1     -10.466   4.839  -0.473  0.00  0.00     0.163 C 
HETATM    8  O   UNK N   1     -10.536   5.982  -0.897  0.00  0.00    -0.648 OA
BRANCH   7   9
HETATM    9  O   UNK N   1     -11.533   4.027  -0.595  0.00  0.00    -0.775 OA
HETATM   10  H   UNK N   1     -12.394   4.388  -0.680  0.00  0.00     0.167 HD
ENDBRANCH   7   9
ENDBRANCH   6   7
BRANCH   6  11
HETATM   11  N   UNK N   1      -8.249   5.439   0.276  0.00  0.00    -0.343 N 
HETATM   12  C   UNK N   1      -6.910   5.525   0.016  0.00  0.00     0.252 C 
HETATM   13  O   UNK N   1      -6.435   6.646  -0.087  0.00  0.00    -0.268 OA
HETATM   14  H   UNK N   1      -8.647   6.289   0.574  0.00  0.00     0.163 HD
BRANCH  12  15
HETATM   15  C   UNK N   1      -5.971   4.373  -0.158  0.00  0.00     0.032 A 
HETATM   16  C   UNK N   1      -4.819   4.581  -0.931  0.00  0.00     0.017 A 
HETATM   17  C   UNK N   1      -3.878   3.570  -1.103  0.00  0.00     0.008 A 
HETATM   18  C   UNK N   1      -4.043   2.343  -0.465  0.00  0.00    -0.058 A 
HETATM   19  C   UNK N   1      -5.174   2.121   0.333  0.00  0.00     0.008 A 
HETATM   20  C   UNK N   1      -6.134   3.132   0.485  0.00  0.00     0.017 A 
BRANCH  18  21
HETATM   21  C   UNK N   1      -2.992   1.299  -0.623  0.00  0.00     0.043 C 
BRANCH  21  22
HETATM   22  C   UNK N   1      -2.139   1.205   0.635  0.00  0.00     0.045 C 
BRANCH  22  23
HETATM   23  C   UNK N   1      -0.717   1.553   0.324  0.00  0.00    -0.024 A 
HETATM   24  C   UNK N   1       0.292   0.636   0.041  0.00  0.00     0.098 A 
HETATM   25  N   UNK N   1       1.454   1.296  -0.199  0.00  0.00    -0.350 N 
HETATM   26  C   UNK N   1       1.169   2.602  -0.062  0.00  0.00     0.136 A 
HETATM   27  H   UNK N   1       2.327   0.900  -0.426  0.00  0.00     0.166 HD
HETATM   28  C   UNK N   1      -0.135   2.802   0.260  0.00  0.00     0.067 A 
HETATM   29  N   UNK N   1       2.043   3.626  -0.213  0.00  0.00    -0.176 N 
HETATM   30  C   UNK N   1      -0.600   4.098   0.456  0.00  0.00     0.170 A 
HETATM   31  N   UNK N   1       0.279   5.132   0.301  0.00  0.00    -0.170 N 
HETATM   32  C   UNK N   1       1.589   4.903  -0.033  0.00  0.00     0.679 A 
ATOM     33  HN  UNK N   1      -0.044   6.090   0.437  1.00  0.00     0.186 HD
HETATM   34  N   UNK N   1       2.391   5.889  -0.171  0.00  0.00    -0.234 N 
HETATM   35  H   UNK N   1       3.358   5.734  -0.277  0.00  0.00     0.174 HD
ATOM     36  HN  UNK N   1       2.028   6.842  -0.171  1.00  0.00     0.174 HD
HETATM   37  H   UNK N   1       2.984   3.455  -0.446  0.00  0.00     0.186 HD
BRANCH  30  38
HETATM   38  O   UNK N   1      -1.873   4.342   0.803  0.00  0.00    -0.345 OA
HETATM   39  H   UNK N   1      -2.170   5.197   1.045  0.00  0.00     0.219 HD
ENDBRANCH  30  38
ENDBRANCH  22  23
ENDBRANCH  21  22
ENDBRANCH  18  21
ENDBRANCH  12  15
ENDBRANCH   6  11
ENDBRANCH   5   6
ENDBRANCH   4   5
ENDBRANCH   1   4
BRANCH   1  40
HETATM   40  O   UNK N   1      -9.198   1.837   1.930  0.00  0.00    -0.350 OA
HETATM   41  H   UNK N   1      -8.715   1.497   2.657  0.00  0.00     0.219 HD
ENDBRANCH   1  40
BRANCH   2  42
HETATM   42  C   UNK N   1     -11.860   0.179   0.075  0.00  0.00     0.181 C 
BRANCH  42  43
HETATM   43  C   UNK N   1     -11.808  -1.348   0.241  0.00  0.00     0.044 C 
BRANCH  43  44
HETATM   44  C   UNK N   1     -10.434  -1.820   0.735  0.00  0.00     0.086 C 
BRANCH  44  45
HETATM   45  C   UNK N   1      -9.411  -1.976  -0.354  0.00  0.00     0.112 C 
HETATM   46  N   UNK N   1      -8.733  -3.067  -0.481  0.00  0.00    -0.360 N 
ATOM     47  HN  UNK N   1      -8.060  -3.124  -1.245  1.00  0.00     0.162 HD
BRANCH  46  48
HETATM   48  C   UNK N   1      -8.866  -4.220   0.394  0.00  0.00     0.181 C 
BRANCH  48  49
HETATM   49  C   UNK N   1     -10.302  -4.764   0.426  0.00  0.00     0.044 C 
BRANCH  49  50
HETATM   50  C   UNK N   1     -11.057  -4.657  -0.898  0.00  0.00     0.086 C 
BRANCH  50  51
HETATM   51  C   UNK N   1     -12.174  -5.645  -0.921  0.00  0.00     0.112 C 
HETATM   52  N   UNK N   1     -12.894  -5.826   0.141  0.00  0.00    -0.360 N 
ATOM     53  HN  UNK N   1     -12.715  -5.222   0.943  1.00  0.00     0.162 HD
BRANCH  52  54
HETATM   54  C   UNK N   1     -13.937  -6.828   0.268  0.00  0.00     0.181 C 
BRANCH  54  55
HETATM   55  C   UNK N   1     -15.149  -6.493  -0.609  0.00  0.00     0.046 C 
BRANCH  55  56
HETATM   56  C   UNK N   1     -16.201  -5.717   0.175  0.00  0.00     0.112 C 
BRANCH  56  57
HETATM   57  C   UNK N   1     -17.519  -6.423   0.099  0.00  0.00     0.139 C 
HETATM   58  O   UNK N   1     -17.620  -7.584   0.464  0.00  0.00    -0.650 OA
BRANCH  57  59
HETATM   59  O   UNK N   1     -18.603  -5.770  -0.359  0.00  0.00    -0.776 OA
HETATM   60  H   UNK N   1     -18.586  -4.889  -0.678  0.00  0.00     0.167 HD
ENDBRANCH  57  59
ENDBRANCH  56  57
ENDBRANCH  55  56
ENDBRANCH  54  55
BRANCH  54  61
HETATM   61  C   UNK N   1     -13.387  -8.198  -0.044  0.00  0.00     0.163 C 
HETATM   62  O   UNK N   1     -12.430  -8.624   0.584  0.00  0.00    -0.648 OA
BRANCH  61  63
HETATM   63  O   UNK N   1     -13.932  -8.954  -1.017  0.00  0.00    -0.775 OA
HETATM   64  H   UNK N   1     -14.577  -8.889  -1.693  0.00  0.00     0.167 HD
ENDBRANCH  61  63
ENDBRANCH  54  61
ENDBRANCH  52  54
BRANCH  51  65
HETATM   65  O   UNK N   1     -12.365  -6.389  -2.029  0.00  0.00    -0.350 OA
HETATM   66  H   UNK N   1     -12.880  -6.532  -2.800  0.00  0.00     0.219 HD
ENDBRANCH  51  65
ENDBRANCH  50  51
ENDBRANCH  49  50
ENDBRANCH  48  49
BRANCH  48  67
HETATM   67  C   UNK N   1      -7.888  -5.280  -0.033  0.00  0.00     0.163 C 
HETATM   68  O   UNK N   1      -6.693  -5.032  -0.037  0.00  0.00    -0.648 OA
BRANCH  67  69
HETATM   69  O   UNK N   1      -8.312  -6.509  -0.390  0.00  0.00    -0.775 OA
HETATM   70  H   UNK N   1      -9.199  -6.681  -0.639  0.00  0.00     0.167 HD
ENDBRANCH  67  69
ENDBRANCH  48  67
ENDBRANCH  46  48
BRANCH  45  71
HETATM   71  O   UNK N   1      -9.175  -0.959  -1.202  0.00  0.00    -0.350 OA
HETATM   72  H   UNK N   1      -8.479  -0.747  -1.792  0.00  0.00     0.219 HD
ENDBRANCH  45  71
ENDBRANCH  44  45
ENDBRANCH  43  44
ENDBRANCH  42  43
BRANCH  42  73
HETATM   73  C   UNK N   1     -13.265   0.713   0.196  0.00  0.00     0.163 C 
HETATM   74  O   UNK N   1     -14.205  -0.037   0.409  0.00  0.00    -0.648 OA
BRANCH  73  75
HETATM   75  O   UNK N   1     -13.490   2.034   0.062  0.00  0.00    -0.775 OA
HETATM   76  H   UNK N   1     -12.772   2.629  -0.031  0.00  0.00     0.167 HD
ENDBRANCH  73  75
ENDBRANCH  42  73
ENDBRANCH   2  42
TORSDOF 33
