REMARK  3 active torsions:
REMARK  status: ('A' for Active; 'I' for Inactive)
REMARK    1  A    between atoms: C_2  and  O_3 
REMARK    2  A    between atoms: C_2  and  C_4 
REMARK    3  A    between atoms: C_4  and  O_6 
ROOT
HETATM    1  C   UNK N   1       0.876   2.381  -0.000  0.00  0.00     0.042 C 
HETATM    2  C   UNK N   1       1.460   0.983   0.000  0.00  0.00     0.142 C 
ENDROOT
BRANCH   2   3
HETATM    3  O   UNK N   1       2.849   0.846  -0.000  0.00  0.00    -0.393 OA
HETATM    4  H   UNK N   1       3.249  -0.038  -0.000  0.00  0.00     0.210 HD
ENDBRANCH   2   3
BRANCH   2   5
HETATM    5  C   UNK N   1       0.602  -0.269   0.000  0.00  0.00     0.142 C 
HETATM    6  C   UNK N   1       1.186  -1.667  -0.000  0.00  0.00     0.042 C 
BRANCH   5   7
HETATM    7  O   UNK N   1      -0.787  -0.132  -0.000  0.00  0.00    -0.393 OA
HETATM    8  H   UNK N   1      -1.187   0.752  -0.000  0.00  0.00     0.210 HD
ENDBRANCH   5   7
ENDBRANCH   2   5
TORSDOF 3
