REMARK  9 active torsions:
REMARK  status: ('A' for Active; 'I' for Inactive)
REMARK    1  A    between atoms: C_2  and  C_3 
REMARK    2  A    between atoms: C_3  and  N_4 
REMARK       I    between atoms: N_4  and  C_5 
REMARK       I    between atoms: C_5  and  N_7 
REMARK    3  A    between atoms: N_7  and  C_8 
REMARK    4  A    between atoms: C_8  and  C_9 
REMARK    5  A    between atoms: C_9  and  C_10 
REMARK    6  A    between atoms: C_10  and  C_11 
REMARK    7  A    between atoms: C_11  and  N_12 
REMARK    8  A    between atoms: C_11  and  C_13 
REMARK    9  A    between atoms: C_13  and  O_14 
ROOT
HETATM    1  N   UNK N   1       4.354   3.498   0.164  0.00  0.00    -0.227 N 
HETATM    2  C   UNK N   1       5.704   3.118  -0.052  0.00  0.00     0.667 C 
HETATM    3  N   UNK N   1       5.988   1.915  -0.399  0.00  0.00    -0.235 N 
HETATM    4  N   UNK N   1       6.727   4.102   0.045  0.00  0.00    -0.227 N 
HETATM    5  H   UNK N   1       4.150   4.425   0.426  0.00  0.00     0.177 HD
HETATM    6  H   UNK N   1       5.298   1.265  -0.665  0.00  0.00     0.174 HD
HETATM    7  H   UNK N   1       6.931   1.632  -0.399  0.00  0.00     0.174 HD
HETATM    8  H   UNK N   1       6.505   4.977   0.438  0.00  0.00     0.177 HD
ENDROOT
BRANCH   4   9
HETATM    9  C   UNK N   1       8.080   3.870  -0.408  0.00  0.00     0.138 C 
BRANCH   9  10
HETATM   10  C   UNK N   1       8.734   2.732   0.356  0.00  0.00     0.023 C 
BRANCH  10  11
HETATM   11  C   UNK N   1      10.077   2.394  -0.270  0.00  0.00     0.037 C 
BRANCH  11  12
HETATM   12  C   UNK N   1      11.202   3.119   0.454  0.00  0.00     0.173 C 
BRANCH  12  13
HETATM   13  N   UNK N   1      11.148   4.544   0.160  0.00  0.00    -0.418 N 
HETATM   14  H   UNK N   1      11.994   5.076  -0.046  0.00  0.00     0.150 HD
HETATM   15  H   UNK N   1      10.246   5.020   0.160  0.00  0.00     0.150 HD
ENDBRANCH  12  13
BRANCH  12  16
HETATM   16  C   UNK N   1      12.534   2.546   0.064  0.00  0.00     0.163 C 
HETATM   17  O   UNK N   1      12.761   1.360   0.243  0.00  0.00    -0.648 OA
BRANCH  16  18
HETATM   18  O   UNK N   1      13.495   3.335  -0.459  0.00  0.00    -0.775 OA
HETATM   19  H   UNK N   1      14.303   3.031  -0.822  0.00  0.00     0.167 HD
ENDBRANCH  16  18
ENDBRANCH  12  16
ENDBRANCH  11  12
ENDBRANCH  10  11
ENDBRANCH   9  10
ENDBRANCH   4   9
BRANCH   1  20
HETATM   20  C   UNK N   1       3.276   2.555   0.008  0.00  0.00     0.137 C 
BRANCH  20  21
HETATM   21  C   UNK N   1       1.948   3.271   0.115  0.00  0.00     0.016 C 
HETATM   22  C   UNK N   1       0.827   2.262  -0.020  0.00  0.00     0.006 C 
ENDBRANCH  20  21
ENDBRANCH   1  20
TORSDOF 9
