REMARK  9 active torsions:
REMARK  status: ('A' for Active; 'I' for Inactive)
REMARK    1  A    between atoms: O_2  and  C_34 
REMARK    2  A    between atoms: N_4  and  C_6 
REMARK       I    between atoms: N_4  and  C_7 
REMARK    3  A    between atoms: N_4  and  C_8 
REMARK    4  A    between atoms: N_5  and  C_26 
REMARK    5  A    between atoms: C_7  and  C_10 
REMARK    6  A    between atoms: C_8  and  C_9 
REMARK    7  A    between atoms: C_11  and  C_12 
REMARK    8  A    between atoms: C_15  and  C_29 
REMARK    9  A    between atoms: C_33  and  C_34 
ROOT
HETATM    1  O   UNK N   1      12.164  -7.866   0.017  0.00  0.00    -0.273 OA
HETATM    2  N   UNK N   1      11.019  -9.753   0.446  0.00  0.00    -0.313 N 
HETATM    3  C   UNK N   1      12.162  -9.085   0.096  0.00  0.00     0.228 C 
ENDROOT
BRANCH   2   4
HETATM    4  C   UNK N   1      10.906 -11.224   0.504  0.00  0.00     0.038 A 
HETATM    5  C   UNK N   1      12.021 -12.102   0.315  0.00  0.00     0.041 A 
HETATM    6  C   UNK N   1      11.866 -13.509   0.296  0.00  0.00    -0.034 A 
HETATM    7  C   UNK N   1      10.592 -14.055   0.432  0.00  0.00     0.011 A 
HETATM    8  C   UNK N   1       9.491 -13.229   0.626  0.00  0.00     0.003 A 
HETATM    9  C   UNK N   1       9.654 -11.843   0.689  0.00  0.00     0.030 A 
BRANCH   6  10
HETATM   10  C   UNK N   1      12.997 -14.466   0.194  0.00  0.00     0.017 C 
HETATM   11  C   UNK N   1      14.294 -14.160   0.046  0.00  0.00     0.083 C 
BRANCH  11  12
HETATM   12  C   UNK N   1      15.325 -15.242   0.056  0.00  0.00     0.282 C 
HETATM   13  O   UNK N   1      14.990 -16.386   0.323  0.00  0.00    -0.260 OA
BRANCH  12  14
HETATM   14  O   UNK N   1      16.633 -15.001  -0.213  0.00  0.00    -0.323 OA
HETATM   15  C   UNK N   1      17.127 -13.781  -0.599  0.00  0.00     0.213 C 
ENDBRANCH  12  14
ENDBRANCH  11  12
ENDBRANCH   6  10
ENDBRANCH   2   4
BRANCH   2  16
HETATM   16  C   UNK N   1       9.914  -8.853   0.823  0.00  0.00     0.170 C 
BRANCH  16  17
HETATM   17  C   UNK N   1       8.612  -9.109   0.182  0.00  0.00    -0.040 C 
HETATM   18  C   UNK N   1       8.546  -9.874  -0.982  0.00  0.00     0.010 C 
HETATM   19  C   UNK N   1       7.427 -10.658  -1.202  0.00  0.00     0.013 C 
HETATM   20  C   UNK N   1       6.367 -10.636  -0.284  0.00  0.00    -0.026 C 
HETATM   21  C   UNK N   1       6.362  -9.711   0.763  0.00  0.00     0.013 C 
HETATM   22  C   UNK N   1       7.501  -8.967   1.009  0.00  0.00     0.010 C 
BRANCH  20  23
HETATM   23  C   UNK N   1       5.428 -11.755  -0.243  0.00  0.00    -0.026 A 
HETATM   24  C   UNK N   1       4.312 -11.729   0.603  0.00  0.00     0.014 A 
HETATM   25  C   UNK N   1       3.486 -12.847   0.698  0.00  0.00     0.030 A 
HETATM   26  C   UNK N   1       3.795 -14.020  -0.011  0.00  0.00     0.029 A 
HETATM   27  C   UNK N   1       4.950 -14.059  -0.803  0.00  0.00     0.030 A 
HETATM   28  C   UNK N   1       5.755 -12.936  -0.920  0.00  0.00     0.014 A 
BRANCH  26  29
HETATM   29  N   UNK N   1       2.918 -15.140   0.023  0.00  0.00    -0.390 N 
HETATM   30  C   UNK N   1       1.627 -15.039   0.654  0.00  0.00     0.149 C 
HETATM   31  C   UNK N   1       3.238 -16.346  -0.698  0.00  0.00     0.149 C 
ENDBRANCH  26  29
ENDBRANCH  20  23
ENDBRANCH  16  17
ENDBRANCH   2  16
BRANCH   3  32
HETATM   32  C   UNK N   1      13.446  -9.789  -0.108  0.00  0.00     0.078 C 
HETATM   33  C   UNK N   1      13.737 -10.298  -1.509  0.00  0.00     0.014 C 
HETATM   34  C   UNK N   1      14.911 -11.289  -1.454  0.00  0.00     0.001 C 
HETATM   35  C   UNK N   1      15.624 -11.329  -0.088  0.00  0.00     0.000 C 
HETATM   36  C   UNK N   1      15.905  -9.922   0.429  0.00  0.00     0.001 C 
HETATM   37  C   UNK N   1      14.628  -9.095   0.560  0.00  0.00     0.014 C 
ENDBRANCH   3  32
TORSDOF 9
