REMARK  9 active torsions:
REMARK  status: ('A' for Active; 'I' for Inactive)
REMARK    1  A    between atoms: C_17  and  C_14 
REMARK    2  A    between atoms: C_22  and  C_14 
REMARK    3  A    between atoms: C_18  and  C_15 
REMARK    4  A    between atoms: C_26  and  C_15 
REMARK    5  A    between atoms: C_23  and  C_19 
REMARK    6  A    between atoms: O_32  and  C_20 
REMARK    7  A    between atoms: O_33  and  C_21 
REMARK    8  A    between atoms: C_26  and  O_36 
REMARK    9  A    between atoms: O_36  and  O_35 
ROOT
HETATM    1  C   UNK N   1       1.841  -0.089  -0.301  0.00  0.00     0.132 A 
HETATM    2  C   UNK N   1       1.712   2.610   0.338  0.00  0.00     0.059 A 
HETATM    3  C   UNK N   1       3.016   0.643  -0.073  0.00  0.00     0.059 A 
HETATM    4  C   UNK N   1       0.558   1.842   0.151  0.00  0.00     0.136 A 
HETATM    5  C   UNK N   1      -0.589   0.078  -0.311  0.00  0.00     0.288 A 
HETATM    6  C   UNK N   1      -1.595   1.157   0.028  0.00  0.00     0.255 A 
HETATM    7  N   UNK N   1       2.920   1.977   0.229  0.00  0.00    -0.354 N 
ATOM      8  HN  UNK N   1       3.775   2.513   0.376  1.00  0.00     0.166 HD
HETATM    9  N   UNK N   1      -0.653   2.253   0.266  0.00  0.00    -0.332 N 
ATOM     10  HN  UNK N   1      -0.922   3.211   0.491  1.00  0.00     0.164 HD
HETATM   11  N   UNK N   1       0.660   0.554  -0.174  0.00  0.00    -0.271 N 
HETATM   12  O   UNK N   1      -0.844  -1.074  -0.629  0.00  0.00    -0.267 OA
ENDROOT
BRANCH   6  13
HETATM   13  C   UNK N   1      -2.522   1.502  -1.155  0.00  0.00     0.113 C 
BRANCH  13  14
HETATM   14  C   UNK N   1      -3.959   1.644  -0.759  0.00  0.00    -0.053 A 
HETATM   15  C   UNK N   1      -4.487   2.896  -0.423  0.00  0.00     0.010 A 
HETATM   16  C   UNK N   1      -5.817   3.001   0.003  0.00  0.00     0.037 A 
HETATM   17  C   UNK N   1      -6.615   1.855   0.098  0.00  0.00     0.065 A 
HETATM   18  C   UNK N   1      -6.089   0.607  -0.245  0.00  0.00     0.037 A 
HETATM   19  C   UNK N   1      -4.765   0.503  -0.674  0.00  0.00     0.010 A 
BRANCH  17  20
HETATM   20  O   UNK N   1      -7.885   1.952   0.521  0.00  0.00    -0.361 OA
HETATM   21  H   UNK N   1      -8.270   2.753   0.816  0.00  0.00     0.217 HD
ENDBRANCH  17  20
ENDBRANCH  13  14
ENDBRANCH   6  13
BRANCH   6  22
HETATM   22  O   UNK N   1      -2.289   0.885   1.234  0.00  0.00    -0.199 OA
BRANCH  22  23
HETATM   23  O   UNK N   1      -2.730  -0.360   1.185  0.00  0.00    -0.247 OA
HETATM   24  H   UNK N   1      -3.683  -0.537   1.149  0.00  0.00     0.253 HD
ENDBRANCH  22  23
ENDBRANCH   6  22
BRANCH   2  25
HETATM   25  C   UNK N   1       1.612   4.080   0.675  0.00  0.00     0.099 C 
BRANCH  25  26
HETATM   26  C   UNK N   1       2.796   4.965   0.363  0.00  0.00    -0.052 A 
HETATM   27  C   UNK N   1       2.584   6.345   0.255  0.00  0.00     0.007 A 
HETATM   28  C   UNK N   1       3.649   7.206  -0.031  0.00  0.00     0.001 A 
HETATM   29  C   UNK N   1       4.937   6.693  -0.206  0.00  0.00     0.000 A 
HETATM   30  C   UNK N   1       5.161   5.320  -0.093  0.00  0.00     0.001 A 
HETATM   31  C   UNK N   1       4.096   4.461   0.190  0.00  0.00     0.007 A 
ENDBRANCH  25  26
ENDBRANCH   2  25
BRANCH   3  32
HETATM   32  C   UNK N   1       4.330  -0.028  -0.097  0.00  0.00    -0.008 A 
HETATM   33  C   UNK N   1       4.411  -1.419  -0.273  0.00  0.00     0.016 A 
HETATM   34  C   UNK N   1       5.649  -2.064  -0.248  0.00  0.00     0.037 A 
HETATM   35  C   UNK N   1       6.816  -1.325  -0.050  0.00  0.00     0.065 A 
HETATM   36  C   UNK N   1       6.747   0.060   0.124  0.00  0.00     0.037 A 
HETATM   37  C   UNK N   1       5.507   0.707   0.106  0.00  0.00     0.016 A 
BRANCH  35  38
HETATM   38  O   UNK N   1       8.006  -1.947  -0.024  0.00  0.00    -0.361 OA
HETATM   39  H   UNK N   1       8.045  -2.883  -0.006  0.00  0.00     0.217 HD
ENDBRANCH  35  38
ENDBRANCH   3  32
TORSDOF 9
