REMARK  4 active torsions:
REMARK  status: ('A' for Active; 'I' for Inactive)
REMARK    1  A    between atoms: C_4  and  S_13 
REMARK    2  A    between atoms: C_5  and  C_6 
REMARK    3  A    between atoms: O_9  and  C_6 
REMARK    4  A    between atoms: S_13  and  O_10 
ROOT
HETATM    1  C   UNK N   1       0.768   3.252  -0.618  0.00  0.00     0.012 C 
HETATM    2  C   UNK N   1       1.325   0.803  -0.998  0.00  0.00     0.049 C 
HETATM    3  C   UNK N   1       0.905   1.865  -0.009  0.00  0.00     0.017 C 
HETATM    4  C   UNK N   1       0.728  -0.481  -0.414  0.00  0.00     0.215 C 
HETATM    5  C   UNK N   1      -0.371   1.293   0.604  0.00  0.00     0.180 C 
HETATM    6  N   UNK N   1      -0.077  -0.123   0.758  0.00  0.00    -0.390 N 
HETATM    7  H   UNK N   1      -0.368  -0.736   1.519  0.00  0.00     0.155 HD
ENDROOT
BRANCH   4   8
HETATM    8  S   UNK N   1       1.948  -1.724   0.103  0.00  0.00     0.117 S 
HETATM    9  O   UNK N   1       1.166  -2.855   0.785  0.00  0.00    -0.600 OA
HETATM   10  O   UNK N   1       2.840  -1.280   1.272  0.00  0.00    -0.600 OA
BRANCH   8  11
HETATM   11  O   UNK N   1       2.958  -2.570  -0.998  0.00  0.00    -0.294 OA
HETATM   12  H   UNK N   1       2.829  -3.303  -1.621  0.00  0.00     0.232 HD
ENDBRANCH   8  11
ENDBRANCH   4   8
BRANCH   5  13
HETATM   13  C   UNK N   1      -1.628   1.453  -0.233  0.00  0.00     0.163 C 
HETATM   14  O   UNK N   1      -2.074   2.568  -0.458  0.00  0.00    -0.648 OA
BRANCH  13  15
HETATM   15  O   UNK N   1      -2.293   0.372  -0.685  0.00  0.00    -0.775 OA
HETATM   16  H   UNK N   1      -3.175   0.396  -1.000  0.00  0.00     0.167 HD
ENDBRANCH  13  15
ENDBRANCH   5  13
TORSDOF 4
