REMARK  11 active torsions:
REMARK  status: ('A' for Active; 'I' for Inactive)
REMARK    1  A    between atoms: C_2  and  N_1 
REMARK    2  A    between atoms: C_2  and  C_3 
REMARK    3  A    between atoms: C_2  and  C_14 
REMARK    4  A    between atoms: C_3  and  C_4 
REMARK    5  A    between atoms: C_4  and  C_5 
REMARK    6  A    between atoms: C_5  and  N_6 
REMARK       I    between atoms: N_6  and  C_7 
REMARK    7  A    between atoms: C_7  and  C_9 
REMARK    8  A    between atoms: C_9  and  P_10 
REMARK    9  A    between atoms: P_10  and  O_11 
REMARK   10  A    between atoms: P_10  and  O_12 
REMARK   11  A    between atoms: C_14  and  O_15 
ROOT
HETATM    1  C   UNK N   1       8.013   4.211  -0.449  0.00  0.00     0.122 C 
ENDROOT
BRANCH   1   2
HETATM    2  C   UNK N   1       8.619   2.907  -0.960  0.00  0.00     0.022 C 
BRANCH   2   3
HETATM    3  C   UNK N   1      10.115   3.033  -1.237  0.00  0.00     0.037 C 
BRANCH   3   4
HETATM    4  C   UNK N   1      10.907   3.387   0.018  0.00  0.00     0.173 C 
BRANCH   4   5
HETATM    5  N   UNK N   1      11.110   4.827   0.068  0.00  0.00    -0.418 N 
HETATM    6  H   UNK N   1      12.055   5.209   0.104  0.00  0.00     0.150 HD
HETATM    7  H   UNK N   1      10.306   5.455   0.068  0.00  0.00     0.150 HD
ENDBRANCH   4   5
BRANCH   4   8
HETATM    8  C   UNK N   1      12.224   2.663   0.033  0.00  0.00     0.163 C 
HETATM    9  O   UNK N   1      12.243   1.443   0.064  0.00  0.00    -0.648 OA
BRANCH   8  10
HETATM   10  O   UNK N   1      13.386   3.346   0.035  0.00  0.00    -0.775 OA
HETATM   11  H   UNK N   1      14.201   2.884   0.037  0.00  0.00     0.167 HD
ENDBRANCH   8  10
ENDBRANCH   4   8
ENDBRANCH   3   4
ENDBRANCH   2   3
ENDBRANCH   1   2
BRANCH   1  12
HETATM   12  N   UNK N   1       6.639   4.030  -0.024  0.00  0.00    -0.361 N 
HETATM   13  C   UNK N   1       6.282   3.159   0.958  0.00  0.00     0.228 C 
HETATM   14  O   UNK N   1       7.118   2.449   1.492  0.00  0.00    -0.273 OA
HETATM   15  H   UNK N   1       5.935   4.560  -0.464  0.00  0.00     0.162 HD
BRANCH  13  16
HETATM   16  C   UNK N   1       4.864   3.084   1.430  0.00  0.00     0.227 C 
BRANCH  16  17
HETATM   17  P   UNK N   1       3.682   2.583   0.081  0.00  0.00     0.244 P 
HETATM   18  O   UNK N   1       3.453   3.750  -0.915  0.00  0.00    -0.653 OA
BRANCH  17  19
HETATM   19  O   UNK N   1       2.086   2.198   0.647  0.00  0.00    -0.329 OA
HETATM   20  H   UNK N   1       1.454   2.862   0.963  0.00  0.00     0.220 HD
ENDBRANCH  17  19
BRANCH  17  21
HETATM   21  O   UNK N   1       4.200   1.260  -0.914  0.00  0.00    -0.329 OA
HETATM   22  H   UNK N   1       3.705   0.639  -1.471  0.00  0.00     0.220 HD
ENDBRANCH  17  21
ENDBRANCH  16  17
ENDBRANCH  13  16
ENDBRANCH   1  12
TORSDOF 11
