REMARK  14 active torsions:
REMARK  status: ('A' for Active; 'I' for Inactive)
REMARK    1  A    between atoms: O_1  and  P_2 
REMARK    2  A    between atoms: P_2  and  O_3 
REMARK    3  A    between atoms: P_2  and  C_5 
REMARK    4  A    between atoms: C_5  and  C_8 
REMARK    5  A    between atoms: C_11  and  C_12 
REMARK    6  A    between atoms: C_12  and  C_13 
REMARK    7  A    between atoms: C_13  and  C_14 
REMARK    8  A    between atoms: C_13  and  N_28 
REMARK    9  A    between atoms: C_13  and  C_39 
REMARK   10  A    between atoms: C_14  and  C_15 
REMARK   11  A    between atoms: C_18  and  C_21 
REMARK   12  A    between atoms: C_21  and  P_24 
REMARK   13  A    between atoms: P_24  and  O_25 
REMARK   14  A    between atoms: P_24  and  O_26 
ROOT
HETATM    1  C   UNK N   1      -0.377   1.208   0.567  0.00  0.00     0.090 C 
ENDROOT
BRANCH   1   2
HETATM    2  C   UNK N   1      -0.698   1.229  -1.016  0.00  0.00     0.077 C 
BRANCH   2   3
HETATM    3  C   UNK N   1      -2.058   0.544  -1.302  0.00  0.00    -0.055 C 
HETATM    4  C   UNK N   1      -3.081   0.712  -0.349  0.00  0.00     0.008 C 
HETATM    5  C   UNK N   1      -3.877  -0.333   0.055  0.00  0.00     0.014 C 
HETATM    6  C   UNK N   1      -3.679  -1.585  -0.503  0.00  0.00     0.025 C 
HETATM    7  C   UNK N   1      -2.845  -1.719  -1.636  0.00  0.00     0.014 C 
HETATM    8  C   UNK N   1      -2.038  -0.643  -2.047  0.00  0.00     0.008 C 
BRANCH   6   9
HETATM    9  C   UNK N   1      -3.986  -2.773   0.371  0.00  0.00     0.364 C 
HETATM   10  F   UNK N   1      -2.803  -3.231   0.922  0.00  0.00    -0.187 F 
HETATM   11  F   UNK N   1      -4.816  -2.426   1.425  0.00  0.00    -0.187 F 
BRANCH   9  12
HETATM   12  P   UNK N   1      -4.707  -4.164  -0.571  0.00  0.00     0.315 P 
HETATM   13  O   UNK N   1      -6.044  -3.735  -1.224  0.00  0.00    -0.649 OA
BRANCH  12  14
HETATM   14  O   UNK N   1      -5.086  -5.543   0.411  0.00  0.00    -0.325 OA
HETATM   15  H   UNK N   1      -5.860  -5.745   0.960  0.00  0.00     0.220 HD
ENDBRANCH  12  14
BRANCH  12  16
HETATM   16  O   UNK N   1      -3.702  -4.709  -1.876  0.00  0.00    -0.325 OA
HETATM   17  H   UNK N   1      -3.685  -5.348  -2.606  0.00  0.00     0.220 HD
ENDBRANCH  12  16
ENDBRANCH   9  12
ENDBRANCH   6   9
ENDBRANCH   2   3
ENDBRANCH   1   2
BRANCH   1  18
HETATM   18  C   UNK N   1       0.971   1.674   0.993  0.00  0.00     0.077 C 
BRANCH  18  19
HETATM   19  C   UNK N   1       1.786   2.332   0.069  0.00  0.00    -0.055 A 
HETATM   20  C   UNK N   1       1.556   3.669  -0.169  0.00  0.00     0.008 A 
HETATM   21  C   UNK N   1       2.499   4.375  -0.861  0.00  0.00     0.014 A 
HETATM   22  C   UNK N   1       3.663   3.731  -1.296  0.00  0.00     0.025 A 
HETATM   23  C   UNK N   1       3.857   2.364  -1.082  0.00  0.00     0.014 A 
HETATM   24  C   UNK N   1       2.909   1.662  -0.381  0.00  0.00     0.008 A 
BRANCH  22  25
HETATM   25  C   UNK N   1       4.776   4.556  -1.765  0.00  0.00     0.364 C 
HETATM   26  F   UNK N   1       5.809   3.767  -2.238  0.00  0.00    -0.187 F 
HETATM   27  F   UNK N   1       4.335   5.407  -2.759  0.00  0.00    -0.187 F 
BRANCH  25  28
HETATM   28  P   UNK N   1       5.349   5.483  -0.244  0.00  0.00     0.315 P 
HETATM   29  O   UNK N   1       4.200   6.338   0.360  0.00  0.00    -0.649 OA
BRANCH  28  30
HETATM   30  O   UNK N   1       6.650   6.600  -0.467  0.00  0.00    -0.325 OA
HETATM   31  H   UNK N   1       7.557   6.281  -0.593  0.00  0.00     0.220 HD
ENDBRANCH  28  30
BRANCH  28  32
HETATM   32  O   UNK N   1       5.788   4.431   1.069  0.00  0.00    -0.325 OA
HETATM   33  H   UNK N   1       5.402   3.925   1.801  0.00  0.00     0.220 HD
ENDBRANCH  28  32
ENDBRANCH  25  28
ENDBRANCH  22  25
ENDBRANCH  18  19
ENDBRANCH   1  18
BRANCH   1  34
HETATM   34  N   UNK N   1      -0.205  -0.301   0.880  0.00  0.00    -0.261 N 
HETATM   35  N   UNK N   1      -0.983  -1.227   0.352  0.00  0.00    -0.238 N 
HETATM   36  N   UNK N   1      -0.383  -2.418   0.276  0.00  0.00    -0.284 N 
ATOM     37  HN  UNK N   1      -1.938  -1.052   0.037  1.00  0.00     0.208 HD
HETATM   38  C   UNK N   1       0.822  -2.270   0.806  0.00  0.00     0.077 A 
ATOM     39  HN  UNK N   1      -0.776  -3.274  -0.115  1.00  0.00     0.188 HD
HETATM   40  C   UNK N   1       0.955  -0.985   1.236  0.00  0.00     0.081 A 
HETATM   41  C   UNK N   1       1.855  -3.208   0.845  0.00  0.00     0.033 A 
HETATM   42  C   UNK N   1       2.174  -0.566   1.792  0.00  0.00     0.034 A 
HETATM   43  C   UNK N   1       3.230  -1.491   1.894  0.00  0.00     0.002 A 
HETATM   44  C   UNK N   1       3.078  -2.803   1.401  0.00  0.00     0.002 A 
ENDBRANCH   1  34
BRANCH   1  45
HETATM   45  C   UNK N   1      -1.245   2.474   1.138  0.00  0.00    -0.024 A 
HETATM   46  C   UNK N   1      -2.101   3.133   0.203  0.00  0.00     0.013 A 
HETATM   47  C   UNK N   1      -2.324   4.502   0.151  0.00  0.00     0.046 A 
HETATM   48  C   UNK N   1      -1.653   5.333   1.021  0.00  0.00     0.154 A 
HETATM   49  F   UNK N   1      -1.757   6.679   0.875  0.00  0.00    -0.203 F 
HETATM   50  C   UNK N   1      -0.855   4.777   2.022  0.00  0.00     0.155 A 
HETATM   51  F   UNK N   1      -0.179   5.598   2.861  0.00  0.00    -0.203 F 
HETATM   52  C   UNK N   1      -0.659   3.377   2.089  0.00  0.00     0.055 A 
ENDBRANCH   1  45
TORSDOF 14
