REMARK  13 active torsions:
REMARK  status: ('A' for Active; 'I' for Inactive)
REMARK    1  A    between atoms: C_2  and  N_1 
REMARK    2  A    between atoms: C_2  and  C_3 
REMARK    3  A    between atoms: C_2  and  C_19 
REMARK    4  A    between atoms: C_3  and  C_4 
REMARK    5  A    between atoms: C_4  and  C_5 
REMARK    6  A    between atoms: C_5  and  N_6 
REMARK       I    between atoms: N_6  and  C_7 
REMARK       I    between atoms: C_7  and  N_10 
REMARK    7  A    between atoms: C_11  and  N_10 
REMARK    8  A    between atoms: C_11  and  C_12 
REMARK    9  A    between atoms: C_11  and  C_16 
REMARK   10  A    between atoms: C_12  and  C_13 
REMARK   11  A    between atoms: C_13  and  O_14 
REMARK   12  A    between atoms: C_16  and  O_17 
REMARK   13  A    between atoms: C_19  and  O_20 
ROOT
HETATM    1  N   UNK N   1       9.495   4.868   0.101  0.00  0.00    -0.227 N 
HETATM    2  C   UNK N   1       8.420   4.005  -0.244  0.00  0.00     0.668 C 
HETATM    3  N   UNK N   1       8.513   3.230  -1.268  0.00  0.00    -0.235 N 
ATOM      4  HN  UNK N   1       9.451   2.829  -1.268  1.00  0.00     0.174 HD
HETATM    5  N   UNK N   1       7.294   3.928   0.622  0.00  0.00    -0.212 N 
HETATM    6  H   UNK N   1       9.356   5.531   0.815  0.00  0.00     0.177 HD
HETATM    7  H   UNK N   1       8.036   2.872  -2.051  0.00  0.00     0.174 HD
HETATM    8  H   UNK N   1       7.286   4.526   1.404  0.00  0.00     0.178 HD
ENDROOT
BRANCH   1   9
HETATM    9  C   UNK N   1      10.783   4.816  -0.549  0.00  0.00     0.138 C 
BRANCH   9  10
HETATM   10  C   UNK N   1      11.516   3.561  -0.104  0.00  0.00     0.023 C 
BRANCH  10  11
HETATM   11  C   UNK N   1      12.928   3.494  -0.663  0.00  0.00     0.037 C 
BRANCH  11  12
HETATM   12  C   UNK N   1      13.892   4.289   0.205  0.00  0.00     0.173 C 
BRANCH  12  13
HETATM   13  N   UNK N   1      13.992   5.651  -0.297  0.00  0.00    -0.418 N 
HETATM   14  H   UNK N   1      14.854   6.067  -0.650  0.00  0.00     0.150 HD
HETATM   15  H   UNK N   1      13.149   6.224  -0.297  0.00  0.00     0.150 HD
ENDBRANCH  12  13
BRANCH  12  16
HETATM   16  C   UNK N   1      15.237   3.622   0.227  0.00  0.00     0.163 C 
HETATM   17  O   UNK N   1      15.343   2.490   0.673  0.00  0.00    -0.648 OA
BRANCH  16  18
HETATM   18  O   UNK N   1      16.333   4.263  -0.225  0.00  0.00    -0.775 OA
HETATM   19  H   UNK N   1      17.100   3.827  -0.539  0.00  0.00     0.167 HD
ENDBRANCH  16  18
ENDBRANCH  12  16
ENDBRANCH  11  12
ENDBRANCH  10  11
ENDBRANCH   9  10
ENDBRANCH   1   9
BRANCH   5  20
HETATM   20  C   UNK N   1       6.155   3.043   0.452  0.00  0.00     0.207 C 
BRANCH  20  21
HETATM   21  C   UNK N   1       5.205   3.532  -0.632  0.00  0.00     0.146 C 
BRANCH  21  22
HETATM   22  C   UNK N   1       4.026   4.195  -0.001  0.00  0.00     0.141 C 
HETATM   23  O   UNK N   1       2.926   3.672  -0.072  0.00  0.00    -0.650 OA
BRANCH  22  24
HETATM   24  O   UNK N   1       4.172   5.363   0.653  0.00  0.00    -0.776 OA
HETATM   25  H   UNK N   1       4.927   5.680   1.109  0.00  0.00     0.167 HD
ENDBRANCH  22  24
ENDBRANCH  21  22
ENDBRANCH  20  21
BRANCH  20  26
HETATM   26  C   UNK N   1       6.546   1.598   0.280  0.00  0.00     0.164 C 
HETATM   27  O   UNK N   1       7.315   1.079   1.071  0.00  0.00    -0.648 OA
BRANCH  26  28
HETATM   28  O   UNK N   1       6.023   0.861  -0.721  0.00  0.00    -0.775 OA
HETATM   29  H   UNK N   1       5.398   0.919  -1.417  0.00  0.00     0.167 HD
ENDBRANCH  26  28
ENDBRANCH  20  26
ENDBRANCH   5  20
TORSDOF 13
