REMARK  23 active torsions:
REMARK  status: ('A' for Active; 'I' for Inactive)
REMARK    1  A    between atoms: C_2  and  C_5 
REMARK    2  A    between atoms: C_6  and  C_14 
REMARK    3  A    between atoms: C_11  and  C_20 
REMARK    4  A    between atoms: C_14  and  O_22 
REMARK    5  A    between atoms: C_20  and  C_28 
REMARK    6  A    between atoms: C_28  and  C_37 
REMARK    7  A    between atoms: C_31  and  C_39 
REMARK    8  A    between atoms: C_34  and  C_41 
REMARK    9  A    between atoms: C_37  and  O_43 
REMARK   10  A    between atoms: O_43  and  C_48 
REMARK   11  A    between atoms: C_48  and  C_49 
REMARK   12  A    between atoms: C_50  and  C_51 
REMARK   13  A    between atoms: C_51  and  C_53 
REMARK   14  A    between atoms: C_53  and  C_54 
REMARK   15  A    between atoms: C_54  and  C_55 
REMARK   16  A    between atoms: C_55  and  C_56 
REMARK   17  A    between atoms: C_56  and  C_58 
REMARK   18  A    between atoms: C_58  and  C_59 
REMARK   19  A    between atoms: C_59  and  C_60 
REMARK   20  A    between atoms: C_60  and  C_61 
REMARK   21  A    between atoms: C_61  and  C_63 
REMARK   22  A    between atoms: C_63  and  C_64 
REMARK   23  A    between atoms: C_64  and  C_65 
ROOT
HETATM    1  C   UNK N   1      14.386 -12.862   0.265  0.00  0.00     0.081 A 
HETATM    2  C   UNK N   1      13.384 -13.743   0.295  0.00  0.00     0.016 A 
HETATM    3  N   UNK N   1      14.456 -11.519   0.274  0.00  0.00    -0.247 N 
HETATM    4  C   UNK N   1      15.585 -13.419   0.211  0.00  0.00     0.049 A 
HETATM    5  C   UNK N   1      11.943 -13.365   0.213  0.00  0.00     0.024 A 
HETATM    6  C   UNK N   1      13.958 -15.180   0.293  0.00  0.00     0.197 A 
HETATM    7  C   UNK N   1      15.783 -11.239   0.110  0.00  0.00     0.066 A 
HETATM    8 Mg   UNK N   1      12.860 -10.292   0.894  0.00  0.00     0.000 Mg
HETATM    9  C   UNK N   1      16.514 -12.425   0.080  0.00  0.00    -0.017 A 
HETATM   10  C   UNK N   1      15.437 -14.831   0.325  0.00  0.00     0.180 A 
HETATM   11  C   UNK N   1      10.795 -14.333   0.083  0.00  0.00     0.046 A 
HETATM   12  N   UNK N   1      11.584 -12.153   0.077  0.00  0.00    -0.362 N 
ATOM     13  HN  UNK N   1      12.219 -11.355   0.109  1.00  0.00     0.165 HD
HETATM   14  C   UNK N   1      16.335 -10.020   0.047  0.00  0.00     0.062 C 
HETATM   15  N   UNK N   1      11.394  -9.147  -0.050  0.00  0.00    -0.248 N 
HETATM   16  C   UNK N   1      17.991 -12.596  -0.032  0.00  0.00     0.052 C 
HETATM   17  O   UNK N   1      16.358 -15.619   0.426  0.00  0.00    -0.291 OA
HETATM   18  C   UNK N   1       9.554 -13.403  -0.128  0.00  0.00     0.041 A 
HETATM   19  C   UNK N   1      10.212 -12.058  -0.120  0.00  0.00     0.016 A 
HETATM   20  C   UNK N   1      15.575  -8.762   0.058  0.00  0.00     0.041 A 
HETATM   21  C   UNK N   1      11.456  -7.800  -0.225  0.00  0.00     0.070 A 
HETATM   22  C   UNK N   1      10.140  -9.531  -0.405  0.00  0.00     0.066 A 
HETATM   23  C   UNK N   1       8.508 -13.483   0.979  0.00  0.00     0.017 C 
HETATM   24  C   UNK N   1       9.565 -10.904  -0.353  0.00  0.00     0.057 C 
HETATM   25  C   UNK N   1      16.139  -7.424   0.293  0.00  0.00    -0.024 A 
HETATM   26  N   UNK N   1      14.306  -8.701  -0.074  0.00  0.00    -0.355 N 
ATOM     27  HN  UNK N   1      13.688  -9.487  -0.273  1.00  0.00     0.166 HD
HETATM   28  C   UNK N   1      10.225  -7.325  -0.658  0.00  0.00     0.000 A 
HETATM   29  C   UNK N   1      12.643  -6.937   0.032  0.00  0.00     0.062 C 
HETATM   30  C   UNK N   1       9.404  -8.424  -0.785  0.00  0.00    -0.021 A 
HETATM   31  C   UNK N   1      15.113  -6.570   0.334  0.00  0.00    -0.027 A 
HETATM   32  C   UNK N   1      13.910  -7.370   0.101  0.00  0.00     0.041 A 
HETATM   33  C   UNK N   1       7.971  -8.412  -1.202  0.00  0.00     0.052 C 
HETATM   34  C   UNK N   1      15.191  -5.097   0.564  0.00  0.00     0.051 C 
ENDROOT
BRANCH  11  35
HETATM   35  C   UNK N   1      10.696 -15.318   1.242  0.00  0.00     0.021 C 
BRANCH  35  36
HETATM   36  C   UNK N   1      10.081 -16.612   0.733  0.00  0.00     0.112 C 
BRANCH  36  37
HETATM   37  C   UNK N   1      10.990 -17.749   1.059  0.00  0.00     0.259 C 
HETATM   38  O   UNK N   1      11.146 -18.083   2.226  0.00  0.00    -0.265 OA
BRANCH  37  39
HETATM   39  O   UNK N   1      11.668 -18.371   0.060  0.00  0.00    -0.318 OA
BRANCH  39  40
HETATM   40  C   UNK N   1      12.639 -19.323   0.286  0.00  0.00     0.206 C 
BRANCH  40  41
HETATM   41  C   UNK N   1      13.809 -18.708   0.999  0.00  0.00     0.002 C 
HETATM   42  C   UNK N   1      14.831 -19.428   1.463  0.00  0.00    -0.086 C 
HETATM   43  C   UNK N   1      14.876 -20.916   1.303  0.00  0.00     0.043 C 
BRANCH  42  44
HETATM   44  C   UNK N   1      15.911 -18.736   2.223  0.00  0.00     0.033 C 
BRANCH  44  45
HETATM   45  C   UNK N   1      17.270 -19.042   1.631  0.00  0.00     0.005 C 
BRANCH  45  46
HETATM   46  C   UNK N   1      17.608 -18.084   0.507  0.00  0.00     0.004 C 
BRANCH  46  47
HETATM   47  C   UNK N   1      17.458 -18.641  -0.910  0.00  0.00    -0.019 C 
HETATM   48  C   UNK N   1      17.871 -20.102  -1.029  0.00  0.00     0.010 C 
BRANCH  47  49
HETATM   49  C   UNK N   1      18.269 -17.779  -1.887  0.00  0.00     0.004 C 
BRANCH  49  50
HETATM   50  C   UNK N   1      19.785 -17.830  -1.648  0.00  0.00     0.001 C 
BRANCH  50  51
HETATM   51  C   UNK N   1      20.172 -17.102  -0.360  0.00  0.00     0.004 C 
BRANCH  51  52
HETATM   52  C   UNK N   1      20.866 -17.983   0.696  0.00  0.00    -0.019 C 
HETATM   53  C   UNK N   1      20.776 -19.490   0.473  0.00  0.00     0.010 C 
BRANCH  52  54
HETATM   54  C   UNK N   1      22.297 -17.540   0.950  0.00  0.00     0.004 C 
BRANCH  54  55
HETATM   55  C   UNK N   1      23.123 -17.567  -0.323  0.00  0.00     0.001 C 
BRANCH  55  56
HETATM   56  C   UNK N   1      24.569 -17.256   0.003  0.00  0.00     0.004 C 
BRANCH  56  57
HETATM   57  C   UNK N   1      25.418 -18.512  -0.094  0.00  0.00    -0.023 C 
HETATM   58  C   UNK N   1      26.878 -18.132   0.017  0.00  0.00     0.009 C 
HETATM   59  C   UNK N   1      25.072 -19.490   1.015  0.00  0.00     0.009 C 
ENDBRANCH  56  57
ENDBRANCH  55  56
ENDBRANCH  54  55
ENDBRANCH  52  54
ENDBRANCH  51  52
ENDBRANCH  50  51
ENDBRANCH  49  50
ENDBRANCH  47  49
ENDBRANCH  46  47
ENDBRANCH  45  46
ENDBRANCH  44  45
ENDBRANCH  42  44
ENDBRANCH  40  41
ENDBRANCH  39  40
ENDBRANCH  37  39
ENDBRANCH  36  37
ENDBRANCH  35  36
ENDBRANCH  11  35
BRANCH  28  60
HETATM   60  C   UNK N   1       9.805  -5.929  -0.909  0.00  0.00     0.004 C 
HETATM   61  C   UNK N   1      10.584  -4.882  -0.640  0.00  0.00     0.012 C 
ENDBRANCH  28  60
BRANCH   6  62
HETATM   62  C   UNK N   1      13.673 -15.940  -0.988  0.00  0.00     0.274 C 
HETATM   63  O   UNK N   1      14.597 -16.415  -1.640  0.00  0.00    -0.264 OA
BRANCH  62  64
HETATM   64  O   UNK N   1      12.401 -16.095  -1.416  0.00  0.00    -0.326 OA
HETATM   65  C   UNK N   1      12.099 -16.725  -2.600  0.00  0.00     0.213 C 
ENDBRANCH  62  64
ENDBRANCH   6  62
BRANCH  25  66
HETATM   66  C   UNK N   1      17.591  -7.086   0.452  0.00  0.00     0.037 C 
HETATM   67  C   UNK N   1      18.210  -7.888   1.581  0.00  0.00     0.010 C 
ENDBRANCH  25  66
TORSDOF 23
