REMARK  18 active torsions:
REMARK  status: ('A' for Active; 'I' for Inactive)
REMARK    1  A    between atoms: C_5  and  C_3 
REMARK    2  A    between atoms: O_45  and  C_3 
REMARK    3  A    between atoms: C_6  and  C_4 
REMARK    4  A    between atoms: O_46  and  C_4 
REMARK    5  A    between atoms: N_21  and  C_7 
REMARK    6  A    between atoms: C_10  and  O_32 
REMARK    7  A    between atoms: C_11  and  O_33 
REMARK    8  A    between atoms: O_34  and  C_15 
REMARK    9  A    between atoms: C_17  and  N_31 
REMARK       I    between atoms: N_22  and  C_18 
REMARK   10  A    between atoms: O_36  and  Mo_20 
REMARK   11  A    between atoms: O_37  and  Mo_20 
REMARK   12  A    between atoms: O_39  and  Mo_20 
REMARK   13  A    between atoms: P_50  and  O_41 
REMARK   14  A    between atoms: P_51  and  O_43 
REMARK   15  A    between atoms: P_50  and  O_45 
REMARK   16  A    between atoms: P_51  and  O_46 
REMARK   17  A    between atoms: P_50  and  O_49 
REMARK   18  A    between atoms: P_51  and  O_49 
ROOT
HETATM    1  C   UNK N   1      -1.360  -3.892  -1.352  0.00  0.00     0.190 C 
HETATM    2  C   UNK N   1       0.266  -2.200   0.278  0.00  0.00     0.172 C 
HETATM    3  C   UNK N   1       2.509  -1.292  -0.001  0.00  0.00     0.125 A 
HETATM    4  C   UNK N   1      -1.989  -2.690  -0.657  0.00  0.00     0.036 C 
HETATM    5  C   UNK N   1      -1.192  -1.851   0.062  0.00  0.00     0.033 C 
HETATM    6  C   UNK N   1       3.028  -2.552  -0.270  0.00  0.00     0.150 A 
HETATM    7  C   UNK N   1       3.376  -0.270   0.372  0.00  0.00     0.185 A 
HETATM    8  C   UNK N   1       0.718  -3.528  -0.393  0.00  0.00     0.251 C 
HETATM    9  C   UNK N   1       5.205  -1.758   0.165  0.00  0.00     0.679 A 
HETATM   10 Mo   UNK N   1      -4.071  -0.309   0.175  0.00  0.00     0.000 Mo
HETATM   11  N   UNK N   1       6.589  -1.999   0.254  0.00  0.00    -0.234 N 
HETATM   12  N   UNK N   1       1.116  -1.097  -0.085  0.00  0.00    -0.370 N 
HETATM   13  N   UNK N   1       2.153  -3.612  -0.602  0.00  0.00    -0.345 N 
HETATM   14  N   UNK N   1       4.365  -2.765  -0.195  0.00  0.00    -0.175 N 
ATOM     15  HN  UNK N   1       4.744  -3.688  -0.409  1.00  0.00     0.186 HD
HETATM   16  N   UNK N   1       4.709  -0.523   0.453  0.00  0.00    -0.168 N 
ATOM     17  HN  UNK N   1       5.347   0.223   0.733  1.00  0.00     0.186 HD
HETATM   18  O   UNK N   1       0.033  -3.727  -1.604  0.00  0.00    -0.352 OA
HETATM   19  S   UNK N   1      -3.794  -2.534  -0.806  0.00  0.00    -0.053 SA
HETATM   20  S   UNK N   1      -1.731  -0.318   0.863  0.00  0.00    -0.054 SA
HETATM   21  H   UNK N   1       6.927  -2.921   0.317  0.00  0.00     0.174 HD
HETATM   22  H   UNK N   1       7.220  -1.243   0.254  0.00  0.00     0.174 HD
HETATM   23  H   UNK N   1       0.738  -0.238  -0.382  0.00  0.00     0.160 HD
HETATM   24  H   UNK N   1       2.529  -4.435  -0.988  0.00  0.00     0.163 HD
ENDROOT
BRANCH   1  25
HETATM   25  C   UNK N   1      -1.687  -5.222  -0.650  0.00  0.00     0.218 C 
BRANCH  25  26
HETATM   26  O   UNK N   1      -1.524  -5.142   0.740  0.00  0.00    -0.294 OA
BRANCH  26  27
HETATM   27  P   UNK N   1      -2.804  -6.053   1.484  0.00  0.00     0.401 P 
HETATM   28  O   UNK N   1      -4.052  -5.131   1.596  0.00  0.00    -0.631 OA
BRANCH  27  29
HETATM   29  O   UNK N   1      -2.368  -6.381   3.130  0.00  0.00    -0.307 OA
HETATM   30  H   UNK N   1      -2.406  -6.684   4.050  0.00  0.00     0.222 HD
ENDBRANCH  27  29
BRANCH  27  31
HETATM   31  O   UNK N   1      -3.214  -7.586   0.666  0.00  0.00    -0.195 OA
BRANCH  31  32
HETATM   32  P   UNK N   1      -4.306  -7.409  -0.730  0.00  0.00     0.401 P 
HETATM   33  O   UNK N   1      -4.180  -5.869  -0.883  0.00  0.00    -0.631 OA
BRANCH  32  34
HETATM   34  O   UNK N   1      -5.127  -7.487   0.801  0.00  0.00    -0.307 OA
HETATM   35  H   UNK N   1      -5.394  -7.112   1.655  0.00  0.00     0.222 HD
ENDBRANCH  32  34
BRANCH  32  36
HETATM   36  O   UNK N   1      -6.074  -7.483  -0.835  0.00  0.00    -0.294 OA
BRANCH  36  37
HETATM   37  C   UNK N   1      -6.591  -6.195  -1.122  0.00  0.00     0.215 C 
BRANCH  37  38
HETATM   38  C   UNK N   1      -7.155  -5.515   0.145  0.00  0.00     0.180 C 
HETATM   39  C   UNK N   1      -7.407  -3.995  -0.004  0.00  0.00     0.182 C 
HETATM   40  C   UNK N   1      -8.917  -3.916   0.106  0.00  0.00     0.198 C 
HETATM   41  C   UNK N   1      -9.295  -5.316  -0.346  0.00  0.00     0.263 C 
HETATM   42  O   UNK N   1      -8.397  -6.122   0.375  0.00  0.00    -0.353 OA
BRANCH  39  43
HETATM   43  O   UNK N   1      -6.953  -3.527  -1.243  0.00  0.00    -0.390 OA
HETATM   44  H   UNK N   1      -6.515  -3.638  -2.101  0.00  0.00     0.210 HD
ENDBRANCH  39  43
BRANCH  40  45
HETATM   45  O   UNK N   1      -9.465  -2.892  -0.673  0.00  0.00    -0.388 OA
HETATM   46  H   UNK N   1      -9.039  -2.208  -1.213  0.00  0.00     0.210 HD
ENDBRANCH  40  45
BRANCH  41  47
HETATM   47  N   UNK N   1     -10.662  -5.810  -0.123  0.00  0.00    -0.280 N 
HETATM   48  C   UNK N   1     -10.861  -7.124  -0.441  0.00  0.00     0.102 A 
HETATM   49  C   UNK N   1     -12.095  -7.730  -0.267  0.00  0.00     0.065 A 
HETATM   50  C   UNK N   1     -13.142  -6.972   0.231  0.00  0.00     0.103 A 
HETATM   51  N   UNK N   1     -12.950  -5.664   0.536  0.00  0.00    -0.295 N 
HETATM   52  C   UNK N   1     -11.727  -5.071   0.369  0.00  0.00     0.330 A 
ATOM     53  HN  UNK N   1     -13.729  -5.113   0.897  1.00  0.00     0.172 HD
HETATM   54  O   UNK N   1     -11.601  -3.892   0.650  0.00  0.00    -0.246 OA
BRANCH  50  55
HETATM   55  N   UNK N   1     -14.406  -7.561   0.417  0.00  0.00    -0.385 N 
HETATM   56  H   UNK N   1     -15.205  -7.001   0.548  0.00  0.00     0.157 HD
HETATM   57  H   UNK N   1     -14.492  -8.542   0.417  0.00  0.00     0.157 HD
ENDBRANCH  50  55
ENDBRANCH  41  47
ENDBRANCH  37  38
ENDBRANCH  36  37
ENDBRANCH  32  36
ENDBRANCH  31  32
ENDBRANCH  27  31
ENDBRANCH  26  27
ENDBRANCH  25  26
ENDBRANCH   1  25
BRANCH  10  58
HETATM   58  O   UNK N   1      -6.000  -0.883   0.419  0.00  0.00     0.000 OA
HETATM   59  H   UNK N   1      -6.700  -0.222   0.536  0.00  0.00     0.000 HD
HETATM   60  H   UNK N   1      -6.225  -1.827   0.419  0.00  0.00     0.000 HD
ENDBRANCH  10  58
BRANCH  10  61
HETATM   61  O   UNK N   1      -4.578   0.687  -1.252  0.00  0.00    -0.253 OA
ATOM     62  HO  UNK N   1      -3.674   0.956  -1.366  1.00  0.00     0.253 HD
ENDBRANCH  10  61
BRANCH  10  63
HETATM   63  O   UNK N   1      -4.095   1.432   1.226  0.00  0.00    -0.253 OA
ATOM     64  HO  UNK N   1      -3.191   1.701   1.112  1.00  0.00     0.253 HD
ENDBRANCH  10  63
BRANCH   7  65
HETATM   65  O   UNK N   1       2.902   0.949   0.682  0.00  0.00    -0.344 OA
HETATM   66  H   UNK N   1       3.472   1.660   0.898  0.00  0.00     0.219 HD
ENDBRANCH   7  65
TORSDOF 18
