REMARK WARNING: 32 MAX_TORS EXCEEDED!!!
REMARK  43 active torsions:
REMARK  status: ('A' for Active; 'I' for Inactive)
REMARK    1  A    between atoms: C_2  and  C_1 
REMARK    2  A    between atoms: C_1  and  O_8 
REMARK    3  A    between atoms: C_12  and  C_2 
REMARK    4  A    between atoms: C_2  and  O_33 
REMARK    5  A    between atoms: P_3  and  O_16 
REMARK    6  A    between atoms: O_8  and  P_3 
REMARK    7  A    between atoms: P_3  and  O_10 
REMARK    8  A    between atoms: C_4  and  O_15 
REMARK    9  A    between atoms: C_4  and  C_5 
REMARK   10  A    between atoms: C_4  and  C_6 
REMARK   11  A    between atoms: O_9  and  C_5 
REMARK   12  A    between atoms: O_10  and  C_6 
REMARK   13  A    between atoms: C_7  and  O_9 
REMARK   14  A    between atoms: C_11  and  C_7 
REMARK   15  A    between atoms: C_11  and  C_17 
REMARK   16  A    between atoms: C_12  and  O_32 
REMARK   17  A    between atoms: C_13  and  O_15 
REMARK   18  A    between atoms: C_24  and  C_13 
REMARK   19  A    between atoms: C_17  and  C_18 
REMARK   20  A    between atoms: C_18  and  C_19 
REMARK   21  A    between atoms: C_19  and  C_20 
REMARK   22  A    between atoms: C_20  and  C_21 
REMARK   23  A    between atoms: C_21  and  C_22 
REMARK   24  A    between atoms: C_22  and  C_23 
REMARK   25  A    between atoms: C_23  and  C_34 
REMARK   26  A    between atoms: C_24  and  C_25 
REMARK   27  A    between atoms: C_25  and  C_26 
REMARK   28  A    between atoms: C_26  and  C_27 
REMARK   29  A    between atoms: C_27  and  C_28 
REMARK   30  A    between atoms: C_28  and  C_29 
REMARK   31  A    between atoms: C_29  and  C_30 
REMARK   32  A    between atoms: C_30  and  C_31 
REMARK   33  A    between atoms: C_31  and  C_39 
REMARK   34  A    between atoms: C_34  and  C_35 
REMARK   35  A    between atoms: C_35  and  C_36 
REMARK   36  A    between atoms: C_36  and  C_37 
REMARK   37  A    between atoms: C_37  and  C_38 
REMARK   38  A    between atoms: C_38  and  C_46 
REMARK   39  A    between atoms: C_39  and  C_40 
REMARK   40  A    between atoms: C_40  and  C_41 
REMARK   41  A    between atoms: C_41  and  C_42 
REMARK   42  A    between atoms: C_42  and  C_43 
REMARK   43  A    between atoms: C_43  and  C_48 
ROOT
HETATM    1  C   UNK N   1      13.921  -8.761  -0.242  0.00  0.00     0.180 C 
ENDROOT
BRANCH   1   2
HETATM    2  O   UNK N   1      14.319 -10.076  -0.393  0.00  0.00    -0.312 OA
BRANCH   2   3
HETATM    3  C   UNK N   1      13.499 -11.144  -0.568  0.00  0.00     0.259 C 
HETATM    4  O   UNK N   1      13.981 -12.228  -0.834  0.00  0.00    -0.265 OA
BRANCH   3   5
HETATM    5  C   UNK N   1      12.017 -11.022  -0.424  0.00  0.00     0.111 C 
BRANCH   5   6
HETATM    6  C   UNK N   1      11.683 -10.789   1.033  0.00  0.00     0.010 C 
BRANCH   6   7
HETATM    7  C   UNK N   1      10.378 -10.037   1.142  0.00  0.00     0.000 C 
BRANCH   7   8
HETATM    8  C   UNK N   1       9.319 -10.884   1.822  0.00  0.00     0.000 C 
BRANCH   8   9
HETATM    9  C   UNK N   1       8.672 -11.817   0.820  0.00  0.00     0.000 C 
BRANCH   9  10
HETATM   10  C   UNK N   1       7.667 -11.063  -0.019  0.00  0.00     0.000 C 
BRANCH  10  11
HETATM   11  C   UNK N   1       7.411 -11.791  -1.326  0.00  0.00     0.000 C 
BRANCH  11  12
HETATM   12  C   UNK N   1       5.955 -12.222  -1.426  0.00  0.00     0.000 C 
BRANCH  12  13
HETATM   13  C   UNK N   1       5.609 -13.229  -0.334  0.00  0.00     0.000 C 
BRANCH  13  14
HETATM   14  C   UNK N   1       5.980 -14.654  -0.729  0.00  0.00     0.000 C 
BRANCH  14  15
HETATM   15  C   UNK N   1       7.478 -14.851  -0.943  0.00  0.00     0.000 C 
BRANCH  15  16
HETATM   16  C   UNK N   1       8.230 -14.899   0.377  0.00  0.00     0.000 C 
BRANCH  16  17
HETATM   17  C   UNK N   1       9.683 -15.296   0.148  0.00  0.00    -0.000 C 
BRANCH  17  18
HETATM   18  C   UNK N   1      10.557 -14.105  -0.220  0.00  0.00    -0.005 C 
HETATM   19  C   UNK N   1      10.480 -13.811  -1.706  0.00  0.00     0.005 C 
ENDBRANCH  17  18
ENDBRANCH  16  17
ENDBRANCH  15  16
ENDBRANCH  14  15
ENDBRANCH  13  14
ENDBRANCH  12  13
ENDBRANCH  11  12
ENDBRANCH  10  11
ENDBRANCH   9  10
ENDBRANCH   8   9
ENDBRANCH   7   8
ENDBRANCH   6   7
ENDBRANCH   5   6
ENDBRANCH   3   5
ENDBRANCH   2   3
ENDBRANCH   1   2
BRANCH   1  20
HETATM   20  C   UNK N   1      13.173  -8.099  -1.398  0.00  0.00     0.213 C 
BRANCH  20  21
HETATM   21  O   UNK N   1      11.813  -8.006  -1.185  0.00  0.00    -0.319 OA
BRANCH  21  22
HETATM   22  C   UNK N   1      11.233  -7.026  -0.442  0.00  0.00     0.258 C 
HETATM   23  O   UNK N   1      11.905  -6.255   0.226  0.00  0.00    -0.265 OA
BRANCH  22  24
HETATM   24  C   UNK N   1       9.758  -6.842  -0.516  0.00  0.00     0.111 C 
BRANCH  24  25
HETATM   25  C   UNK N   1       9.054  -7.358   0.730  0.00  0.00     0.010 C 
BRANCH  25  26
HETATM   26  C   UNK N   1       7.555  -7.495   0.483  0.00  0.00     0.000 C 
BRANCH  26  27
HETATM   27  C   UNK N   1       7.275  -8.237  -0.819  0.00  0.00     0.000 C 
BRANCH  27  28
HETATM   28  C   UNK N   1       5.804  -8.211  -1.183  0.00  0.00     0.000 C 
BRANCH  28  29
HETATM   29  C   UNK N   1       5.029  -9.254  -0.395  0.00  0.00     0.000 C 
BRANCH  29  30
HETATM   30  C   UNK N   1       4.109  -8.585   0.605  0.00  0.00     0.000 C 
BRANCH  30  31
HETATM   31  C   UNK N   1       2.922  -7.968  -0.113  0.00  0.00     0.000 C 
BRANCH  31  32
HETATM   32  C   UNK N   1       2.586  -6.612   0.487  0.00  0.00     0.000 C 
BRANCH  32  33
HETATM   33  C   UNK N   1       3.432  -5.516  -0.146  0.00  0.00     0.000 C 
BRANCH  33  34
HETATM   34  C   UNK N   1       4.816  -5.487   0.473  0.00  0.00     0.000 C 
BRANCH  34  35
HETATM   35  C   UNK N   1       5.708  -4.517  -0.273  0.00  0.00     0.000 C 
BRANCH  35  36
HETATM   36  C   UNK N   1       7.038  -4.440   0.447  0.00  0.00    -0.000 C 
BRANCH  36  37
HETATM   37  C   UNK N   1       8.040  -3.651  -0.366  0.00  0.00    -0.005 C 
HETATM   38  C   UNK N   1       9.367  -3.638   0.365  0.00  0.00     0.005 C 
ENDBRANCH  36  37
ENDBRANCH  35  36
ENDBRANCH  34  35
ENDBRANCH  33  34
ENDBRANCH  32  33
ENDBRANCH  31  32
ENDBRANCH  30  31
ENDBRANCH  29  30
ENDBRANCH  28  29
ENDBRANCH  27  28
ENDBRANCH  26  27
ENDBRANCH  25  26
ENDBRANCH  24  25
ENDBRANCH  22  24
ENDBRANCH  21  22
ENDBRANCH  20  21
ENDBRANCH   1  20
BRANCH   1  39
HETATM   39  C   UNK N   1      13.775  -8.196   1.177  0.00  0.00     0.215 C 
BRANCH  39  40
HETATM   40  O   UNK N   1      14.964  -8.258   1.958  0.00  0.00    -0.294 OA
BRANCH  40  41
HETATM   41  P   UNK N   1      16.448  -7.492   1.303  0.00  0.00     0.393 P 
HETATM   42  O   UNK N   1      15.545  -6.633   0.370  0.00  0.00    -0.631 OA
BRANCH  41  43
HETATM   43  O   UNK N   1      16.386  -9.208   1.029  0.00  0.00    -0.307 OA
HETATM   44  H   UNK N   1      15.540  -9.657   0.876  0.00  0.00     0.222 HD
ENDBRANCH  41  43
BRANCH  41  45
HETATM   45  O   UNK N   1      16.991  -8.000  -0.279  0.00  0.00    -0.294 OA
BRANCH  45  46
HETATM   46  C   UNK N   1      18.378  -7.795  -0.310  0.00  0.00     0.214 C 
BRANCH  46  47
HETATM   47  C   UNK N   1      19.103  -9.052   0.160  0.00  0.00     0.166 C 
BRANCH  47  48
HETATM   48  C   UNK N   1      20.600  -8.824   0.253  0.00  0.00     0.198 C 
BRANCH  48  49
HETATM   49  O   UNK N   1      21.147  -8.632  -1.017  0.00  0.00    -0.398 OA
HETATM   50  H   UNK N   1      21.452  -8.895  -1.899  0.00  0.00     0.209 HD
ENDBRANCH  48  49
ENDBRANCH  47  48
BRANCH  47  51
HETATM   51  O   UNK N   1      18.822 -10.132  -0.680  0.00  0.00    -0.391 OA
HETATM   52  H   UNK N   1      18.075 -10.338  -1.264  0.00  0.00     0.210 HD
ENDBRANCH  47  51
ENDBRANCH  46  47
ENDBRANCH  45  46
ENDBRANCH  41  45
ENDBRANCH  40  41
ENDBRANCH  39  40
ENDBRANCH   1  39
TORSDOF 43
