REMARK  24 active torsions:
REMARK  status: ('A' for Active; 'I' for Inactive)
REMARK    1  A    between atoms: C_5  and  C_1 
REMARK    2  A    between atoms: O_25  and  C_1 
REMARK    3  A    between atoms: C_6  and  C_2 
REMARK    4  A    between atoms: O_26  and  C_2 
REMARK    5  A    between atoms: C_7  and  C_3 
REMARK    6  A    between atoms: O_27  and  C_3 
REMARK    7  A    between atoms: C_8  and  C_4 
REMARK    8  A    between atoms: O_28  and  C_4 
REMARK    9  A    between atoms: C_9  and  O_29 
REMARK   10  A    between atoms: C_10  and  O_30 
REMARK   11  A    between atoms: C_11  and  O_31 
REMARK   12  A    between atoms: C_12  and  O_32 
REMARK   13  A    between atoms: C_13  and  O_33 
REMARK   14  A    between atoms: C_14  and  O_34 
REMARK   15  A    between atoms: C_15  and  O_35 
REMARK   16  A    between atoms: C_16  and  O_36 
REMARK   17  A    between atoms: C_17  and  O_37 
REMARK   18  A    between atoms: C_18  and  O_43 
REMARK   19  A    between atoms: C_19  and  O_44 
REMARK   20  A    between atoms: C_20  and  O_45 
REMARK   21  A    between atoms: C_21  and  O_38 
REMARK   22  A    between atoms: C_22  and  O_44 
REMARK   23  A    between atoms: C_23  and  O_43 
REMARK   24  A    between atoms: C_24  and  O_45 
ROOT
HETATM    1  O   UNK N   1      -1.228  -6.387   0.126  0.00  0.00    -0.348 OA
ENDROOT
BRANCH   1   2
HETATM    2  C   UNK N   1       0.162  -6.024   0.319  0.00  0.00     0.187 C 
HETATM    3  C   UNK N   1       0.393  -4.559   0.791  0.00  0.00     0.180 C 
HETATM    4  O   UNK N   1       1.492  -3.932   0.156  0.00  0.00    -0.348 OA
HETATM    5  C   UNK N   1       2.674  -4.632   0.332  0.00  0.00     0.292 C 
HETATM    6  C   UNK N   1       2.597  -5.974  -0.463  0.00  0.00     0.204 C 
HETATM    7  C   UNK N   1       1.117  -6.336  -0.854  0.00  0.00     0.183 C 
BRANCH   3   8
HETATM    8  C   UNK N   1       0.301  -4.363   2.315  0.00  0.00     0.198 C 
BRANCH   8   9
HETATM    9  O   UNK N   1       1.162  -5.198   3.028  0.00  0.00    -0.398 OA
HETATM   10  H   UNK N   1       0.959  -6.007   3.524  0.00  0.00     0.209 HD
ENDBRANCH   8   9
ENDBRANCH   3   8
BRANCH   5  11
HETATM   11  O   UNK N   1       3.817  -3.827   0.004  0.00  0.00    -0.348 OA
BRANCH  11  12
HETATM   12  C   UNK N   1       3.593  -2.437  -0.289  0.00  0.00     0.187 C 
HETATM   13  C   UNK N   1       3.194  -1.490   0.921  0.00  0.00     0.180 C 
HETATM   14  O   UNK N   1       3.174  -0.090   0.630  0.00  0.00    -0.349 OA
HETATM   15  C   UNK N   1       3.693   0.299  -0.631  0.00  0.00     0.288 C 
HETATM   16  C   UNK N   1       5.046  -0.360  -0.868  0.00  0.00     0.204 C 
HETATM   17  C   UNK N   1       4.913  -1.901  -0.913  0.00  0.00     0.183 C 
BRANCH  13  18
HETATM   18  C   UNK N   1       1.815  -1.751   1.510  0.00  0.00     0.198 C 
BRANCH  18  19
HETATM   19  O   UNK N   1       0.818  -1.357   0.607  0.00  0.00    -0.398 OA
HETATM   20  H   UNK N   1       0.708  -0.623  -0.018  0.00  0.00     0.209 HD
ENDBRANCH  18  19
ENDBRANCH  13  18
BRANCH  15  21
HETATM   21  O   UNK N   1       2.781   0.034  -1.655  0.00  0.00    -0.369 OA
HETATM   22  H   UNK N   1       2.304   0.491  -2.367  0.00  0.00     0.212 HD
ENDBRANCH  15  21
BRANCH  16  23
HETATM   23  O   UNK N   1       5.873   0.023   0.196  0.00  0.00    -0.388 OA
HETATM   24  H   UNK N   1       6.389  -0.341   0.933  0.00  0.00     0.210 HD
ENDBRANCH  16  23
BRANCH  17  25
HETATM   25  O   UNK N   1       6.026  -2.475  -0.285  0.00  0.00    -0.390 OA
HETATM   26  H   UNK N   1       6.068  -3.341   0.150  0.00  0.00     0.210 HD
ENDBRANCH  17  25
ENDBRANCH  11  12
ENDBRANCH   5  11
BRANCH   6  27
HETATM   27  O   UNK N   1       3.369  -5.924  -1.624  0.00  0.00    -0.388 OA
HETATM   28  H   UNK N   1       3.667  -6.371  -2.432  0.00  0.00     0.210 HD
ENDBRANCH   6  27
BRANCH   7  29
HETATM   29  O   UNK N   1       1.034  -7.680  -1.224  0.00  0.00    -0.390 OA
HETATM   30  H   UNK N   1       0.197  -8.097  -1.481  0.00  0.00     0.210 HD
ENDBRANCH   7  29
ENDBRANCH   1   2
BRANCH   1  31
HETATM   31  C   UNK N   1      -1.959  -5.567  -0.799  0.00  0.00     0.292 C 
HETATM   32  C   UNK N   1      -3.269  -6.232  -1.307  0.00  0.00     0.204 C 
HETATM   33  C   UNK N   1      -4.369  -6.234  -0.219  0.00  0.00     0.183 C 
HETATM   34  C   UNK N   1      -4.534  -4.822   0.405  0.00  0.00     0.187 C 
HETATM   35  C   UNK N   1      -3.122  -4.464   0.907  0.00  0.00     0.180 C 
HETATM   36  O   UNK N   1      -2.312  -4.301  -0.245  0.00  0.00    -0.348 OA
BRANCH  32  37
HETATM   37  O   UNK N   1      -3.022  -7.529  -1.766  0.00  0.00    -0.388 OA
HETATM   38  H   UNK N   1      -3.716  -8.127  -2.085  0.00  0.00     0.210 HD
ENDBRANCH  32  37
BRANCH  33  39
HETATM   39  O   UNK N   1      -5.584  -6.670  -0.755  0.00  0.00    -0.390 OA
HETATM   40  H   UNK N   1      -6.268  -6.092  -1.127  0.00  0.00     0.210 HD
ENDBRANCH  33  39
BRANCH  34  41
HETATM   41  O   UNK N   1      -5.015  -3.901  -0.589  0.00  0.00    -0.348 OA
BRANCH  41  42
HETATM   42  C   UNK N   1      -5.215  -2.581  -0.082  0.00  0.00     0.292 C 
HETATM   43  C   UNK N   1      -6.394  -1.892  -0.794  0.00  0.00     0.204 C 
HETATM   44  C   UNK N   1      -6.573  -0.471  -0.207  0.00  0.00     0.183 C 
HETATM   45  C   UNK N   1      -5.245   0.302  -0.299  0.00  0.00     0.180 C 
HETATM   46  C   UNK N   1      -4.132  -0.550   0.345  0.00  0.00     0.179 C 
HETATM   47  O   UNK N   1      -4.039  -1.808  -0.312  0.00  0.00    -0.348 OA
BRANCH  43  48
HETATM   48  O   UNK N   1      -7.567  -2.631  -0.625  0.00  0.00    -0.388 OA
HETATM   49  H   UNK N   1      -8.419  -2.183  -0.508  0.00  0.00     0.210 HD
ENDBRANCH  43  48
BRANCH  44  50
HETATM   50  O   UNK N   1      -6.965  -0.558   1.135  0.00  0.00    -0.390 OA
HETATM   51  H   UNK N   1      -7.153  -0.352   2.064  0.00  0.00     0.210 HD
ENDBRANCH  44  50
BRANCH  45  52
HETATM   52  O   UNK N   1      -4.946   0.553  -1.642  0.00  0.00    -0.390 OA
HETATM   53  H   UNK N   1      -4.692   0.461  -2.573  0.00  0.00     0.210 HD
ENDBRANCH  45  52
BRANCH  46  54
HETATM   54  C   UNK N   1      -2.771   0.150   0.318  0.00  0.00     0.198 C 
BRANCH  54  55
HETATM   55  O   UNK N   1      -2.296   0.305  -0.985  0.00  0.00    -0.398 OA
HETATM   56  H   UNK N   1      -2.038   0.073  -1.891  0.00  0.00     0.209 HD
ENDBRANCH  54  55
ENDBRANCH  46  54
ENDBRANCH  41  42
ENDBRANCH  34  41
BRANCH  35  57
HETATM   57  C   UNK N   1      -3.119  -3.217   1.795  0.00  0.00     0.198 C 
BRANCH  57  58
HETATM   58  O   UNK N   1      -1.851  -2.665   1.947  0.00  0.00    -0.398 OA
HETATM   59  H   UNK N   1      -1.076  -3.238   2.054  0.00  0.00     0.209 HD
ENDBRANCH  57  58
ENDBRANCH  35  57
ENDBRANCH   1  31
TORSDOF 24
