REMARK  8 active torsions:
REMARK  status: ('A' for Active; 'I' for Inactive)
REMARK    1  A    between atoms: C_10  and  C_6 
REMARK    2  A    between atoms: O_15  and  C_6 
REMARK    3  A    between atoms: O_16  and  C_7 
REMARK    4  A    between atoms: C_11  and  C_8 
REMARK    5  A    between atoms: N_14  and  C_9 
REMARK    6  A    between atoms: C_11  and  C_10 
REMARK    7  A    between atoms: C_10  and  N_12 
REMARK    8  A    between atoms: C_11  and  O_17 
ROOT
HETATM    1  C   UNK N   1       1.245  -1.779   0.147  0.00  0.00     0.175 C 
ENDROOT
BRANCH   1   2
HETATM    2  C   UNK N   1       1.137  -0.274  -0.021  0.00  0.00    -0.028 A 
HETATM    3  C   UNK N   1       2.221   0.535   0.346  0.00  0.00     0.012 A 
HETATM    4  C   UNK N   1       2.123   1.928   0.275  0.00  0.00     0.037 A 
HETATM    5  C   UNK N   1       0.927   2.535  -0.144  0.00  0.00     0.102 A 
HETATM    6  C   UNK N   1      -0.150   1.727  -0.529  0.00  0.00     0.037 A 
HETATM    7  C   UNK N   1      -0.042   0.338  -0.478  0.00  0.00     0.012 A 
BRANCH   5   8
HETATM    8  N   UNK N   1       0.801   3.953  -0.149  0.00  0.00    -0.116 N 
HETATM    9  O   UNK N   1      -0.253   4.460  -0.407  0.00  0.00    -0.532 OA
HETATM   10  O   UNK N   1       1.724   4.643   0.155  0.00  0.00    -0.532 OA
ENDBRANCH   5   8
ENDBRANCH   1   2
BRANCH   1  11
HETATM   11  C   UNK N   1       0.000  -2.577  -0.324  0.00  0.00     0.140 C 
BRANCH  11  12
HETATM   12  C   UNK N   1       0.181  -4.096  -0.139  0.00  0.00     0.192 C 
BRANCH  12  13
HETATM   13  O   UNK N   1       0.869  -4.412   1.037  0.00  0.00    -0.399 OA
HETATM   14  H   UNK N   1       0.917  -4.936   1.852  0.00  0.00     0.209 HD
ENDBRANCH  12  13
ENDBRANCH  11  12
BRANCH  11  15
HETATM   15  N   UNK N   1      -1.196  -2.086   0.346  0.00  0.00    -0.365 N 
HETATM   16  C   UNK N   1      -2.406  -2.364  -0.018  0.00  0.00     0.107 C 
HETATM   17  C   UNK N   1      -2.698  -3.277  -1.169  0.00  0.00     0.097 C 
ATOM     18  HN  UNK N   1      -1.072  -1.480   1.157  1.00  0.00     0.161 HD
BRANCH  16  19
HETATM   19  O   UNK N   1      -3.437  -1.785   0.626  0.00  0.00    -0.350 OA
HETATM   20  H   UNK N   1      -3.446  -0.962   1.074  0.00  0.00     0.219 HD
ENDBRANCH  16  19
ENDBRANCH  11  15
ENDBRANCH   1  11
BRANCH   1  21
HETATM   21  O   UNK N   1       2.368  -2.239  -0.547  0.00  0.00    -0.389 OA
HETATM   22  H   UNK N   1       2.481  -3.073  -1.029  0.00  0.00     0.210 HD
ENDBRANCH   1  21
TORSDOF 8
