REMARK  18 active torsions:
REMARK  status: ('A' for Active; 'I' for Inactive)
REMARK    1  A    between atoms: C_2  and  C_1 
REMARK    2  A    between atoms: C_3  and  C_1 
REMARK    3  A    between atoms: N_18  and  C_2 
REMARK    4  A    between atoms: O_30  and  C_3 
REMARK    5  A    between atoms: C_6  and  C_4 
REMARK    6  A    between atoms: N_19  and  C_4 
REMARK    7  A    between atoms: C_7  and  C_5 
REMARK    8  A    between atoms: O_20  and  C_5 
REMARK    9  A    between atoms: C_9  and  C_6 
REMARK   10  A    between atoms: C_6  and  O_21 
REMARK   11  A    between atoms: C_9  and  C_7 
REMARK   12  A    between atoms: C_7  and  O_22 
REMARK   13  A    between atoms: C_9  and  O_23 
REMARK   14  A    between atoms: O_24  and  C_11 
REMARK   15  A    between atoms: O_25  and  C_12 
REMARK   16  A    between atoms: P_31  and  O_27 
REMARK   17  A    between atoms: P_31  and  O_28 
REMARK   18  A    between atoms: P_31  and  O_30 
ROOT
HETATM    1  C   UNK N   1      -1.326  -0.114  -0.324  0.00  0.00     0.135 A 
HETATM    2  C   UNK N   1      -0.066  -0.216   0.176  0.00  0.00     0.146 A 
HETATM    3  C   UNK N   1      -1.839   1.137  -0.653  0.00  0.00     0.174 A 
HETATM    4  C   UNK N   1       0.209   2.106   0.091  0.00  0.00     0.224 A 
HETATM    5  C   UNK N   1      -0.882  -2.192   0.013  0.00  0.00     0.331 A 
HETATM    6  N   UNK N   1       0.711   0.871   0.396  0.00  0.00    -0.306 N 
ATOM      7  HN  UNK N   1       1.650   0.771   0.782  1.00  0.00     0.171 HD
HETATM    8  N   UNK N   1      -1.052   2.231  -0.436  0.00  0.00    -0.301 N 
ATOM      9  HN  UNK N   1      -1.408   3.158  -0.668  1.00  0.00     0.171 HD
HETATM   10  N   UNK N   1      -1.865  -1.346  -0.420  0.00  0.00    -0.292 N 
HETATM   11  N   UNK N   1       0.246  -1.515   0.374  0.00  0.00    -0.281 N 
HETATM   12  O   UNK N   1      -0.996  -3.403   0.063  0.00  0.00    -0.246 OA
ENDROOT
BRANCH  11  13
HETATM   13  C   UNK N   1       1.489  -2.122   0.847  0.00  0.00     0.170 C 
BRANCH  13  14
HETATM   14  C   UNK N   1       2.696  -1.714  -0.005  0.00  0.00     0.168 C 
BRANCH  14  15
HETATM   15  C   UNK N   1       3.916  -2.596   0.347  0.00  0.00     0.179 C 
BRANCH  15  16
HETATM   16  C   UNK N   1       5.281  -1.932   0.062  0.00  0.00     0.173 C 
BRANCH  16  17
HETATM   17  C   UNK N   1       5.419  -1.455  -1.379  0.00  0.00     0.198 C 
BRANCH  17  18
HETATM   18  O   UNK N   1       6.632  -0.781  -1.543  0.00  0.00    -0.398 OA
HETATM   19  H   UNK N   1       7.458  -1.277  -1.658  0.00  0.00     0.209 HD
ENDBRANCH  17  18
ENDBRANCH  16  17
BRANCH  16  20
HETATM   20  O   UNK N   1       5.460  -0.846   0.927  0.00  0.00    -0.391 OA
HETATM   21  H   UNK N   1       6.173  -0.578   1.527  0.00  0.00     0.210 HD
ENDBRANCH  16  20
ENDBRANCH  15  16
BRANCH  15  22
HETATM   22  O   UNK N   1       3.818  -3.813  -0.336  0.00  0.00    -0.390 OA
HETATM   23  H   UNK N   1       3.053  -4.176  -0.810  0.00  0.00     0.210 HD
ENDBRANCH  15  22
ENDBRANCH  14  15
BRANCH  14  24
HETATM   24  O   UNK N   1       2.984  -0.376   0.253  0.00  0.00    -0.391 OA
HETATM   25  H   UNK N   1       3.892  -0.084   0.434  0.00  0.00     0.210 HD
ENDBRANCH  14  24
ENDBRANCH  13  14
ENDBRANCH  11  13
BRANCH  10  26
HETATM   26  C   UNK N   1      -3.194  -1.707  -0.891  0.00  0.00     0.136 C 
BRANCH  26  27
HETATM   27  C   UNK N   1      -4.033  -2.300   0.240  0.00  0.00     0.047 C 
BRANCH  27  28
HETATM   28  C   UNK N   1      -4.422  -1.282   1.321  0.00  0.00     0.182 C 
BRANCH  28  29
HETATM   29  O   UNK N   1      -4.442   0.035   0.841  0.00  0.00    -0.297 OA
BRANCH  29  30
HETATM   30  P   UNK N   1      -6.008   0.303   0.120  0.00  0.00     0.390 P 
HETATM   31  O   UNK N   1      -6.178  -0.688  -1.064  0.00  0.00    -0.632 OA
BRANCH  30  32
HETATM   32  O   UNK N   1      -7.307   0.028   1.238  0.00  0.00    -0.307 OA
HETATM   33  H   UNK N   1      -7.803   0.580   1.862  0.00  0.00     0.222 HD
ENDBRANCH  30  32
BRANCH  30  34
HETATM   34  O   UNK N   1      -6.100   1.896  -0.561  0.00  0.00    -0.307 OA
HETATM   35  H   UNK N   1      -5.355   2.386  -0.942  0.00  0.00     0.222 HD
ENDBRANCH  30  34
ENDBRANCH  29  30
ENDBRANCH  28  29
ENDBRANCH  27  28
ENDBRANCH  26  27
ENDBRANCH  10  26
BRANCH   3  36
HETATM   36  O   UNK N   1      -3.061   1.278  -1.190  0.00  0.00    -0.344 OA
HETATM   37  H   UNK N   1      -3.403   2.066  -1.564  0.00  0.00     0.219 HD
ENDBRANCH   3  36
BRANCH   4  38
HETATM   38  O   UNK N   1       0.959   3.200   0.297  0.00  0.00    -0.332 OA
HETATM   39  H   UNK N   1       1.882   3.129   0.440  0.00  0.00     0.221 HD
ENDBRANCH   4  38
TORSDOF 18
