REMARK  6 active torsions:
REMARK  status: ('A' for Active; 'I' for Inactive)
REMARK    1  A    between atoms: C_2  and  O_1 
REMARK    2  A    between atoms: C_3  and  C_15 
REMARK    3  A    between atoms: C_7  and  O_8 
REMARK    4  A    between atoms: C_10  and  O_11 
REMARK    5  A    between atoms: C_18  and  O_19 
REMARK    6  A    between atoms: C_20  and  O_21 
ROOT
HETATM    1  C   UNK N   1       0.422  -1.829   0.027  0.00  0.00     0.227 C 
HETATM    2  C   UNK N   1       0.550  -0.463  -0.672  0.00  0.00     0.198 C 
HETATM    3  O   UNK N   1       1.702   0.211  -0.285  0.00  0.00    -0.337 OA
HETATM    4  C   UNK N   1       2.902  -0.394  -0.124  0.00  0.00     0.089 A 
HETATM    5  C   UNK N   1       4.057   0.388  -0.039  0.00  0.00     0.074 A 
HETATM    6  C   UNK N   1       5.305  -0.215   0.118  0.00  0.00     0.071 A 
HETATM    7  C   UNK N   1       5.405  -1.607   0.187  0.00  0.00     0.074 A 
HETATM    8  C   UNK N   1       4.258  -2.403   0.113  0.00  0.00     0.085 A 
HETATM    9  C   UNK N   1       2.991  -1.798  -0.033  0.00  0.00     0.079 A 
HETATM   10  C   UNK N   1       1.725  -2.571  -0.060  0.00  0.00     0.196 C 
HETATM   11  O   UNK N   1       1.727  -3.793  -0.039  0.00  0.00    -0.289 OA
ENDROOT
BRANCH   2  12
HETATM   12  C   UNK N   1      -0.663   0.416  -0.482  0.00  0.00    -0.023 A 
HETATM   13  C   UNK N   1      -1.951  -0.094  -0.698  0.00  0.00     0.013 A 
HETATM   14  C   UNK N   1      -3.073   0.717  -0.493  0.00  0.00     0.040 A 
HETATM   15  C   UNK N   1      -2.916   2.047  -0.091  0.00  0.00     0.098 A 
HETATM   16  C   UNK N   1      -1.631   2.570   0.105  0.00  0.00     0.099 A 
HETATM   17  C   UNK N   1      -0.514   1.754  -0.082  0.00  0.00     0.049 A 
BRANCH  15  18
HETATM   18  O   UNK N   1      -3.998   2.820   0.103  0.00  0.00    -0.358 OA
HETATM   19  H   UNK N   1      -3.910   3.743   0.238  0.00  0.00     0.217 HD
ENDBRANCH  15  18
BRANCH  16  20
HETATM   20  O   UNK N   1      -1.466   3.852   0.474  0.00  0.00    -0.358 OA
HETATM   21  H   UNK N   1      -0.634   4.199   0.730  0.00  0.00     0.217 HD
ENDBRANCH  16  20
ENDBRANCH   2  12
BRANCH   1  22
HETATM   22  O   UNK N   1       0.076  -1.671   1.371  0.00  0.00    -0.385 OA
HETATM   23  H   UNK N   1       0.050  -1.408   2.304  0.00  0.00     0.210 HD
ENDBRANCH   1  22
BRANCH   8  24
HETATM   24  O   UNK N   1       4.383  -3.739   0.204  0.00  0.00    -0.360 OA
HETATM   25  H   UNK N   1       3.620  -4.279   0.268  0.00  0.00     0.217 HD
ENDBRANCH   8  24
BRANCH   6  26
HETATM   26  O   UNK N   1       6.409   0.543   0.204  0.00  0.00    -0.361 OA
HETATM   27  H   UNK N   1       7.253   0.140   0.264  0.00  0.00     0.217 HD
ENDBRANCH   6  26
TORSDOF 6
