REMARK  11 active torsions:
REMARK  status: ('A' for Active; 'I' for Inactive)
REMARK    1  A    between atoms: C_1  and  O_25 
REMARK    2  A    between atoms: N_16  and  C_11 
REMARK    3  A    between atoms: C_17  and  N_16 
REMARK    4  A    between atoms: C_19  and  C_17 
REMARK    5  A    between atoms: C_20  and  C_19 
REMARK    6  A    between atoms: C_21  and  C_20 
REMARK    7  A    between atoms: N_22  and  C_21 
REMARK    8  A    between atoms: C_23  and  N_22 
REMARK    9  A    between atoms: C_24  and  N_22 
REMARK   10  A    between atoms: C_28  and  C_23 
REMARK   11  A    between atoms: C_30  and  C_24 
ROOT
HETATM    1  C   UNK N   1       1.524  -2.141  -0.179  0.00  0.00     0.069 A 
HETATM    2  C   UNK N   1       1.290  -3.521  -0.242  0.00  0.00     0.039 A 
HETATM    3  C   UNK N   1       0.449  -1.271   0.021  0.00  0.00     0.052 A 
HETATM    4  C   UNK N   1      -0.004  -4.017  -0.130  0.00  0.00     0.033 A 
HETATM    5  C   UNK N   1      -0.865  -1.745   0.112  0.00  0.00     0.021 A 
HETATM    6  C   UNK N   1      -1.083  -3.143   0.028  0.00  0.00     0.045 A 
HETATM    7  C   UNK N   1      -3.425  -2.852   0.189  0.00  0.00     0.046 A 
HETATM    8  N   UNK N   1      -2.334  -3.650   0.077  0.00  0.00    -0.355 N 
ATOM      9  HN  UNK N   1      -2.462  -4.661   0.027  1.00  0.00     0.166 HD
HETATM   10  C   UNK N   1      -3.274  -1.451   0.281  0.00  0.00     0.018 A 
HETATM   11  C   UNK N   1      -1.990  -0.876   0.255  0.00  0.00     0.053 A 
HETATM   12  C   UNK N   1      -5.829  -2.619   0.292  0.00  0.00     0.036 A 
HETATM   13  C   UNK N   1      -4.695  -3.427   0.197  0.00  0.00     0.054 A 
HETATM   14  C   UNK N   1      -5.694  -1.231   0.386  0.00  0.00     0.025 A 
HETATM   15  C   UNK N   1      -4.423  -0.648   0.385  0.00  0.00     0.018 A 
HETATM   16 Cl   UNK N   1      -7.419  -3.349   0.279  0.00  0.00    -0.084 Cl
ENDROOT
BRANCH  11  17
HETATM   17  N   UNK N   1      -1.885   0.551   0.369  0.00  0.00    -0.384 N 
HETATM   18  H   UNK N   1      -2.729   1.050   0.459  0.00  0.00     0.160 HD
BRANCH  17  19
HETATM   19  C   UNK N   1      -0.670   1.331   0.365  0.00  0.00     0.077 C 
HETATM   20  C   UNK N   1      -0.962   2.724   0.889  0.00  0.00     0.032 C 
BRANCH  19  21
HETATM   21  C   UNK N   1      -0.087   1.399  -1.048  0.00  0.00     0.026 C 
BRANCH  21  22
HETATM   22  C   UNK N   1       1.387   1.818  -1.100  0.00  0.00     0.032 C 
BRANCH  22  23
HETATM   23  C   UNK N   1       2.210   1.355   0.106  0.00  0.00     0.272 C 
BRANCH  23  24
HETATM   24  N   UNK N   1       3.622   1.663  -0.083  0.00  0.00     0.090 N 
BRANCH  24  25
HETATM   25  C   UNK N   1       4.370   0.797   0.820  0.00  0.00     0.287 C 
BRANCH  25  26
HETATM   26  C   UNK N   1       5.864   0.877   0.531  0.00  0.00     0.144 C 
HETATM   27 Cl   UNK N   1       6.454  -0.631  -0.205  0.00  0.00    -0.129 Cl
ENDBRANCH  25  26
ENDBRANCH  24  25
BRANCH  24  28
HETATM   28  C   UNK N   1       3.831   3.042   0.342  0.00  0.00     0.287 C 
BRANCH  28  29
HETATM   29  C   UNK N   1       3.788   3.960  -0.864  0.00  0.00     0.144 C 
HETATM   30 Cl   UNK N   1       3.302   5.587  -0.344  0.00  0.00    -0.129 Cl
ENDBRANCH  28  29
ENDBRANCH  24  28
ENDBRANCH  23  24
ENDBRANCH  22  23
ENDBRANCH  21  22
ENDBRANCH  19  21
ENDBRANCH  17  19
ENDBRANCH  11  17
BRANCH   1  31
HETATM   31  O   UNK N   1       2.764  -1.629  -0.345  0.00  0.00    -0.356 OA
HETATM   32  C   UNK N   1       3.844  -2.402  -0.706  0.00  0.00     0.210 C 
ENDBRANCH   1  31
TORSDOF 11
