REMARK  4 active torsions:
REMARK  status: ('A' for Active; 'I' for Inactive)
REMARK    1  A    between atoms: C_2  and  C_3 
REMARK    2  A    between atoms: C_3  and  C_4 
REMARK    3  A    between atoms: C_4  and  N_5 
REMARK       I    between atoms: N_5  and  C_6 
REMARK       I    between atoms: C_6  and  N_9 
REMARK    4  A    between atoms: N_9  and  O_10 
ROOT
HETATM    1  N   UNK N   1       3.932   1.154   0.000  0.00  0.00    -0.225 N 
HETATM    2  C   UNK N   1       5.246   1.681   0.000  0.00  0.00     0.691 C 
HETATM    3  N   UNK N   1       5.444   2.951  -0.000  0.00  0.00    -0.233 N 
ATOM      4  HN  UNK N   1       4.649   3.591  -0.000  1.00  0.00     0.174 HD
HETATM    5  N   UNK N   1       6.345   0.788   0.000  0.00  0.00    -0.099 N 
HETATM    6  H   UNK N   1       3.820   0.176   0.000  0.00  0.00     0.177 HD
HETATM    7  H   UNK N   1       6.362   3.307  -0.000  0.00  0.00     0.174 HD
HETATM    8  H   UNK N   1       6.180  -0.182   0.000  0.00  0.00     0.213 HD
ENDROOT
BRANCH   1   9
HETATM    9  C   UNK N   1       2.752   1.978  -0.000  0.00  0.00     0.138 C 
BRANCH   9  10
HETATM   10  C   UNK N   1       1.547   1.061  -0.000  0.00  0.00     0.020 C 
BRANCH  10  11
HETATM   11  C   UNK N   1       0.258   1.850  -0.000  0.00  0.00    -0.003 C 
HETATM   12  C   UNK N   1      -0.902   0.875   0.000  0.00  0.00     0.005 C 
ENDBRANCH  10  11
ENDBRANCH   9  10
ENDBRANCH   1   9
BRANCH   5  13
HETATM   13  O   UNK N   1       7.605   1.242  -0.000  0.00  0.00    -0.276 OA
HETATM   14  H   UNK N   1       8.346   0.616  -0.000  0.00  0.00     0.245 HD
ENDBRANCH   5  13
TORSDOF 4
