REMARK  11 active torsions:
REMARK  status: ('A' for Active; 'I' for Inactive)
REMARK    1  A    between atoms: C_5  and  C_1 
REMARK    2  A    between atoms: O_27  and  C_1 
REMARK    3  A    between atoms: C_6  and  C_2 
REMARK    4  A    between atoms: P_29  and  C_2 
REMARK    5  A    between atoms: O_27  and  C_6 
REMARK    6  A    between atoms: C_8  and  O_22 
REMARK    7  A    between atoms: C_9  and  O_23 
REMARK    8  A    between atoms: N_13  and  C_10 
REMARK    9  A    between atoms: C_12  and  N_20 
REMARK   10  A    between atoms: P_29  and  O_24 
REMARK   11  A    between atoms: P_29  and  O_25 
ROOT
HETATM    1  C   UNK N   1      -0.091  -1.472   0.723  0.00  0.00     0.180 C 
HETATM    2  C   UNK N   1       1.134  -2.097   0.019  0.00  0.00     0.182 C 
HETATM    3  C   UNK N   1       1.917  -0.884  -0.407  0.00  0.00     0.198 C 
HETATM    4  C   UNK N   1       1.486   0.123   0.640  0.00  0.00     0.262 C 
HETATM    5  O   UNK N   1       0.101  -0.074   0.785  0.00  0.00    -0.353 OA
ENDROOT
BRANCH   4   6
HETATM    6  N   UNK N   1       1.765   1.502   0.228  0.00  0.00    -0.297 N 
HETATM    7  C   UNK N   1       0.849   2.458  -0.091  0.00  0.00     0.188 A 
HETATM    8  N   UNK N   1       1.448   3.647  -0.378  0.00  0.00    -0.346 N 
HETATM    9  C   UNK N   1       2.762   3.403  -0.218  0.00  0.00     0.122 A 
ATOM     10  HN  UNK N   1       1.002   4.522  -0.652  1.00  0.00     0.167 HD
HETATM   11  C   UNK N   1       3.843   4.259  -0.337  0.00  0.00     0.131 A 
HETATM   12  C   UNK N   1       2.949   2.116   0.134  0.00  0.00     0.142 A 
HETATM   13  N   UNK N   1       5.089   3.752  -0.090  0.00  0.00    -0.337 N 
HETATM   14  C   UNK N   1       5.258   2.434   0.264  0.00  0.00     0.183 A 
ATOM     15  HN  UNK N   1       5.904   4.360  -0.170  1.00  0.00     0.168 HD
HETATM   16  N   UNK N   1       4.178   1.602   0.385  0.00  0.00    -0.336 N 
ATOM     17  HN  UNK N   1       4.294   0.625   0.655  1.00  0.00     0.168 HD
BRANCH  11  18
HETATM   18  N   UNK N   1       3.673   5.615  -0.677  0.00  0.00    -0.383 N 
HETATM   19  H   UNK N   1       4.434   6.192  -0.915  0.00  0.00     0.157 HD
HETATM   20  H   UNK N   1       2.765   5.998  -0.677  0.00  0.00     0.157 HD
ENDBRANCH  11  18
ENDBRANCH   4   6
BRANCH   3  21
HETATM   21  O   UNK N   1       3.295  -1.119  -0.418  0.00  0.00    -0.388 OA
HETATM   22  H   UNK N   1       3.632  -2.028  -0.425  0.00  0.00     0.210 HD
ENDBRANCH   3  21
BRANCH   2  23
HETATM   23  O   UNK N   1       0.824  -2.900  -1.085  0.00  0.00    -0.390 OA
HETATM   24  H   UNK N   1       0.234  -2.992  -1.850  0.00  0.00     0.210 HD
ENDBRANCH   2  23
BRANCH   1  25
HETATM   25  C   UNK N   1      -1.424  -1.739   0.047  0.00  0.00     0.213 C 
BRANCH  25  26
HETATM   26  O   UNK N   1      -1.673  -3.089  -0.062  0.00  0.00    -0.318 OA
BRANCH  26  27
HETATM   27  C   UNK N   1      -2.814  -3.547  -0.623  0.00  0.00     0.270 C 
HETATM   28  O   UNK N   1      -2.932  -4.738  -0.865  0.00  0.00    -0.265 OA
BRANCH  27  29
HETATM   29  C   UNK N   1      -3.930  -2.605  -0.960  0.00  0.00     0.236 C 
BRANCH  29  30
HETATM   30  P   UNK N   1      -5.131  -2.532   0.458  0.00  0.00     0.245 P 
HETATM   31  O   UNK N   1      -5.894  -3.717  -0.188  0.00  0.00    -0.653 OA
BRANCH  30  32
HETATM   32  O   UNK N   1      -6.632  -1.720   0.770  0.00  0.00    -0.329 OA
HETATM   33  H   UNK N   1      -6.658  -0.766   0.944  0.00  0.00     0.220 HD
ENDBRANCH  30  32
BRANCH  30  34
HETATM   34  O   UNK N   1      -5.370  -1.395  -0.831  0.00  0.00    -0.329 OA
HETATM   35  H   UNK N   1      -4.886  -0.961  -1.551  0.00  0.00     0.220 HD
ENDBRANCH  30  34
ENDBRANCH  29  30
ENDBRANCH  27  29
ENDBRANCH  26  27
ENDBRANCH  25  26
ENDBRANCH   1  25
TORSDOF 11
