REMARK  6 active torsions:
REMARK  status: ('A' for Active; 'I' for Inactive)
REMARK    1  A    between atoms: C_2  and  C_3 
REMARK    2  A    between atoms: C_2  and  C_10 
REMARK    3  A    between atoms: C_3  and  C_4 
REMARK    4  A    between atoms: C_4  and  C_5 
REMARK    5  A    between atoms: C_5  and  C_6 
REMARK    6  A    between atoms: C_6  and  O_9 
ROOT
HETATM    1  C   UNK N   1       3.157   1.936   0.537  0.00  0.00     0.004 C 
ENDROOT
BRANCH   1   2
HETATM    2  C   UNK N   1       4.381   1.193   0.034  0.00  0.00     0.008 C 
BRANCH   2   3
HETATM    3  C   UNK N   1       5.683   1.894   0.383  0.00  0.00     0.003 C 
HETATM    4  C   UNK N   1       5.760   3.247  -0.313  0.00  0.00     0.014 C 
BRANCH   3   5
HETATM    5  C   UNK N   1       6.808   1.018  -0.070  0.00  0.00    -0.033 C 
HETATM    6  C   UNK N   1       8.078   1.341   0.165  0.00  0.00     0.007 C 
ENDBRANCH   3   5
ENDBRANCH   2   3
ENDBRANCH   1   2
BRANCH   1   7
HETATM    7  C   UNK N   1       1.931   1.211   0.003  0.00  0.00     0.037 C 
BRANCH   7   8
HETATM    8  C   UNK N   1       0.714   2.113  -0.153  0.00  0.00     0.051 C 
HETATM    9  C   UNK N   1       0.188   2.558   1.199  0.00  0.00     0.045 C 
HETATM   10  C   UNK N   1      -0.368   1.332  -0.866  0.00  0.00     0.045 C 
BRANCH   8  11
HETATM   11  O   UNK N   1       1.041   3.235  -0.920  0.00  0.00    -0.391 OA
HETATM   12  H   UNK N   1       1.829   3.427  -1.453  0.00  0.00     0.210 HD
ENDBRANCH   8  11
ENDBRANCH   7   8
ENDBRANCH   1   7
TORSDOF 6
