REMARK  8 active torsions:
REMARK  status: ('A' for Active; 'I' for Inactive)
REMARK       I    between atoms: C_2  and  N_4 
REMARK    1  A    between atoms: C_5  and  N_4 
REMARK    2  A    between atoms: C_5  and  C_6 
REMARK    3  A    between atoms: C_5  and  C_16 
REMARK    4  A    between atoms: C_6  and  C_7 
REMARK    5  A    between atoms: C_11  and  O_12 
REMARK       I    between atoms: C_16  and  N_18 
REMARK    6  A    between atoms: N_18  and  C_19 
REMARK    7  A    between atoms: C_19  and  C_20 
REMARK    8  A    between atoms: C_20  and  O_21 
ROOT
HETATM    1  C   UNK N   1      -1.734   2.628   0.117  0.00  0.00     0.180 C 
ENDROOT
BRANCH   1   2
HETATM    2  N   UNK N   1      -1.938   1.314  -0.455  0.00  0.00    -0.348 N 
HETATM    3  C   UNK N   1      -2.519   0.300   0.225  0.00  0.00     0.214 C 
HETATM    4  C   UNK N   1      -2.677  -1.026  -0.432  0.00  0.00     0.117 C 
HETATM    5  O   UNK N   1      -2.906   0.459   1.373  0.00  0.00    -0.274 OA
HETATM    6  H   UNK N   1      -1.641   1.151  -1.380  0.00  0.00     0.163 HD
ENDBRANCH   1   2
BRANCH   1   7
HETATM    7  C   UNK N   1      -2.411   3.665  -0.779  0.00  0.00     0.073 C 
BRANCH   7   8
HETATM    8  C   UNK N   1      -3.881   3.764  -0.497  0.00  0.00    -0.053 A 
HETATM    9  C   UNK N   1      -4.683   2.616  -0.466  0.00  0.00     0.028 A 
HETATM   10  C   UNK N   1      -6.047   2.710  -0.187  0.00  0.00     0.041 A 
HETATM   11  I   UNK N   1      -7.192   0.939  -0.110  0.00  0.00    -0.042 I 
HETATM   12  C   UNK N   1      -6.627   3.965   0.044  0.00  0.00     0.098 A 
HETATM   13  C   UNK N   1      -5.831   5.121  -0.002  0.00  0.00     0.041 A 
HETATM   14  I   UNK N   1      -6.672   7.030   0.320  0.00  0.00    -0.042 I 
HETATM   15  C   UNK N   1      -4.460   5.015  -0.265  0.00  0.00     0.028 A 
BRANCH  12  16
HETATM   16  O   UNK N   1      -7.943   4.061   0.307  0.00  0.00    -0.358 OA
HETATM   17  H   UNK N   1      -8.343   4.888   0.491  0.00  0.00     0.217 HD
ENDBRANCH  12  16
ENDBRANCH   7   8
ENDBRANCH   1   7
BRANCH   1  18
HETATM   18  C   UNK N   1      -0.259   2.891   0.264  0.00  0.00     0.241 C 
HETATM   19  O   UNK N   1       0.129   3.960   0.711  0.00  0.00    -0.271 OA
HETATM   20  N   UNK N   1       0.625   1.911  -0.046  0.00  0.00    -0.349 N 
HETATM   21  H   UNK N   1       0.275   1.061  -0.399  0.00  0.00     0.163 HD
BRANCH  20  22
HETATM   22  C   UNK N   1       2.051   2.048   0.115  0.00  0.00     0.232 C 
BRANCH  22  23
HETATM   23  C   UNK N   1       2.717   0.708  -0.021  0.00  0.00     0.158 C 
HETATM   24  O   UNK N   1       2.056  -0.306  -0.192  0.00  0.00    -0.649 OA
BRANCH  23  25
HETATM   25  O   UNK N   1       4.057   0.621   0.061  0.00  0.00    -0.775 OA
HETATM   26  H   UNK N   1       4.471  -0.218   0.118  0.00  0.00     0.167 HD
ENDBRANCH  23  25
ENDBRANCH  22  23
ENDBRANCH  20  22
ENDBRANCH   1  18
TORSDOF 8
