REMARK  7 active torsions:
REMARK  status: ('A' for Active; 'I' for Inactive)
REMARK    1  A    between atoms: C_2  and  C_1 
REMARK    2  A    between atoms: O_13  and  C_1 
REMARK    3  A    between atoms: C_3  and  O_14 
REMARK    4  A    between atoms: C_4  and  O_15 
REMARK    5  A    between atoms: C_5  and  O_16 
REMARK    6  A    between atoms: O_17  and  C_6 
REMARK    7  A    between atoms: S_19  and  C_7 
ROOT
HETATM    1  C   UNK N   1       2.589  -0.659   0.289  0.00  0.00     0.180 C 
HETATM    2  C   UNK N   1       3.629   0.468   0.008  0.00  0.00     0.180 C 
HETATM    3  C   UNK N   1       2.989   1.869   0.139  0.00  0.00     0.183 C 
HETATM    4  C   UNK N   1       1.569   1.800  -0.421  0.00  0.00     0.213 C 
HETATM    5  C   UNK N   1      -0.361   0.125  -0.407  0.00  0.00     0.178 A 
HETATM    6  C   UNK N   1      -1.346   1.246   1.127  0.00  0.00     0.141 A 
HETATM    7  C   UNK N   1       0.733   0.775   0.422  0.00  0.00     0.232 A 
HETATM    8  N   UNK N   1      -1.522   0.419   0.020  0.00  0.00    -0.317 N 
ATOM      9  HN  UNK N   1      -2.411   0.108  -0.372  1.00  0.00     0.170 HD
HETATM   10  N   UNK N   1      -0.109   1.466   1.390  0.00  0.00    -0.330 N 
ATOM     11  HN  UNK N   1       0.234   2.038   2.162  1.00  0.00     0.165 HD
HETATM   12  O   UNK N   1       1.535  -0.195   1.110  0.00  0.00    -0.341 OA
ENDROOT
BRANCH   4  13
HETATM   13  O   UNK N   1       0.971   3.066  -0.432  0.00  0.00    -0.387 OA
HETATM   14  H   UNK N   1       1.523   3.863  -0.439  0.00  0.00     0.210 HD
ENDBRANCH   4  13
BRANCH   5  15
HETATM   15  O   UNK N   1      -0.160  -0.668  -1.476  0.00  0.00    -0.345 OA
HETATM   16  H   UNK N   1      -0.569  -1.065  -2.221  0.00  0.00     0.219 HD
ENDBRANCH   5  15
BRANCH   3  17
HETATM   17  O   UNK N   1       2.937   2.253   1.485  0.00  0.00    -0.390 OA
HETATM   18  H   UNK N   1       3.149   2.417   2.417  0.00  0.00     0.210 HD
ENDBRANCH   3  17
BRANCH   6  19
HETATM   19  S   UNK N   1      -2.701   1.952   2.054  0.00  0.00    -0.107 SA
HETATM   20  H   UNK N   1      -2.752   3.113   2.759  0.00  0.00     0.110 HD
ENDBRANCH   6  19
BRANCH   1  21
HETATM   21  C   UNK N   1       3.207  -1.912   0.903  0.00  0.00     0.198 C 
BRANCH  21  22
HETATM   22  O   UNK N   1       4.127  -2.489   0.026  0.00  0.00    -0.398 OA
HETATM   23  H   UNK N   1       4.099  -3.243  -0.583  0.00  0.00     0.209 HD
ENDBRANCH  21  22
ENDBRANCH   1  21
BRANCH   2  24
HETATM   24  O   UNK N   1       4.744   0.391   0.849  0.00  0.00    -0.390 OA
HETATM   25  H   UNK N   1       5.085  -0.305   1.432  0.00  0.00     0.210 HD
ENDBRANCH   2  24
TORSDOF 7
