REMARK  18 active torsions:
REMARK  status: ('A' for Active; 'I' for Inactive)
REMARK    1  A    between atoms: C_3  and  C_2 
REMARK    2  A    between atoms: C_4  and  C_2 
REMARK    3  A    between atoms: C_5  and  C_3 
REMARK    4  A    between atoms: C_6  and  C_4 
REMARK    5  A    between atoms: C_7  and  C_5 
REMARK    6  A    between atoms: C_8  and  C_6 
REMARK    7  A    between atoms: C_9  and  C_7 
REMARK    8  A    between atoms: C_22  and  C_8 
REMARK    9  A    between atoms: C_29  and  C_9 
REMARK   10  A    between atoms: C_28  and  C_18 
REMARK   11  A    between atoms: O_51  and  C_18 
REMARK   12  A    between atoms: O_46  and  C_23 
REMARK   13  A    between atoms: O_51  and  C_29 
REMARK   14  A    between atoms: C_31  and  O_48 
REMARK   15  A    between atoms: C_32  and  O_49 
REMARK   16  A    between atoms: C_33  and  O_50 
REMARK   17  A    between atoms: N_38  and  C_34 
REMARK   18  A    between atoms: C_36  and  N_45 
ROOT
HETATM    1  C   UNK N   1      12.128  -2.250  -0.650  0.00  0.00     0.010 C 
ENDROOT
BRANCH   1   2
HETATM    2  C   UNK N   1      13.186  -1.346  -0.058  0.00  0.00     0.000 C 
BRANCH   2   3
HETATM    3  C   UNK N   1      14.097  -1.976   0.987  0.00  0.00     0.000 C 
BRANCH   3   4
HETATM    4  C   UNK N   1      13.550  -3.117   1.832  0.00  0.00     0.000 C 
BRANCH   4   5
HETATM    5  C   UNK N   1      14.170  -4.468   1.449  0.00  0.00     0.000 C 
BRANCH   5   6
HETATM    6  C   UNK N   1      15.663  -4.410   1.125  0.00  0.00     0.000 C 
BRANCH   6   7
HETATM    7  C   UNK N   1      15.879  -4.157  -0.375  0.00  0.00     0.007 C 
BRANCH   7   8
HETATM    8  C   UNK N   1      17.103  -3.273  -0.672  0.00  0.00     0.015 C 
HETATM    9  C   UNK N   1      18.387  -3.848  -0.088  0.00  0.00     0.013 C 
HETATM   10  C   UNK N   1      19.225  -2.644   0.359  0.00  0.00     0.001 C 
HETATM   11  C   UNK N   1      20.640  -2.668  -0.276  0.00  0.00    -0.001 C 
HETATM   12  C   UNK N   1      18.415  -1.359   0.006  0.00  0.00    -0.014 C 
HETATM   13  C   UNK N   1      21.525  -3.767   0.360  0.00  0.00     0.010 C 
HETATM   14  C   UNK N   1      21.205  -1.234  -0.161  0.00  0.00     0.023 C 
HETATM   15  C   UNK N   1      22.637  -3.199   1.249  0.00  0.00     0.039 C 
HETATM   16  C   UNK N   1      23.408  -2.170   0.476  0.00  0.00    -0.049 A 
HETATM   17  C   UNK N   1      24.802  -2.172   0.477  0.00  0.00     0.044 A 
HETATM   18  C   UNK N   1      22.701  -1.208  -0.265  0.00  0.00    -0.047 A 
HETATM   19  C   UNK N   1      25.497  -1.200  -0.248  0.00  0.00     0.066 A 
HETATM   20  C   UNK N   1      24.797  -0.242  -0.992  0.00  0.00     0.037 A 
HETATM   21  C   UNK N   1      23.398  -0.247  -1.007  0.00  0.00     0.011 A 
HETATM   22  C   UNK N   1      20.433  -0.314  -1.146  0.00  0.00     0.010 C 
HETATM   23  C   UNK N   1      18.942  -0.738  -1.303  0.00  0.00     0.013 C 
HETATM   24  C   UNK N   1      18.492  -0.272   1.087  0.00  0.00     0.018 C 
HETATM   25  C   UNK N   1      16.997  -1.884  -0.054  0.00  0.00     0.130 C 
BRANCH  19  26
HETATM   26  O   UNK N   1      26.839  -1.183  -0.225  0.00  0.00    -0.361 OA
HETATM   27  H   UNK N   1      27.318  -1.988  -0.209  0.00  0.00     0.217 HD
ENDBRANCH  19  26
BRANCH  25  28
HETATM   28  O   UNK N   1      16.140  -1.038  -0.765  0.00  0.00    -0.394 OA
HETATM   29  H   UNK N   1      16.352  -0.230  -1.258  0.00  0.00     0.210 HD
ENDBRANCH  25  28
ENDBRANCH   7   8
ENDBRANCH   6   7
ENDBRANCH   5   6
ENDBRANCH   4   5
ENDBRANCH   3   4
ENDBRANCH   2   3
ENDBRANCH   1   2
BRANCH   1  30
HETATM   30  C   UNK N   1      12.561  -3.537  -1.327  0.00  0.00     0.111 C 
BRANCH  30  31
HETATM   31  C   UNK N   1      11.728  -4.706  -0.834  0.00  0.00     0.258 C 
HETATM   32  O   UNK N   1      12.305  -5.718  -0.474  0.00  0.00    -0.265 OA
BRANCH  31  33
HETATM   33  O   UNK N   1      10.364  -4.675  -0.776  0.00  0.00    -0.319 OA
BRANCH  33  34
HETATM   34  C   UNK N   1       9.610  -3.541  -1.005  0.00  0.00     0.213 C 
BRANCH  34  35
HETATM   35  C   UNK N   1       9.374  -2.788   0.319  0.00  0.00     0.180 C 
HETATM   36  C   UNK N   1       9.277  -1.279   0.083  0.00  0.00     0.182 C 
HETATM   37  C   UNK N   1       7.835  -1.182  -0.269  0.00  0.00     0.198 C 
HETATM   38  C   UNK N   1       7.258  -2.110   0.796  0.00  0.00     0.262 C 
HETATM   39  O   UNK N   1       8.150  -3.211   0.898  0.00  0.00    -0.353 OA
BRANCH  36  40
HETATM   40  O   UNK N   1       9.528  -0.605   1.286  0.00  0.00    -0.390 OA
HETATM   41  H   UNK N   1      10.019  -0.521   2.118  0.00  0.00     0.210 HD
ENDBRANCH  36  40
BRANCH  37  42
HETATM   42  O   UNK N   1       7.359   0.128  -0.198  0.00  0.00    -0.388 OA
HETATM   43  H   UNK N   1       7.982   0.870  -0.148  0.00  0.00     0.210 HD
ENDBRANCH  37  42
BRANCH  38  44
HETATM   44  N   UNK N   1       5.910  -2.550   0.438  0.00  0.00    -0.297 N 
HETATM   45  C   UNK N   1       5.495  -3.825   0.222  0.00  0.00     0.188 A 
HETATM   46  N   UNK N   1       4.171  -3.867  -0.100  0.00  0.00    -0.346 N 
HETATM   47  C   UNK N   1       3.783  -2.579  -0.077  0.00  0.00     0.122 A 
ATOM     48  HN  UNK N   1       3.604  -4.688  -0.311  1.00  0.00     0.167 HD
HETATM   49  C   UNK N   1       2.543  -2.018  -0.333  0.00  0.00     0.131 A 
HETATM   50  C   UNK N   1       4.823  -1.792   0.250  0.00  0.00     0.142 A 
HETATM   51  N   UNK N   1       2.423  -0.659  -0.244  0.00  0.00    -0.337 N 
HETATM   52  C   UNK N   1       3.500   0.124   0.094  0.00  0.00     0.183 A 
ATOM     53  HN  UNK N   1       1.521  -0.221  -0.431  1.00  0.00     0.168 HD
HETATM   54  N   UNK N   1       4.718  -0.446   0.348  0.00  0.00    -0.336 N 
ATOM     55  HN  UNK N   1       5.523   0.127   0.602  1.00  0.00     0.168 HD
BRANCH  49  56
HETATM   56  N   UNK N   1       1.435  -2.816  -0.681  0.00  0.00    -0.383 N 
HETATM   57  H   UNK N   1       0.565  -2.425  -0.924  0.00  0.00     0.157 HD
HETATM   58  H   UNK N   1       1.535  -3.796  -0.681  0.00  0.00     0.157 HD
ENDBRANCH  49  56
ENDBRANCH  38  44
ENDBRANCH  34  35
ENDBRANCH  33  34
ENDBRANCH  31  33
ENDBRANCH  30  31
ENDBRANCH   1  30
TORSDOF 18
