REMARK  6 active torsions:
REMARK  status: ('A' for Active; 'I' for Inactive)
REMARK    1  A    between atoms: C_3  and  C_2 
REMARK    2  A    between atoms: O_9  and  C_2 
REMARK    3  A    between atoms: C_4  and  N_8 
REMARK    4  A    between atoms: C_5  and  O_10 
REMARK    5  A    between atoms: C_6  and  O_11 
REMARK    6  A    between atoms: C_7  and  O_12 
ROOT
HETATM    1  C   UNK N   1       1.958  -0.333   0.280  0.00  0.00     0.008 C 
HETATM    2  C   UNK N   1       2.032   0.987   0.036  0.00  0.00    -0.027 C 
HETATM    3  C   UNK N   1       0.662  -1.104   0.332  0.00  0.00     0.129 C 
HETATM    4  C   UNK N   1       0.775   1.828  -0.171  0.00  0.00     0.180 C 
HETATM    5  C   UNK N   1      -0.510  -0.328  -0.296  0.00  0.00     0.175 C 
HETATM    6  C   UNK N   1      -0.514   1.095   0.254  0.00  0.00     0.182 C 
ENDROOT
BRANCH   2   7
HETATM    7  C   UNK N   1       3.409   1.580  -0.105  0.00  0.00     0.201 C 
BRANCH   7   8
HETATM    8  O   UNK N   1       3.373   2.942  -0.409  0.00  0.00    -0.397 OA
HETATM    9  H   UNK N   1       4.180   3.436  -0.621  0.00  0.00     0.209 HD
ENDBRANCH   7   8
ENDBRANCH   2   7
BRANCH   4  10
HETATM   10  O   UNK N   1       0.856   3.016   0.559  0.00  0.00    -0.388 OA
HETATM   11  H   UNK N   1       1.599   3.380   1.066  0.00  0.00     0.210 HD
ENDBRANCH   4  10
BRANCH   3  12
HETATM   12  N   UNK N   1       0.828  -2.371  -0.360  0.00  0.00    -0.421 N 
HETATM   13  H   UNK N   1       0.116  -2.916  -0.846  0.00  0.00     0.150 HD
HETATM   14  H   UNK N   1       1.770  -2.762  -0.360  0.00  0.00     0.150 HD
ENDBRANCH   3  12
BRANCH   6  15
HETATM   15  O   UNK N   1      -1.628   1.800  -0.211  0.00  0.00    -0.390 OA
HETATM   16  H   UNK N   1      -1.590   2.714  -0.534  0.00  0.00     0.210 HD
ENDBRANCH   6  15
BRANCH   5  17
HETATM   17  O   UNK N   1      -1.712  -0.973   0.011  0.00  0.00    -0.391 OA
HETATM   18  H   UNK N   1      -2.516  -0.475   0.225  0.00  0.00     0.210 HD
ENDBRANCH   5  17
TORSDOF 6
