REMARK  14 active torsions:
REMARK  status: ('A' for Active; 'I' for Inactive)
REMARK    1  A    between atoms: C_8  and  C_7 
REMARK    2  A    between atoms: C_17  and  C_7 
REMARK    3  A    between atoms: C_18  and  C_8 
REMARK    4  A    between atoms: C_11  and  C_9 
REMARK    5  A    between atoms: C_14  and  C_9 
REMARK    6  A    between atoms: C_14  and  C_12 
REMARK    7  A    between atoms: C_19  and  C_13 
REMARK    8  A    between atoms: C_14  and  C_21 
REMARK    9  A    between atoms: C_22  and  C_17 
REMARK   10  A    between atoms: C_17  and  N_26 
REMARK   11  A    between atoms: O_31  and  C_18 
REMARK       I    between atoms: N_26  and  C_19 
REMARK   12  A    between atoms: O_33  and  C_20 
REMARK   13  A    between atoms: O_35  and  C_21 
REMARK   14  A    between atoms: O_37  and  C_22 
REMARK       I    between atoms: N_24  and  C_23 
ROOT
HETATM    1  C   UNK N   1      -1.783  -0.706   0.374  0.00  0.00     0.121 C 
ENDROOT
BRANCH   1   2
HETATM    2  C   UNK N   1      -0.911  -1.308  -0.754  0.00  0.00     0.058 C 
BRANCH   2   3
HETATM    3  C   UNK N   1       0.475  -0.790  -0.636  0.00  0.00    -0.056 A 
HETATM    4  C   UNK N   1       1.546  -1.680  -0.518  0.00  0.00     0.009 A 
HETATM    5  C   UNK N   1       2.824  -1.194  -0.221  0.00  0.00     0.031 A 
HETATM    6  C   UNK N   1       3.012   0.176  -0.004  0.00  0.00     0.063 A 
HETATM    7  C   UNK N   1       1.930   1.063  -0.132  0.00  0.00     0.043 A 
HETATM    8  N   UNK N   1       4.228   0.652   0.361  0.00  0.00    -0.191 N 
HETATM    9  C   UNK N   1       0.675   0.580  -0.463  0.00  0.00     0.025 A 
HETATM   10  C   UNK N   1       2.134   2.418   0.122  0.00  0.00     0.167 A 
HETATM   11  N   UNK N   1       3.367   2.848   0.492  0.00  0.00    -0.170 N 
HETATM   12  C   UNK N   1       4.406   1.977   0.612  0.00  0.00     0.678 A 
ATOM     13  HN  UNK N   1       3.517   3.838   0.683  1.00  0.00     0.186 HD
HETATM   14  N   UNK N   1       5.553   2.405   0.979  0.00  0.00    -0.234 N 
HETATM   15  H   UNK N   1       6.280   1.805   1.261  0.00  0.00     0.174 HD
ATOM     16  HN  UNK N   1       5.722   3.411   0.979  1.00  0.00     0.174 HD
HETATM   17  H   UNK N   1       4.989   0.033   0.446  0.00  0.00     0.184 HD
BRANCH  10  18
HETATM   18  O   UNK N   1       1.118   3.296   0.027  0.00  0.00    -0.345 OA
HETATM   19  H   UNK N   1       1.294   4.214  -0.038  0.00  0.00     0.219 HD
ENDBRANCH  10  18
ENDBRANCH   2   3
ENDBRANCH   1   2
BRANCH   1  20
HETATM   20  C   UNK N   1      -2.805  -1.716   0.823  0.00  0.00    -0.044 A 
HETATM   21  C   UNK N   1      -4.082  -1.289   1.184  0.00  0.00     0.009 A 
HETATM   22  C   UNK N   1      -5.107  -2.199   1.297  0.00  0.00     0.017 A 
HETATM   23  C   UNK N   1      -4.879  -3.559   1.056  0.00  0.00     0.032 A 
HETATM   24  C   UNK N   1      -3.583  -4.018   0.815  0.00  0.00     0.017 A 
HETATM   25  C   UNK N   1      -2.544  -3.095   0.705  0.00  0.00     0.009 A 
BRANCH  23  26
HETATM   26  C   UNK N   1      -6.027  -4.357   0.634  0.00  0.00     0.252 C 
HETATM   27  N   UNK N   1      -7.150  -3.654   0.372  0.00  0.00    -0.343 N 
HETATM   28  H   UNK N   1      -7.244  -2.810   0.871  0.00  0.00     0.163 HD
HETATM   29  O   UNK N   1      -5.888  -5.508   0.251  0.00  0.00    -0.268 OA
BRANCH  27  30
HETATM   30  C   UNK N   1      -8.228  -3.957  -0.525  0.00  0.00     0.183 C 
BRANCH  30  31
HETATM   31  C   UNK N   1      -9.020  -2.649  -0.515  0.00  0.00     0.046 C 
BRANCH  31  32
HETATM   32  C   UNK N   1     -10.456  -2.647  -0.970  0.00  0.00     0.112 C 
BRANCH  32  33
HETATM   33  C   UNK N   1     -11.258  -2.233   0.221  0.00  0.00     0.139 C 
HETATM   34  O   UNK N   1     -12.103  -2.984   0.676  0.00  0.00    -0.650 OA
BRANCH  33  35
HETATM   35  O   UNK N   1     -11.011  -1.055   0.831  0.00  0.00    -0.776 OA
HETATM   36  H   UNK N   1     -10.217  -0.795   1.254  0.00  0.00     0.167 HD
ENDBRANCH  33  35
ENDBRANCH  32  33
ENDBRANCH  31  32
ENDBRANCH  30  31
BRANCH  30  37
HETATM   37  C   UNK N   1      -8.971  -5.216  -0.140  0.00  0.00     0.163 C 
HETATM   38  O   UNK N   1      -8.392  -6.289  -0.159  0.00  0.00    -0.648 OA
BRANCH  37  39
HETATM   39  O   UNK N   1     -10.279  -5.187   0.166  0.00  0.00    -0.775 OA
HETATM   40  H   UNK N   1     -10.718  -4.386   0.379  0.00  0.00     0.167 HD
ENDBRANCH  37  39
ENDBRANCH  30  37
ENDBRANCH  27  30
ENDBRANCH  23  26
ENDBRANCH   1  20
BRANCH   1  41
HETATM   41  C   UNK N   1      -2.427   0.579  -0.150  0.00  0.00     0.148 C 
HETATM   42  O   UNK N   1      -3.089   1.283   0.597  0.00  0.00    -0.649 OA
BRANCH  41  43
HETATM   43  O   UNK N   1      -2.285   0.946  -1.441  0.00  0.00    -0.776 OA
HETATM   44  H   UNK N   1      -2.014   0.988  -2.337  0.00  0.00     0.167 HD
ENDBRANCH  41  43
ENDBRANCH   1  41
TORSDOF 14
