REMARK  14 active torsions:
REMARK  status: ('A' for Active; 'I' for Inactive)
REMARK    1  A    between atoms: P_1  and  O_2 
REMARK    2  A    between atoms: P_1  and  O_3 
REMARK    3  A    between atoms: P_1  and  O_4 
REMARK    4  A    between atoms: O_2  and  C_16 
REMARK    5  A    between atoms: C_12  and  O_5 
REMARK    6  A    between atoms: C_13  and  O_6 
REMARK    7  A    between atoms: C_14  and  O_7 
REMARK    8  A    between atoms: C_15  and  O_8 
REMARK    9  A    between atoms: O_9  and  C_17 
REMARK   10  A    between atoms: C_12  and  C_13 
REMARK   11  A    between atoms: C_12  and  C_14 
REMARK   12  A    between atoms: C_13  and  C_15 
REMARK   13  A    between atoms: C_14  and  C_16 
REMARK   14  A    between atoms: C_15  and  C_17 
ROOT
HETATM    1  C   UNK N   1       8.585  -9.541  -0.097  0.00  0.00     0.180 C 
ENDROOT
BRANCH   1   2
HETATM    2  O   UNK N   1       8.934  -8.283   0.403  0.00  0.00    -0.390 OA
HETATM    3  H   UNK N   1       9.811  -8.056   0.750  0.00  0.00     0.210 HD
ENDBRANCH   1   2
BRANCH   1   4
HETATM    4  C   UNK N   1       7.133  -9.885   0.305  0.00  0.00     0.188 C 
BRANCH   4   5
HETATM    5  O   UNK N   1       6.800 -11.146  -0.197  0.00  0.00    -0.390 OA
HETATM    6  H   UNK N   1       5.926 -11.383  -0.545  0.00  0.00     0.210 HD
ENDBRANCH   4   5
BRANCH   4   7
HETATM    7  C   UNK N   1       6.101  -8.867  -0.219  0.00  0.00     0.246 C 
BRANCH   7   8
HETATM    8  O   UNK N   1       6.341  -7.602   0.321  0.00  0.00    -0.382 OA
HETATM    9  H   UNK N   1       7.185  -7.306   0.695  0.00  0.00     0.210 HD
ENDBRANCH   7   8
BRANCH   7  10
HETATM   10  C   UNK N   1       4.672  -9.254   0.081  0.00  0.00     0.172 C 
HETATM   11  O   UNK N   1       4.412 -10.263   0.723  0.00  0.00    -0.648 OA
BRANCH  10  12
HETATM   12  O   UNK N   1       3.666  -8.482  -0.367  0.00  0.00    -0.774 OA
HETATM   13  H   UNK N   1       3.782  -7.606  -0.679  0.00  0.00     0.167 HD
ENDBRANCH  10  12
ENDBRANCH   7  10
ENDBRANCH   4   7
ENDBRANCH   1   4
BRANCH   1  14
HETATM   14  C   UNK N   1       9.590 -10.590   0.421  0.00  0.00     0.173 C 
BRANCH  14  15
HETATM   15  O   UNK N   1       9.268 -11.856  -0.068  0.00  0.00    -0.391 OA
HETATM   16  H   UNK N   1       8.394 -12.103  -0.409  0.00  0.00     0.210 HD
ENDBRANCH  14  15
BRANCH  14  17
HETATM   17  C   UNK N   1      11.012 -10.295  -0.026  0.00  0.00     0.214 C 
BRANCH  17  18
HETATM   18  O   UNK N   1      11.584  -9.242   0.698  0.00  0.00    -0.294 OA
BRANCH  18  19
HETATM   19  P   UNK N   1      12.501  -8.351  -0.483  0.00  0.00     0.390 P 
HETATM   20  O   UNK N   1      12.038  -7.209   0.461  0.00  0.00    -0.632 OA
BRANCH  19  21
HETATM   21  O   UNK N   1      13.584  -9.388   0.401  0.00  0.00    -0.307 OA
HETATM   22  H   UNK N   1      13.385 -10.199   0.893  0.00  0.00     0.222 HD
ENDBRANCH  19  21
BRANCH  19  23
HETATM   23  O   UNK N   1      14.002  -7.570  -0.099  0.00  0.00    -0.307 OA
HETATM   24  H   UNK N   1      14.799  -8.078   0.116  0.00  0.00     0.222 HD
ENDBRANCH  19  23
ENDBRANCH  18  19
ENDBRANCH  17  18
ENDBRANCH  14  17
ENDBRANCH   1  14
TORSDOF 14
