REMARK  2 active torsions:
REMARK  status: ('A' for Active; 'I' for Inactive)
REMARK    1  A    between atoms: O_1  and  C_2 
REMARK    2  A    between atoms: C_2  and  C_4 
ROOT
HETATM    1  C   UNK N   1       1.403  -0.572   0.000  0.00  0.00     0.164 C 
HETATM    2  O   UNK N   1       0.617  -1.509   0.000  0.00  0.00    -0.647 OA
ENDROOT
BRANCH   1   3
HETATM    3  O   UNK N   1       2.726  -0.812  -0.000  0.00  0.00    -0.773 OA
HETATM    4  H   UNK N   1       3.042  -1.694  -0.000  0.00  0.00     0.167 HD
ENDBRANCH   1   3
BRANCH   1   5
HETATM    5  C   UNK N   1       0.915   0.815  -0.000  0.00  0.00     0.071 C 
HETATM    6  C   UNK N   1      -0.388   1.089  -0.000  0.00  0.00     0.018 C 
ENDBRANCH   1   5
TORSDOF 2
