REMARK  14 active torsions:
REMARK  status: ('A' for Active; 'I' for Inactive)
REMARK    1  A    between atoms: C_3  and  C_2 
REMARK    2  A    between atoms: C_4  and  C_2 
REMARK    3  A    between atoms: C_9  and  C_3 
REMARK    4  A    between atoms: C_10  and  C_4 
REMARK    5  A    between atoms: C_8  and  C_5 
REMARK    6  A    between atoms: O_28  and  C_5 
REMARK    7  A    between atoms: O_28  and  C_7 
REMARK    8  A    between atoms: C_15  and  C_9 
REMARK    9  A    between atoms: C_9  and  N_17 
REMARK   10  A    between atoms: C_10  and  O_22 
REMARK   11  A    between atoms: C_11  and  N_18 
REMARK   12  A    between atoms: C_16  and  C_12 
REMARK   13  A    between atoms: O_25  and  C_15 
REMARK   14  A    between atoms: O_27  and  C_16 
ROOT
HETATM    1  C   UNK N   1       3.947   2.476   0.177  0.00  0.00     0.115 C 
HETATM    2  C   UNK N   1       5.405   2.890   0.221  0.00  0.00    -0.013 C 
HETATM    3  C   UNK N   1       3.030   6.275  -0.603  0.00  0.00     0.209 C 
HETATM    4  C   UNK N   1       5.717   4.224   0.251  0.00  0.00     0.117 C 
HETATM    5  C   UNK N   1       4.470   6.377  -0.235  0.00  0.00     0.251 C 
HETATM    6  C   UNK N   1       3.224   4.825   0.065  0.00  0.00     0.187 C 
HETATM    7  N   UNK N   1       4.615   5.148   0.181  0.00  0.00    -0.293 N 
HETATM    8  O   UNK N   1       5.338   7.162  -0.587  0.00  0.00    -0.271 OA
HETATM    9  S   UNK N   1       3.048   3.440  -1.079  0.00  0.00    -0.136 SA
ENDROOT
BRANCH   3  10
HETATM   10  N   UNK N   1       2.089   7.054   0.166  0.00  0.00    -0.359 N 
HETATM   11  C   UNK N   1       0.826   6.851  -0.026  0.00  0.00     0.111 C 
ATOM     12  HN  UNK N   1       2.411   7.746   0.842  1.00  0.00     0.162 HD
BRANCH  11  13
HETATM   13  C   UNK N   1      -0.203   7.650   0.722  0.00  0.00     0.083 C 
BRANCH  13  14
HETATM   14  C   UNK N   1      -1.628   7.319   0.263  0.00  0.00     0.010 C 
BRANCH  14  15
HETATM   15  C   UNK N   1      -2.035   5.915   0.701  0.00  0.00     0.036 C 
BRANCH  15  16
HETATM   16  C   UNK N   1      -3.062   5.305  -0.247  0.00  0.00     0.173 C 
BRANCH  16  17
HETATM   17  C   UNK N   1      -4.442   5.864  -0.012  0.00  0.00     0.163 C 
HETATM   18  O   UNK N   1      -5.367   5.130   0.302  0.00  0.00    -0.648 OA
BRANCH  17  19
HETATM   19  O   UNK N   1      -4.668   7.182  -0.170  0.00  0.00    -0.775 OA
HETATM   20  H   UNK N   1      -3.952   7.777  -0.280  0.00  0.00     0.167 HD
ENDBRANCH  17  19
ENDBRANCH  16  17
BRANCH  16  21
HETATM   21  N   UNK N   1      -3.058   3.859  -0.080  0.00  0.00    -0.418 N 
HETATM   22  H   UNK N   1      -3.934   3.350   0.036  0.00  0.00     0.150 HD
HETATM   23  H   UNK N   1      -2.173   3.352  -0.080  0.00  0.00     0.150 HD
ENDBRANCH  16  21
ENDBRANCH  15  16
ENDBRANCH  14  15
ENDBRANCH  13  14
ENDBRANCH  11  13
BRANCH  11  24
HETATM   24  O   UNK N   1       0.421   5.910  -0.913  0.00  0.00    -0.350 OA
HETATM   25  H   UNK N   1      -0.283   5.827  -1.526  0.00  0.00     0.219 HD
ENDBRANCH  11  24
ENDBRANCH   3  10
BRANCH   4  26
HETATM   26  C   UNK N   1       7.143   4.708   0.233  0.00  0.00     0.194 C 
HETATM   27  O   UNK N   1       7.391   5.899   0.300  0.00  0.00    -0.645 OA
BRANCH  26  28
HETATM   28  O   UNK N   1       8.171   3.842   0.134  0.00  0.00    -0.772 OA
HETATM   29  H   UNK N   1       8.007   2.922   0.066  0.00  0.00     0.167 HD
ENDBRANCH  26  28
ENDBRANCH   4  26
BRANCH   2  30
HETATM   30  C   UNK N   1       6.442   1.797   0.185  0.00  0.00     0.216 C 
BRANCH  30  31
HETATM   31  O   UNK N   1       5.843   0.556   0.107  0.00  0.00    -0.317 OA
BRANCH  31  32
HETATM   32  C   UNK N   1       6.545  -0.596   0.014  0.00  0.00     0.255 C 
HETATM   33  C   UNK N   1       5.815  -1.893  -0.044  0.00  0.00     0.126 C 
HETATM   34  O   UNK N   1       7.766  -0.586  -0.024  0.00  0.00    -0.266 OA
ENDBRANCH  31  32
ENDBRANCH  30  31
ENDBRANCH   2  30
TORSDOF 14
