REMARK  0 active torsions:
REMARK  status: ('A' for Active; 'I' for Inactive)
ROOT
HETATM    1 Br   UNK N   1       2.034   1.677   0.000  0.00  0.00    -0.067 Br
HETATM    2  C   UNK N   1       1.069   0.000   0.000  0.00  0.00     0.201 C 
HETATM    3 Br   UNK N   1       2.034  -1.677   0.000  0.00  0.00    -0.067 Br
HETATM    4 Br   UNK N   1      -0.862   0.000   0.000  0.00  0.00    -0.067 Br
ENDROOT
TORSDOF 0
