REMARK  9 active torsions:
REMARK  status: ('A' for Active; 'I' for Inactive)
REMARK    1  A    between atoms: C_4  and  C_2 
REMARK    2  A    between atoms: O_14  and  C_2 
REMARK    3  A    between atoms: O_15  and  C_3 
REMARK    4  A    between atoms: C_5  and  O_16 
REMARK    5  A    between atoms: C_6  and  O_17 
REMARK    6  A    between atoms: C_7  and  O_18 
REMARK    7  A    between atoms: C_8  and  N_12 
REMARK    8  A    between atoms: N_10  and  C_9 
REMARK    9  A    between atoms: C_9  and  O_19 
ROOT
HETATM    1  C   UNK N   1       1.496   1.234  -0.861  0.00  0.00     0.179 C 
HETATM    2  C   UNK N   1       0.817   2.276   0.076  0.00  0.00     0.180 C 
HETATM    3  C   UNK N   1      -0.640   1.864   0.263  0.00  0.00     0.182 C 
HETATM    4  C   UNK N   1      -0.720   0.420   0.809  0.00  0.00     0.198 C 
HETATM    5  C   UNK N   1       0.657  -0.331   0.747  0.00  0.00     0.255 C 
HETATM    6  O   UNK N   1       1.379  -0.133  -0.459  0.00  0.00    -0.354 OA
ENDROOT
BRANCH   5   7
HETATM    7  N   UNK N   1       0.473  -1.752   0.992  0.00  0.00    -0.327 N 
HETATM    8  C   UNK N   1      -0.072  -2.552   0.132  0.00  0.00     0.220 C 
ATOM      9  HN  UNK N   1       0.788  -2.137   1.882  1.00  0.00     0.165 HD
BRANCH   8  10
HETATM   10  N   UNK N   1      -0.348  -3.892   0.510  0.00  0.00    -0.307 N 
HETATM   11  C   UNK N   1      -1.471  -4.459   0.214  0.00  0.00     0.114 C 
HETATM   12  C   UNK N   1      -1.695  -5.883   0.580  0.00  0.00     0.097 C 
ATOM     13  HN  UNK N   1       0.355  -4.420   1.026  1.00  0.00     0.171 HD
BRANCH  11  14
HETATM   14  O   UNK N   1      -2.470  -3.763  -0.368  0.00  0.00    -0.350 OA
HETATM   15  H   UNK N   1      -2.398  -2.920  -0.772  0.00  0.00     0.219 HD
ENDBRANCH  11  14
ENDBRANCH   8  10
BRANCH   8  16
HETATM   16  O   UNK N   1      -0.419  -2.117  -1.098  0.00  0.00    -0.332 OA
HETATM   17  H   UNK N   1      -0.277  -1.757  -1.951  0.00  0.00     0.220 HD
ENDBRANCH   8  16
ENDBRANCH   5   7
BRANCH   4  18
HETATM   18  O   UNK N   1      -1.747  -0.266   0.151  0.00  0.00    -0.389 OA
HETATM   19  H   UNK N   1      -2.514   0.113  -0.306  0.00  0.00     0.210 HD
ENDBRANCH   4  18
BRANCH   3  20
HETATM   20  O   UNK N   1      -1.288   1.950  -0.978  0.00  0.00    -0.390 OA
HETATM   21  H   UNK N   1      -1.461   2.367  -1.836  0.00  0.00     0.210 HD
ENDBRANCH   3  20
BRANCH   1  22
HETATM   22  C   UNK N   1       2.962   1.592  -1.098  0.00  0.00     0.198 C 
BRANCH  22  23
HETATM   23  O   UNK N   1       3.673   1.641   0.101  0.00  0.00    -0.398 OA
HETATM   24  H   UNK N   1       3.950   1.230   0.935  0.00  0.00     0.209 HD
ENDBRANCH  22  23
ENDBRANCH   1  22
BRANCH   2  25
HETATM   25  O   UNK N   1       0.883   3.554  -0.489  0.00  0.00    -0.390 OA
HETATM   26  H   UNK N   1       1.673   3.957  -0.881  0.00  0.00     0.210 HD
ENDBRANCH   2  25
TORSDOF 9
