REMARK  23 active torsions:
REMARK  status: ('A' for Active; 'I' for Inactive)
REMARK    1  A    between atoms: C_1  and  N_35 
REMARK    2  A    between atoms: C_3  and  O_6 
REMARK    3  A    between atoms: C_4  and  C_33 
REMARK    4  A    between atoms: C_5  and  O_34 
REMARK    5  A    between atoms: N_9  and  C_7 
REMARK    6  A    between atoms: C_7  and  C_8 
REMARK    7  A    between atoms: C_8  and  S_12 
REMARK       I    between atoms: C_10  and  N_9 
REMARK    8  A    between atoms: C_14  and  C_10 
REMARK    9  A    between atoms: C_13  and  N_15 
REMARK   10  A    between atoms: C_14  and  C_13 
REMARK       I    between atoms: C_17  and  N_15 
REMARK   11  A    between atoms: C_17  and  C_22 
REMARK   12  A    between atoms: C_20  and  C_18 
REMARK   13  A    between atoms: C_18  and  O_24 
REMARK   14  A    between atoms: C_22  and  C_20 
REMARK   15  A    between atoms: C_22  and  O_23 
REMARK   16  A    between atoms: O_24  and  P_31 
REMARK   17  A    between atoms: P_31  and  O_25 
REMARK   18  A    between atoms: O_25  and  P_32 
REMARK   19  A    between atoms: P_32  and  O_26 
REMARK   20  A    between atoms: C_33  and  O_26 
REMARK   21  A    between atoms: P_31  and  O_28 
REMARK   22  A    between atoms: P_32  and  O_30 
REMARK   23  A    between atoms: N_47  and  C_43 
ROOT
HETATM    1  O   UNK N   1      16.539   0.850  -0.561  0.00  0.00    -0.631 OA
HETATM    2  P   UNK N   1      17.153  -0.571  -0.430  0.00  0.00     0.401 P 
ENDROOT
BRANCH   2   3
HETATM    3  O   UNK N   1      16.069  -1.563   0.504  0.00  0.00    -0.195 OA
BRANCH   3   4
HETATM    4  P   UNK N   1      14.620  -1.546  -0.428  0.00  0.00     0.401 P 
HETATM    5  O   UNK N   1      14.324  -0.625   0.791  0.00  0.00    -0.631 OA
BRANCH   4   6
HETATM    6  O   UNK N   1      13.030  -2.014   0.047  0.00  0.00    -0.296 OA
BRANCH   6   7
HETATM    7  C   UNK N   1      12.228  -1.310  -0.862  0.00  0.00     0.192 C 
BRANCH   7   8
HETATM    8  C   UNK N   1      10.896  -0.896  -0.254  0.00  0.00     0.009 C 
HETATM    9  C   UNK N   1      11.085  -0.390   1.173  0.00  0.00     0.020 C 
HETATM   10  C   UNK N   1      10.386   0.263  -1.090  0.00  0.00     0.020 C 
BRANCH   8  11
HETATM   11  C   UNK N   1       9.863  -2.042  -0.319  0.00  0.00     0.219 C 
BRANCH  11  12
HETATM   12  C   UNK N   1      10.297  -3.339   0.328  0.00  0.00     0.247 C 
HETATM   13  N   UNK N   1      11.314  -4.053  -0.216  0.00  0.00    -0.358 N 
HETATM   14  H   UNK N   1      11.758  -3.705  -1.022  0.00  0.00     0.162 HD
HETATM   15  O   UNK N   1       9.705  -3.761   1.312  0.00  0.00    -0.271 OA
BRANCH  13  16
HETATM   16  C   UNK N   1      11.767  -5.302   0.341  0.00  0.00     0.132 C 
BRANCH  16  17
HETATM   17  C   UNK N   1      11.603  -6.397  -0.695  0.00  0.00     0.122 C 
BRANCH  17  18
HETATM   18  C   UNK N   1      11.986  -7.732  -0.130  0.00  0.00     0.219 C 
HETATM   19  N   UNK N   1      13.277  -8.062   0.120  0.00  0.00    -0.360 N 
HETATM   20  H   UNK N   1      13.472  -8.952   0.494  0.00  0.00     0.162 HD
HETATM   21  O   UNK N   1      11.109  -8.552   0.087  0.00  0.00    -0.274 OA
BRANCH  19  22
HETATM   22  C   UNK N   1      14.377  -7.168  -0.137  0.00  0.00     0.132 C 
BRANCH  22  23
HETATM   23  C   UNK N   1      15.676  -7.870   0.199  0.00  0.00     0.090 C 
BRANCH  23  24
HETATM   24  S   UNK N   1      17.062  -6.722  -0.017  0.00  0.00    -0.181 SA
HETATM   25  H   UNK N   1      18.328  -7.192  -0.179  0.00  0.00     0.101 HD
ENDBRANCH  23  24
ENDBRANCH  22  23
ENDBRANCH  19  22
ENDBRANCH  17  18
ENDBRANCH  16  17
ENDBRANCH  13  16
ENDBRANCH  11  12
BRANCH  11  26
HETATM   26  O   UNK N   1       8.640  -1.614   0.210  0.00  0.00    -0.385 OA
HETATM   27  H   UNK N   1       8.473  -0.732   0.576  0.00  0.00     0.210 HD
ENDBRANCH  11  26
ENDBRANCH   8  11
ENDBRANCH   7   8
ENDBRANCH   6   7
ENDBRANCH   4   6
BRANCH   4  28
HETATM   28  O   UNK N   1      14.774  -3.157   0.213  0.00  0.00    -0.307 OA
HETATM   29  H   UNK N   1      14.039  -3.680   0.570  0.00  0.00     0.222 HD
ENDBRANCH   4  28
ENDBRANCH   3   4
ENDBRANCH   2   3
BRANCH   2  30
HETATM   30  O   UNK N   1      18.653  -0.394   0.411  0.00  0.00    -0.294 OA
BRANCH  30  31
HETATM   31  C   UNK N   1      18.937  -1.685   0.857  0.00  0.00     0.215 C 
BRANCH  31  32
HETATM   32  C   UNK N   1      19.702  -2.445  -0.222  0.00  0.00     0.180 C 
HETATM   33  O   UNK N   1      20.859  -1.719  -0.544  0.00  0.00    -0.353 OA
HETATM   34  C   UNK N   1      21.760  -2.182   0.411  0.00  0.00     0.262 C 
HETATM   35  C   UNK N   1      21.643  -3.680   0.353  0.00  0.00     0.198 C 
HETATM   36  C   UNK N   1      20.142  -3.800   0.321  0.00  0.00     0.182 C 
BRANCH  34  37
HETATM   37  N   UNK N   1      23.082  -1.602   0.213  0.00  0.00    -0.297 N 
HETATM   38  C   UNK N   1      24.275  -2.177   0.023  0.00  0.00     0.142 A 
HETATM   39  C   UNK N   1      25.220  -1.221  -0.064  0.00  0.00     0.122 A 
HETATM   40  N   UNK N   1      24.569  -3.498  -0.058  0.00  0.00    -0.336 N 
HETATM   41  C   UNK N   1      26.546  -1.564  -0.237  0.00  0.00     0.131 A 
HETATM   42  N   UNK N   1      24.656  -0.006   0.059  0.00  0.00    -0.346 N 
HETATM   43  N   UNK N   1      26.857  -2.892  -0.320  0.00  0.00    -0.337 N 
HETATM   44  C   UNK N   1      25.879  -3.854  -0.234  0.00  0.00     0.183 A 
ATOM     45  HN  UNK N   1      27.829  -3.174  -0.447  1.00  0.00     0.168 HD
HETATM   46  C   UNK N   1      23.332  -0.267   0.232  0.00  0.00     0.188 A 
ATOM     47  HN  UNK N   1      25.115   0.904   0.029  1.00  0.00     0.167 HD
ATOM     48  HN  UNK N   1      23.836  -4.205   0.011  1.00  0.00     0.168 HD
BRANCH  41  49
HETATM   49  N   UNK N   1      27.553  -0.581  -0.314  0.00  0.00    -0.383 N 
HETATM   50  H   UNK N   1      28.499  -0.847  -0.368  0.00  0.00     0.157 HD
HETATM   51  H   UNK N   1      27.309   0.373  -0.314  0.00  0.00     0.157 HD
ENDBRANCH  41  49
ENDBRANCH  34  37
BRANCH  35  52
HETATM   52  O   UNK N   1      22.154  -4.276   1.504  0.00  0.00    -0.388 OA
HETATM   53  H   UNK N   1      21.972  -4.791   2.306  0.00  0.00     0.210 HD
ENDBRANCH  35  52
BRANCH  36  54
HETATM   54  O   UNK N   1      19.766  -4.819  -0.552  0.00  0.00    -0.390 OA
HETATM   55  H   UNK N   1      19.020  -4.947  -1.159  0.00  0.00     0.210 HD
ENDBRANCH  36  54
ENDBRANCH  31  32
ENDBRANCH  30  31
ENDBRANCH   2  30
BRANCH   2  56
HETATM   56  O   UNK N   1      17.406  -1.203  -2.029  0.00  0.00    -0.307 OA
HETATM   57  H   UNK N   1      17.171  -1.502  -2.921  0.00  0.00     0.222 HD
ENDBRANCH   2  56
TORSDOF 23
