REMARK  2 active torsions:
REMARK  status: ('A' for Active; 'I' for Inactive)
REMARK       I    between atoms: N_12  and  C_6 
REMARK    1  A    between atoms: C_13  and  C_10 
REMARK    2  A    between atoms: N_14  and  C_13 
ROOT
HETATM    1  C   UNK N   1      10.893  -9.966   0.000  0.00  0.00     0.137 A 
HETATM    2  C   UNK N   1      10.923  -8.611   0.000  0.00  0.00     0.086 A 
HETATM    3  N   UNK N   1       9.730 -10.662   0.000  0.00  0.00    -0.176 N 
ATOM      4  HN  UNK N   1       9.732 -11.682   0.000  1.00  0.00     0.186 HD
HETATM    5  C   UNK N   1       9.737  -7.892   0.000  0.00  0.00     0.274 A 
HETATM    6  C   UNK N   1       8.551  -9.966   0.000  0.00  0.00     0.680 A 
HETATM    7  N   UNK N   1       8.554  -8.594   0.000  0.00  0.00    -0.155 N 
HETATM    8  N   UNK N   1      12.132 -10.490  -0.000  0.00  0.00    -0.350 N 
HETATM    9  C   UNK N   1      12.980  -9.427  -0.000  0.00  0.00     0.099 A 
HETATM   10  C   UNK N   1      12.242  -8.241  -0.000  0.00  0.00    -0.006 A 
HETATM   11  O   UNK N   1       9.734  -6.674   0.000  0.00  0.00    -0.267 OA
HETATM   12  N   UNK N   1       7.326 -10.660   0.000  0.00  0.00    -0.234 N 
HETATM   13  H   UNK N   1       7.699  -8.106   0.000  0.00  0.00     0.187 HD
HETATM   14  H   UNK N   1      12.374 -11.444  -0.000  0.00  0.00     0.166 HD
HETATM   15  H   UNK N   1       6.477 -10.161   0.000  0.00  0.00     0.174 HD
HETATM   16  H   UNK N   1       7.318 -11.645   0.000  0.00  0.00     0.174 HD
ENDROOT
BRANCH  10  17
HETATM   17  C   UNK N   1      12.751  -6.833  -0.000  0.00  0.00     0.152 C 
BRANCH  17  18
HETATM   18  N   UNK N   1      14.202  -6.793  -0.000  0.00  0.00    -0.426 N 
HETATM   19  H   UNK N   1      14.736  -7.662  -0.000  0.00  0.00     0.150 HD
HETATM   20  H   UNK N   1      14.687  -5.896  -0.000  0.00  0.00     0.150 HD
ENDBRANCH  17  18
ENDBRANCH  10  17
TORSDOF 2
