REMARK  1 active torsions:
REMARK  status: ('A' for Active; 'I' for Inactive)
REMARK    1  A    between atoms: C_9  and  C_8 
ROOT
HETATM    1  C   UNK N   1       3.978   0.963   0.000  0.00  0.00     0.119 A 
HETATM    2  C   UNK N   1       2.245  -0.314  -0.000  0.00  0.00     0.180 A 
HETATM    3  C   UNK N   1       2.841   1.737  -0.000  0.00  0.00     0.059 A 
HETATM    4  N   UNK N   1       3.596  -0.326   0.000  0.00  0.00    -0.360 N 
ATOM      5  HN  UNK N   1       4.202  -1.146   0.000  1.00  0.00     0.166 HD
HETATM    6  N   UNK N   1       1.758   0.941  -0.000  0.00  0.00    -0.351 N 
HETATM    7  H   UNK N   1       0.813   1.216  -0.000  0.00  0.00     0.166 HD
ENDROOT
BRANCH   3   8
HETATM    8  C   UNK N   1       2.775   3.202  -0.000  0.00  0.00    -0.008 A 
HETATM    9  C   UNK N   1       1.526   3.837   0.000  0.00  0.00     0.014 A 
HETATM   10  C   UNK N   1       1.444   5.229   0.000  0.00  0.00     0.001 A 
HETATM   11  C   UNK N   1       2.611   5.997   0.000  0.00  0.00     0.000 A 
HETATM   12  C   UNK N   1       3.861   5.371  -0.000  0.00  0.00     0.001 A 
HETATM   13  C   UNK N   1       3.945   3.976  -0.000  0.00  0.00     0.014 A 
ENDBRANCH   3   8
TORSDOF 1
