REMARK  8 active torsions:
REMARK  status: ('A' for Active; 'I' for Inactive)
REMARK    1  A    between atoms: C_2  and  N_1 
REMARK    2  A    between atoms: C_5  and  O_13 
REMARK    3  A    between atoms: C_12  and  O_17 
REMARK    4  A    between atoms: C_14  and  C_18 
REMARK       I    between atoms: C_16  and  N_21 
REMARK    5  A    between atoms: O_17  and  P_22 
REMARK    6  A    between atoms: C_18  and  O_23 
REMARK    7  A    between atoms: P_22  and  O_24 
REMARK    8  A    between atoms: P_22  and  O_25 
ROOT
HETATM    1  C   UNK N   1      17.455 -13.103   0.514  0.00  0.00     0.262 C 
HETATM    2  C   UNK N   1      17.410 -14.252  -0.505  0.00  0.00     0.199 C 
HETATM    3  O   UNK N   1      16.242 -13.123   1.239  0.00  0.00    -0.353 OA
HETATM    4  C   UNK N   1      16.330 -15.075   0.143  0.00  0.00     0.197 C 
HETATM    5  C   UNK N   1      15.426 -13.934   0.455  0.00  0.00     0.180 C 
ENDROOT
BRANCH   1   6
HETATM    6  N   UNK N   1      17.651 -11.761  -0.046  0.00  0.00    -0.297 N 
HETATM    7  C   UNK N   1      16.710 -10.810  -0.158  0.00  0.00     0.159 A 
HETATM    8  C   UNK N   1      17.294  -9.626  -0.407  0.00  0.00     0.147 A 
HETATM    9  N   UNK N   1      15.374 -10.942   0.022  0.00  0.00    -0.174 N 
HETATM   10  C   UNK N   1      16.518  -8.475  -0.466  0.00  0.00     0.290 A 
HETATM   11  N   UNK N   1      18.629  -9.786  -0.493  0.00  0.00    -0.345 N 
HETATM   12  N   UNK N   1      15.155  -8.602  -0.296  0.00  0.00    -0.154 N 
HETATM   13  O   UNK N   1      17.022  -7.379  -0.631  0.00  0.00    -0.265 OA
HETATM   14  C   UNK N   1      14.588  -9.831  -0.064  0.00  0.00     0.680 A 
HETATM   15  H   UNK N   1      14.582  -7.802  -0.340  0.00  0.00     0.187 HD
HETATM   16  N   UNK N   1      13.195  -9.946   0.109  0.00  0.00    -0.234 N 
HETATM   17  H   UNK N   1      12.639  -9.143   0.229  0.00  0.00     0.174 HD
HETATM   18  H   UNK N   1      12.775 -10.836   0.109  0.00  0.00     0.174 HD
HETATM   19  C   UNK N   1      18.828 -11.117  -0.246  0.00  0.00     0.188 A 
ATOM     20  HN  UNK N   1      19.332  -9.076  -0.695  1.00  0.00     0.167 HD
ATOM     21  HN  UNK N   1      14.964 -11.856   0.218  1.00  0.00     0.186 HD
ENDBRANCH   1   6
BRANCH   2  22
HETATM   22  O   UNK N   1      18.616 -14.954  -0.531  0.00  0.00    -0.388 OA
HETATM   23  H   UNK N   1      18.612 -15.924  -0.549  0.00  0.00     0.210 HD
ENDBRANCH   2  22
BRANCH   4  24
HETATM   24  O   UNK N   1      15.763 -16.077  -0.653  0.00  0.00    -0.286 OA
BRANCH  24  25
HETATM   25  P   UNK N   1      15.347 -17.318   0.512  0.00  0.00     0.391 P 
HETATM   26  O   UNK N   1      14.927 -18.646  -0.168  0.00  0.00    -0.632 OA
BRANCH  25  27
HETATM   27  O   UNK N   1      13.925 -16.906  -0.396  0.00  0.00    -0.307 OA
HETATM   28  H   UNK N   1      13.727 -16.103  -0.902  0.00  0.00     0.222 HD
ENDBRANCH  25  27
BRANCH  25  29
HETATM   29  O   UNK N   1      16.776 -17.837  -0.329  0.00  0.00    -0.307 OA
HETATM   30  H   UNK N   1      16.924 -18.672  -0.798  0.00  0.00     0.222 HD
ENDBRANCH  25  29
ENDBRANCH  24  25
ENDBRANCH   4  24
BRANCH   5  31
HETATM   31  C   UNK N   1      14.129 -14.261   1.153  0.00  0.00     0.198 C 
BRANCH  31  32
HETATM   32  O   UNK N   1      13.078 -13.800   0.357  0.00  0.00    -0.398 OA
HETATM   33  H   UNK N   1      12.991 -13.008  -0.196  0.00  0.00     0.209 HD
ENDBRANCH  31  32
ENDBRANCH   5  31
TORSDOF 8
