REMARK  12 active torsions:
REMARK  status: ('A' for Active; 'I' for Inactive)
REMARK    1  A    between atoms: C_4  and  C_1 
REMARK    2  A    between atoms: O_25  and  C_1 
REMARK    3  A    between atoms: C_6  and  O_17 
REMARK    4  A    between atoms: C_7  and  O_18 
REMARK    5  A    between atoms: S_29  and  C_9 
REMARK    6  A    between atoms: C_10  and  N_16 
REMARK    7  A    between atoms: P_27  and  O_19 
REMARK    8  A    between atoms: P_27  and  O_20 
REMARK    9  A    between atoms: P_28  and  O_22 
REMARK   10  A    between atoms: P_28  and  O_23 
REMARK   11  A    between atoms: P_27  and  O_25 
REMARK   12  A    between atoms: S_29  and  P_28 
ROOT
HETATM    1  C   UNK N   1       4.620   0.901  -0.358  0.00  0.00     0.183 A 
HETATM    2  C   UNK N   1       0.564  -0.399   0.868  0.00  0.00     0.188 A 
HETATM    3  C   UNK N   1       2.616  -0.791   0.389  0.00  0.00     0.112 A 
HETATM    4  C   UNK N   1       2.388   0.521   0.218  0.00  0.00     0.141 A 
HETATM    5  C   UNK N   1       3.897  -1.299   0.218  0.00  0.00     0.112 A 
HETATM    6  N   UNK N   1       3.361   1.389  -0.154  0.00  0.00    -0.336 N 
HETATM    7  N   UNK N   1       4.887  -0.429  -0.152  0.00  0.00    -0.344 N 
ATOM      8  HN  UNK N   1       5.838  -0.775  -0.275  1.00  0.00     0.167 HD
HETATM    9  N   UNK N   1       1.485  -1.404   0.786  0.00  0.00    -0.347 N 
ATOM     10  HN  UNK N   1       1.347  -2.395   0.981  1.00  0.00     0.167 HD
HETATM   11  N   UNK N   1       1.112   0.797   0.533  0.00  0.00    -0.297 N 
HETATM   12  H   UNK N   1       3.165   2.346  -0.274  0.00  0.00     0.168 HD
ENDROOT
BRANCH  11  13
HETATM   13  C   UNK N   1       0.489   2.125   0.595  0.00  0.00     0.262 C 
HETATM   14  C   UNK N   1      -0.744   2.284  -0.315  0.00  0.00     0.198 C 
HETATM   15  C   UNK N   1      -0.612   3.750  -0.667  0.00  0.00     0.182 C 
HETATM   16  C   UNK N   1       0.895   3.784  -0.874  0.00  0.00     0.180 C 
HETATM   17  O   UNK N   1       1.438   3.116   0.232  0.00  0.00    -0.353 OA
BRANCH  14  18
HETATM   18  O   UNK N   1      -0.598   1.519  -1.480  0.00  0.00    -0.388 OA
HETATM   19  H   UNK N   1      -1.006   1.167  -2.287  0.00  0.00     0.210 HD
ENDBRANCH  14  18
BRANCH  15  20
HETATM   20  O   UNK N   1      -0.969   4.541   0.433  0.00  0.00    -0.390 OA
HETATM   21  H   UNK N   1      -0.619   5.028   1.195  0.00  0.00     0.210 HD
ENDBRANCH  15  20
BRANCH  16  22
HETATM   22  C   UNK N   1       1.515   5.162  -1.045  0.00  0.00     0.215 C 
BRANCH  22  23
HETATM   23  O   UNK N   1       1.586   5.850   0.167  0.00  0.00    -0.294 OA
BRANCH  23  24
HETATM   24  P   UNK N   1       1.844   7.500  -0.301  0.00  0.00     0.390 P 
HETATM   25  O   UNK N   1       3.170   7.182   0.442  0.00  0.00    -0.632 OA
BRANCH  24  26
HETATM   26  O   UNK N   1       1.897   8.761   0.888  0.00  0.00    -0.307 OA
HETATM   27  H   UNK N   1       2.523   9.088   1.553  0.00  0.00     0.222 HD
ENDBRANCH  24  26
BRANCH  24  28
HETATM   28  O   UNK N   1       0.517   7.364   0.810  0.00  0.00    -0.307 OA
HETATM   29  H   UNK N   1       0.081   7.968   1.431  0.00  0.00     0.222 HD
ENDBRANCH  24  28
ENDBRANCH  23  24
ENDBRANCH  22  23
ENDBRANCH  16  22
ENDBRANCH  11  13
BRANCH   5  30
HETATM   30  S   UNK N   1       4.261  -3.008   0.625  0.00  0.00     0.009 SA
BRANCH  30  31
HETATM   31  P   UNK N   1       5.700  -3.335  -0.948  0.00  0.00     0.307 P 
HETATM   32  O   UNK N   1       6.513  -3.005   0.333  0.00  0.00    -0.645 OA
BRANCH  31  33
HETATM   33  O   UNK N   1       6.753  -4.714  -0.922  0.00  0.00    -0.321 OA
HETATM   34  H   UNK N   1       6.380  -5.610  -0.908  0.00  0.00     0.221 HD
ENDBRANCH  31  33
BRANCH  31  35
HETATM   35  O   UNK N   1       4.660  -4.674  -0.580  0.00  0.00    -0.321 OA
HETATM   36  H   UNK N   1       3.721  -4.545  -0.375  0.00  0.00     0.221 HD
ENDBRANCH  31  35
ENDBRANCH  30  31
ENDBRANCH   5  30
TORSDOF 12
