REMARK  11 active torsions:
REMARK  status: ('A' for Active; 'I' for Inactive)
REMARK    1  A    between atoms: C_5  and  C_2 
REMARK    2  A    between atoms: O_13  and  C_2 
REMARK    3  A    between atoms: C_6  and  C_3 
REMARK    4  A    between atoms: O_14  and  C_3 
REMARK    5  A    between atoms: C_4  and  O_15 
REMARK    6  A    between atoms: C_7  and  O_16 
REMARK    7  A    between atoms: C_8  and  O_17 
REMARK    8  A    between atoms: C_9  and  O_18 
REMARK    9  A    between atoms: C_10  and  O_19 
REMARK   10  A    between atoms: C_11  and  O_22 
REMARK   11  A    between atoms: C_12  and  O_22 
ROOT
HETATM    1  C   UNK N   1      -1.363   7.147  -0.028  0.00  0.00     0.179 C 
HETATM    2  C   UNK N   1      -2.727   7.691   0.523  0.00  0.00     0.180 C 
HETATM    3  C   UNK N   1      -3.838   6.964  -0.233  0.00  0.00     0.183 C 
HETATM    4  C   UNK N   1      -3.745   5.441   0.074  0.00  0.00     0.204 C 
HETATM    5  C   UNK N   1      -2.298   5.042   0.467  0.00  0.00     0.292 C 
HETATM    6  O   UNK N   1      -1.386   5.748  -0.354  0.00  0.00    -0.348 OA
ENDROOT
BRANCH   5   7
HETATM    7  O   UNK N   1      -2.168   3.624   0.422  0.00  0.00    -0.348 OA
BRANCH   7   8
HETATM    8  C   UNK N   1      -0.970   3.127  -0.158  0.00  0.00     0.184 C 
HETATM    9  C   UNK N   1       0.266   3.325   0.756  0.00  0.00     0.154 C 
HETATM   10  C   UNK N   1       1.467   2.637   0.119  0.00  0.00     0.095 C 
HETATM   11  C   UNK N   1       1.156   1.167  -0.165  0.00  0.00     0.260 C 
HETATM   12  O   UNK N   1      -0.003   1.026  -0.969  0.00  0.00    -0.351 OA
HETATM   13  C   UNK N   1      -1.143   1.599  -0.347  0.00  0.00     0.179 C 
BRANCH   9  14
HETATM   14  O   UNK N   1       0.581   4.671   0.934  0.00  0.00    -0.393 OA
HETATM   15  H   UNK N   1       1.502   4.950   1.058  0.00  0.00     0.210 HD
ENDBRANCH   9  14
BRANCH  11  16
HETATM   16  O   UNK N   1       1.038   0.439   1.024  0.00  0.00    -0.371 OA
HETATM   17  H   UNK N   1       0.560   0.258   1.849  0.00  0.00     0.212 HD
ENDBRANCH  11  16
BRANCH  13  18
HETATM   18  C   UNK N   1      -2.362   1.307  -1.214  0.00  0.00     0.198 C 
BRANCH  18  19
HETATM   19  O   UNK N   1      -2.580  -0.070  -1.290  0.00  0.00    -0.398 OA
HETATM   20  H   UNK N   1      -3.484  -0.418  -1.342  0.00  0.00     0.209 HD
ENDBRANCH  18  19
ENDBRANCH  13  18
ENDBRANCH   7   8
ENDBRANCH   5   7
BRANCH   4  21
HETATM   21  O   UNK N   1      -4.591   5.091   1.130  0.00  0.00    -0.388 OA
HETATM   22  H   UNK N   1      -5.095   5.479   1.863  0.00  0.00     0.210 HD
ENDBRANCH   4  21
BRANCH   3  23
HETATM   23  O   UNK N   1      -5.104   7.464   0.085  0.00  0.00    -0.390 OA
HETATM   24  H   UNK N   1      -5.243   8.398   0.306  0.00  0.00     0.210 HD
ENDBRANCH   3  23
BRANCH   1  25
HETATM   25  C   UNK N   1      -0.986   7.888  -1.310  0.00  0.00     0.198 C 
BRANCH  25  26
HETATM   26  O   UNK N   1       0.285   7.499  -1.737  0.00  0.00    -0.398 OA
HETATM   27  H   UNK N   1       0.493   6.599  -2.034  0.00  0.00     0.209 HD
ENDBRANCH  25  26
ENDBRANCH   1  25
BRANCH   2  28
HETATM   28  O   UNK N   1      -2.816   9.080   0.378  0.00  0.00    -0.390 OA
HETATM   29  H   UNK N   1      -2.013   9.615   0.278  0.00  0.00     0.210 HD
ENDBRANCH   2  28
TORSDOF 11
