REMARK  9 active torsions:
REMARK  status: ('A' for Active; 'I' for Inactive)
REMARK    1  A    between atoms: C_1  and  N_7 
REMARK    2  A    between atoms: C_2  and  O_12 
REMARK    3  A    between atoms: C_4  and  O_8 
REMARK    4  A    between atoms: C_5  and  C_10 
REMARK    5  A    between atoms: C_6  and  O_9 
REMARK    6  A    between atoms: C_10  and  O_11 
REMARK    7  A    between atoms: O_12  and  P_15 
REMARK    8  A    between atoms: P_15  and  O_14 
REMARK    9  A    between atoms: P_15  and  O_16 
ROOT
HETATM    1  C   UNK N   1       1.136  -1.093   0.179  0.00  0.00     0.162 C 
HETATM    2  C   UNK N   1       1.038   0.419  -0.081  0.00  0.00     0.296 C 
HETATM    3  O   UNK N   1      -0.072   0.916   0.628  0.00  0.00    -0.348 OA
HETATM    4  C   UNK N   1      -0.160  -1.770  -0.276  0.00  0.00     0.176 C 
HETATM    5  C   UNK N   1      -1.220   0.457  -0.043  0.00  0.00     0.179 C 
HETATM    6  C   UNK N   1      -1.385  -1.038   0.270  0.00  0.00     0.180 C 
ENDROOT
BRANCH   2   7
HETATM    7  O   UNK N   1       2.216   1.033   0.380  0.00  0.00    -0.264 OA
BRANCH   7   8
HETATM    8  P   UNK N   1       2.125   2.737  -0.001  0.00  0.00     0.393 P 
HETATM    9  O   UNK N   1       1.631   3.454   1.283  0.00  0.00    -0.631 OA
BRANCH   8  10
HETATM   10  O   UNK N   1       3.691   3.392  -0.364  0.00  0.00    -0.307 OA
HETATM   11  H   UNK N   1       4.445   2.818  -0.566  0.00  0.00     0.222 HD
ENDBRANCH   8  10
BRANCH   8  12
HETATM   12  O   UNK N   1       0.986   3.105  -1.260  0.00  0.00    -0.307 OA
HETATM   13  H   UNK N   1       0.846   3.758  -1.963  0.00  0.00     0.222 HD
ENDBRANCH   8  12
ENDBRANCH   7   8
ENDBRANCH   2   7
BRANCH   1  14
HETATM   14  N   UNK N   1       2.264  -1.661  -0.539  0.00  0.00    -0.420 N 
HETATM   15  H   UNK N   1       2.314  -2.547  -1.044  0.00  0.00     0.150 HD
HETATM   16  H   UNK N   1       3.117  -1.102  -0.539  0.00  0.00     0.150 HD
ENDBRANCH   1  14
BRANCH   4  17
HETATM   17  O   UNK N   1      -0.175  -3.103   0.141  0.00  0.00    -0.391 OA
HETATM   18  H   UNK N   1      -0.982  -3.557   0.430  0.00  0.00     0.210 HD
ENDBRANCH   4  17
BRANCH   5  19
HETATM   19  C   UNK N   1      -2.413   1.282   0.415  0.00  0.00     0.198 C 
BRANCH  19  20
HETATM   20  O   UNK N   1      -3.518   1.037  -0.401  0.00  0.00    -0.398 OA
HETATM   21  H   UNK N   1      -4.050   1.617  -0.969  0.00  0.00     0.209 HD
ENDBRANCH  19  20
ENDBRANCH   5  19
BRANCH   6  22
HETATM   22  O   UNK N   1      -2.536  -1.554  -0.331  0.00  0.00    -0.390 OA
HETATM   23  H   UNK N   1      -3.245  -1.041  -0.749  0.00  0.00     0.210 HD
ENDBRANCH   6  22
TORSDOF 9
