REMARK  19 active torsions:
REMARK  status: ('A' for Active; 'I' for Inactive)
REMARK    1  A    between atoms: C_11  and  C_10 
REMARK    2  A    between atoms: C_12  and  C_10 
REMARK    3  A    between atoms: C_13  and  C_11 
REMARK    4  A    between atoms: C_14  and  C_12 
REMARK    5  A    between atoms: C_15  and  C_13 
REMARK    6  A    between atoms: C_26  and  C_14 
REMARK    7  A    between atoms: C_27  and  C_15 
REMARK    8  A    between atoms: C_17  and  C_16 
REMARK    9  A    between atoms: C_26  and  C_16 
REMARK   10  A    between atoms: C_33  and  C_17 
REMARK   11  A    between atoms: C_19  and  C_18 
REMARK   12  A    between atoms: C_29  and  C_18 
REMARK   13  A    between atoms: C_39  and  C_19 
REMARK   14  A    between atoms: C_27  and  C_20 
REMARK   15  A    between atoms: C_31  and  C_20 
REMARK   16  A    between atoms: O_44  and  C_28 
REMARK   17  A    between atoms: C_30  and  O_41 
REMARK   18  A    between atoms: C_32  and  O_44 
REMARK   19  A    between atoms: C_37  and  O_43 
ROOT
HETATM    1  C   UNK N   1      -0.921  -6.308   1.089  0.00  0.00     0.054 C 
ENDROOT
BRANCH   1   2
HETATM    2  C   UNK N   1      -1.579  -5.235   1.579  0.00  0.00    -0.023 C 
BRANCH   2   3
HETATM    3  C   UNK N   1      -2.896  -5.079   0.975  0.00  0.00    -0.004 C 
BRANCH   3   4
HETATM    4  C   UNK N   1      -2.923  -4.265  -0.106  0.00  0.00     0.000 C 
BRANCH   4   5
HETATM    5  C   UNK N   1      -3.911  -4.223  -1.212  0.00  0.00     0.007 C 
BRANCH   5   6
HETATM    6  C   UNK N   1      -5.129  -4.776  -1.296  0.00  0.00    -0.055 C 
HETATM    7  C   UNK N   1      -5.932  -4.520  -2.535  0.00  0.00     0.049 C 
BRANCH   6   8
HETATM    8  C   UNK N   1      -5.788  -5.479  -0.198  0.00  0.00     0.058 C 
BRANCH   8   9
HETATM    9  C   UNK N   1      -6.849  -4.905   0.249  0.00  0.00    -0.147 C 
BRANCH   9  10
HETATM   10  C   UNK N   1      -7.915  -4.226   0.556  0.00  0.00     0.098 C 
HETATM   11  C   UNK N   1      -7.759  -2.682   0.698  0.00  0.00    -0.029 C 
HETATM   12  C   UNK N   1      -6.451  -2.138   0.123  0.00  0.00     0.016 C 
HETATM   13  C   UNK N   1      -7.755  -2.341   2.176  0.00  0.00     0.016 C 
HETATM   14  C   UNK N   1      -8.880  -1.877   0.017  0.00  0.00     0.042 C 
HETATM   15  C   UNK N   1     -10.226  -2.556   0.169  0.00  0.00     0.135 C 
HETATM   16  C   UNK N   1     -10.122  -3.854  -0.605  0.00  0.00     0.071 C 
HETATM   17  C   UNK N   1      -9.239  -4.846   0.108  0.00  0.00     0.071 C 
HETATM   18  C   UNK N   1      -9.087  -6.022  -0.861  0.00  0.00     0.047 C 
BRANCH  15  19
HETATM   19  O   UNK N   1     -11.244  -1.800  -0.371  0.00  0.00    -0.316 OA
BRANCH  19  20
HETATM   20  C   UNK N   1     -12.538  -2.224  -0.347  0.00  0.00     0.255 C 
HETATM   21  C   UNK N   1     -13.589  -1.430  -1.033  0.00  0.00     0.126 C 
HETATM   22  O   UNK N   1     -12.848  -3.266   0.217  0.00  0.00    -0.266 OA
ENDBRANCH  19  20
ENDBRANCH  15  19
BRANCH  17  23
HETATM   23  O   UNK N   1      -9.905  -5.310   1.241  0.00  0.00    -0.389 OA
HETATM   24  H   UNK N   1     -10.417  -5.070   2.029  0.00  0.00     0.210 HD
ENDBRANCH  17  23
ENDBRANCH   9  10
ENDBRANCH   8   9
ENDBRANCH   6   8
ENDBRANCH   5   6
ENDBRANCH   4   5
ENDBRANCH   3   4
ENDBRANCH   2   3
ENDBRANCH   1   2
BRANCH   1  25
HETATM   25  C   UNK N   1       0.313  -5.940   0.420  0.00  0.00    -0.016 C 
BRANCH  25  26
HETATM   26  C   UNK N   1       1.472  -5.600   0.989  0.00  0.00    -0.063 C 
HETATM   27  C   UNK N   1       1.773  -5.863   2.428  0.00  0.00     0.048 C 
BRANCH  26  28
HETATM   28  C   UNK N   1       2.336  -4.711   0.186  0.00  0.00     0.043 C 
BRANCH  28  29
HETATM   29  C   UNK N   1       1.749  -3.578  -0.266  0.00  0.00     0.081 A 
HETATM   30  C   UNK N   1       2.377  -2.465  -0.977  0.00  0.00     0.055 A 
HETATM   31  C   UNK N   1       1.459  -1.491  -0.988  0.00  0.00     0.042 A 
HETATM   32  C   UNK N   1       0.271  -1.996  -0.316  0.00  0.00     0.298 A 
HETATM   33  O   UNK N   1      -0.737  -1.367  -0.033  0.00  0.00    -0.259 OA
HETATM   34  O   UNK N   1       0.471  -3.258   0.052  0.00  0.00    -0.275 OA
BRANCH  31  35
HETATM   35  C   UNK N   1       1.850  -0.111  -1.228  0.00  0.00     0.017 C 
BRANCH  35  36
HETATM   36  C   UNK N   1       1.242   0.889  -0.578  0.00  0.00     0.016 C 
BRANCH  36  37
HETATM   37  C   UNK N   1       2.058   2.112  -0.318  0.00  0.00     0.118 A 
HETATM   38  C   UNK N   1       3.359   1.928   0.542  0.00  0.00    -0.007 C 
HETATM   39  C   UNK N   1       3.811   0.482   0.719  0.00  0.00     0.018 C 
HETATM   40  C   UNK N   1       3.223   2.467   1.963  0.00  0.00     0.018 C 
HETATM   41  C   UNK N   1       4.473   2.618  -0.220  0.00  0.00     0.044 C 
HETATM   42  C   UNK N   1       4.267   4.123  -0.389  0.00  0.00     0.122 C 
HETATM   43  C   UNK N   1       2.809   4.579  -0.630  0.00  0.00     0.073 C 
HETATM   44  C   UNK N   1       1.801   3.461  -0.915  0.00  0.00     0.097 A 
HETATM   45  C   UNK N   1       0.689   3.704  -1.915  0.00  0.00     0.050 C 
HETATM   46  O   UNK N   1       1.220   3.070   0.295  0.00  0.00    -0.358 OA
BRANCH  42  47
HETATM   47  O   UNK N   1       4.770   4.772   0.737  0.00  0.00    -0.395 OA
HETATM   48  H   UNK N   1       5.336   4.695   1.520  0.00  0.00     0.210 HD
ENDBRANCH  42  47
ENDBRANCH  36  37
ENDBRANCH  35  36
ENDBRANCH  31  35
ENDBRANCH  28  29
ENDBRANCH  26  28
ENDBRANCH  25  26
ENDBRANCH   1  25
TORSDOF 19
