REMARK  11 active torsions:
REMARK  status: ('A' for Active; 'I' for Inactive)
REMARK    1  A    between atoms: C_2  and  O_1 
REMARK    2  A    between atoms: N_4  and  S_33 
REMARK    3  A    between atoms: N_5  and  C_6 
REMARK    4  A    between atoms: C_6  and  C_7 
REMARK    5  A    between atoms: C_10  and  O_11 
REMARK    6  A    between atoms: N_16  and  C_17 
REMARK    7  A    between atoms: C_17  and  C_18 
REMARK    8  A    between atoms: C_21  and  O_22 
REMARK    9  A    between atoms: C_25  and  C_26 
REMARK   10  A    between atoms: C_26  and  C_27 
REMARK   11  A    between atoms: S_33  and  C_36 
ROOT
HETATM    1  C   UNK N   1       3.848   8.158   0.739  0.00  0.00     0.172 C 
HETATM    2  C   UNK N   1       3.936   9.278  -0.096  0.00  0.00    -0.002 C 
HETATM    3  C   UNK N   1       5.078   9.464  -0.879  0.00  0.00    -0.001 C 
HETATM    4  C   UNK N   1       5.980   8.399  -1.003  0.00  0.00     0.022 C 
HETATM    5  C   UNK N   1       5.886   7.326  -0.117  0.00  0.00     0.042 C 
HETATM    6  C   UNK N   1       4.980   7.351   0.895  0.00  0.00     0.021 C 
HETATM    7  C   UNK N   1       6.193   6.001  -0.567  0.00  0.00     0.099 C 
HETATM    8  N   UNK N   1       6.405   4.904  -0.868  0.00  0.00    -0.191 NA
ENDROOT
BRANCH   1   9
HETATM    9  S   UNK N   1       2.403   7.165   0.333  0.00  0.00     0.239 S 
HETATM   10  O   UNK N   1       3.247   5.965  -0.097  0.00  0.00    -0.209 OA
HETATM   11  O   UNK N   1       2.669   7.094   1.852  0.00  0.00    -0.209 OA
BRANCH   9  12
HETATM   12  N   UNK N   1       1.189   6.159   1.064  0.00  0.00    -0.111 NA
HETATM   13  C   UNK N   1       0.205   7.054   0.594  0.00  0.00     0.166 C 
HETATM   14  C   UNK N   1      -1.064   6.642   0.985  0.00  0.00     0.157 C 
HETATM   15  C   UNK N   1      -1.430   6.030  -0.343  0.00  0.00     0.123 C 
HETATM   16  N   UNK N   1      -1.084   4.636  -0.362  0.00  0.00    -0.321 N 
HETATM   17  C   UNK N   1      -0.025   4.095   0.287  0.00  0.00     0.336 C 
HETATM   18  N   UNK N   1       1.114   4.780   0.670  0.00  0.00    -0.247 N 
HETATM   19  O   UNK N   1      -0.082   2.888   0.524  0.00  0.00    -0.246 OA
BRANCH  14  20
HETATM   20  O   UNK N   1      -1.733   7.786   1.382  0.00  0.00    -0.392 OA
HETATM   21  H   UNK N   1      -1.272   8.593   1.660  0.00  0.00     0.210 HD
ENDBRANCH  14  20
BRANCH  15  22
HETATM   22  C   UNK N   1      -1.703   6.819  -1.650  0.00  0.00     0.066 C 
BRANCH  22  23
HETATM   23  C   UNK N   1      -2.581   7.929  -1.180  0.00  0.00    -0.056 A 
HETATM   24  C   UNK N   1      -3.776   7.588  -0.520  0.00  0.00     0.007 A 
HETATM   25  C   UNK N   1      -4.390   8.498   0.337  0.00  0.00     0.001 A 
HETATM   26  C   UNK N   1      -3.817   9.756   0.540  0.00  0.00     0.000 A 
HETATM   27  C   UNK N   1      -2.660  10.123  -0.159  0.00  0.00     0.001 A 
HETATM   28  C   UNK N   1      -2.028   9.204  -1.005  0.00  0.00     0.007 A 
ENDBRANCH  22  23
ENDBRANCH  15  22
BRANCH  16  29
HETATM   29  C   UNK N   1      -2.032   3.695  -0.872  0.00  0.00     0.166 C 
BRANCH  29  30
HETATM   30  C   UNK N   1      -3.176   3.608   0.032  0.00  0.00    -0.040 C 
HETATM   31  C   UNK N   1      -4.099   2.610  -0.203  0.00  0.00     0.011 C 
HETATM   32  C   UNK N   1      -5.391   2.774   0.272  0.00  0.00     0.037 C 
HETATM   33  C   UNK N   1      -5.739   3.950   0.949  0.00  0.00     0.065 C 
HETATM   34  C   UNK N   1      -4.776   4.886   1.289  0.00  0.00     0.037 C 
HETATM   35  C   UNK N   1      -3.498   4.706   0.834  0.00  0.00     0.011 C 
BRANCH  33  36
HETATM   36  O   UNK N   1      -7.019   4.206   1.224  0.00  0.00    -0.361 OA
HETATM   37  H   UNK N   1      -7.312   5.074   1.417  0.00  0.00     0.217 HD
ENDBRANCH  33  36
ENDBRANCH  29  30
ENDBRANCH  16  29
BRANCH  18  38
HETATM   38  C   UNK N   1       2.266   3.926   0.911  0.00  0.00     0.161 C 
BRANCH  38  39
HETATM   39  C   UNK N   1       2.770   3.184  -0.351  0.00  0.00     0.050 C 
HETATM   40  C   UNK N   1       3.953   2.545  -0.018  0.00  0.00    -0.014 C 
HETATM   41  C   UNK N   1       3.943   1.171   0.203  0.00  0.00     0.033 C 
HETATM   42  C   UNK N   1       2.775   0.443  -0.025  0.00  0.00     0.065 C 
HETATM   43  C   UNK N   1       1.732   1.029  -0.733  0.00  0.00     0.033 C 
HETATM   44  C   UNK N   1       1.798   2.395  -1.002  0.00  0.00    -0.014 C 
BRANCH  42  45
HETATM   45  O   UNK N   1       2.662  -0.808   0.439  0.00  0.00    -0.361 OA
HETATM   46  H   UNK N   1       1.864  -1.177   0.763  0.00  0.00     0.217 HD
ENDBRANCH  42  45
ENDBRANCH  38  39
ENDBRANCH  18  38
ENDBRANCH   9  12
ENDBRANCH   1   9
TORSDOF 11
