REMARK  8 active torsions:
REMARK  status: ('A' for Active; 'I' for Inactive)
REMARK    1  A    between atoms: C_5  and  C_2 
REMARK    2  A    between atoms: O_25  and  C_2 
REMARK    3  A    between atoms: C_7  and  O_20 
REMARK    4  A    between atoms: C_8  and  O_21 
REMARK    5  A    between atoms: C_11  and  N_19 
REMARK    6  A    between atoms: P_27  and  O_22 
REMARK    7  A    between atoms: P_27  and  O_23 
REMARK    8  A    between atoms: P_27  and  O_25 
ROOT
HETATM    1  C   UNK N   1       0.779   3.830  -1.212  0.00  0.00     0.180 C 
HETATM    2  C   UNK N   1      -0.407   3.832  -0.244  0.00  0.00     0.182 C 
HETATM    3  C   UNK N   1      -0.579   2.334  -0.101  0.00  0.00     0.198 C 
HETATM    4  C   UNK N   1       0.889   1.973   0.087  0.00  0.00     0.262 C 
HETATM    5  O   UNK N   1       1.594   2.717  -0.885  0.00  0.00    -0.353 OA
ENDROOT
BRANCH   4   6
HETATM    6  N   UNK N   1       1.243   0.559  -0.031  0.00  0.00    -0.297 N 
HETATM    7  C   UNK N   1       0.488  -0.552  -0.218  0.00  0.00     0.188 A 
HETATM    8  N   UNK N   1       1.273  -1.673  -0.276  0.00  0.00    -0.346 N 
HETATM    9  C   UNK N   1       2.529  -1.210  -0.125  0.00  0.00     0.122 A 
ATOM     10  HN  UNK N   1       0.974  -2.640  -0.405  1.00  0.00     0.167 HD
HETATM   11  C   UNK N   1       3.754  -1.878  -0.118  0.00  0.00     0.132 A 
HETATM   12  C   UNK N   1       2.504   0.124   0.027  0.00  0.00     0.142 A 
HETATM   13  N   UNK N   1       3.794  -3.156  -0.264  0.00  0.00    -0.383 N 
HETATM   14  N   UNK N   1       4.900  -1.122   0.042  0.00  0.00    -0.332 N 
HETATM   15  H   UNK N   1       4.680  -3.681  -0.266  0.00  0.00     0.157 HD
ATOM     16  HN  UNK N   1       2.918  -3.666  -0.382  1.00  0.00     0.157 HD
HETATM   17  C   UNK N   1       6.228  -1.719   0.051  0.00  0.00     0.158 C 
HETATM   18  C   UNK N   1       4.823   0.240   0.195  0.00  0.00     0.185 A 
HETATM   19  N   UNK N   1       3.614   0.872   0.189  0.00  0.00    -0.336 N 
ATOM     20  HN  UNK N   1       3.552   1.883   0.304  1.00  0.00     0.168 HD
ENDBRANCH   4   6
BRANCH   3  21
HETATM   21  O   UNK N   1      -1.384   1.975   0.983  0.00  0.00    -0.388 OA
HETATM   22  H   UNK N   1      -1.879   2.334   1.736  0.00  0.00     0.210 HD
ENDBRANCH   3  21
BRANCH   2  23
HETATM   23  O   UNK N   1      -0.036   4.396   0.987  0.00  0.00    -0.390 OA
HETATM   24  H   UNK N   1       0.429   4.369   1.837  0.00  0.00     0.210 HD
ENDBRANCH   2  23
BRANCH   1  25
HETATM   25  C   UNK N   1       1.595   5.135  -1.204  0.00  0.00     0.215 C 
BRANCH  25  26
HETATM   26  O   UNK N   1       2.754   4.938  -0.448  0.00  0.00    -0.294 OA
BRANCH  26  27
HETATM   27  P   UNK N   1       3.126   6.375   0.459  0.00  0.00     0.390 P 
HETATM   28  O   UNK N   1       2.063   6.930   1.446  0.00  0.00    -0.632 OA
BRANCH  27  29
HETATM   29  O   UNK N   1       4.483   7.401   0.104  0.00  0.00    -0.307 OA
HETATM   30  H   UNK N   1       5.357   7.032  -0.094  0.00  0.00     0.222 HD
ENDBRANCH  27  29
BRANCH  27  31
HETATM   31  O   UNK N   1       3.967   5.482   1.658  0.00  0.00    -0.307 OA
HETATM   32  H   UNK N   1       3.767   4.818   2.336  0.00  0.00     0.222 HD
ENDBRANCH  27  31
ENDBRANCH  26  27
ENDBRANCH  25  26
ENDBRANCH   1  25
TORSDOF 8
