REMARK  2 active torsions:
REMARK  status: ('A' for Active; 'I' for Inactive)
REMARK    1  A    between atoms: Cl_3  and  O_6 
REMARK    2  A    between atoms: Cl_3  and  O_8 
ROOT
HETATM    1  O   UNK N   1       0.825  -2.164   0.000  0.00  0.00    -0.271 OA
ATOM      2  HO  UNK N   1       0.825  -3.114   0.000  1.00  0.00     0.238 HD
HETATM    3 Cl   UNK N   1       0.825  -0.462   0.000  0.00  0.00     0.131 Cl
HETATM    4  O   UNK N   1       0.825   1.060   0.000  0.00  0.00    -0.271 OA
ATOM      5  HO  UNK N   1       0.825   2.010   0.000  1.00  0.00     0.238 HD
ENDROOT
BRANCH   3   6
HETATM    6  O   UNK N   1       2.342  -0.597   0.000  0.00  0.00    -0.271 OA
ATOM      7  HO  UNK N   1       2.342   0.353   0.000  1.00  0.00     0.238 HD
ENDBRANCH   3   6
BRANCH   3   8
HETATM    8  O   UNK N   1      -0.692  -0.597   0.000  0.00  0.00    -0.271 OA
ATOM      9  HO  UNK N   1      -0.692   0.353   0.000  1.00  0.00     0.238 HD
ENDBRANCH   3   8
TORSDOF 2
