REMARK  7 active torsions:
REMARK  status: ('A' for Active; 'I' for Inactive)
REMARK    1  A    between atoms: O_1  and  C_2 
REMARK    2  A    between atoms: C_2  and  C_3 
REMARK    3  A    between atoms: C_3  and  O_4 
REMARK    4  A    between atoms: C_3  and  C_5 
REMARK    5  A    between atoms: C_5  and  O_6 
REMARK    6  A    between atoms: C_5  and  C_7 
REMARK    7  A    between atoms: C_7  and  O_8 
ROOT
HETATM    1  C   UNK N   1       1.072   0.355   0.000  0.00  0.00     0.172 C 
ENDROOT
BRANCH   1   2
HETATM    2  C   UNK N   1      -0.448   0.531  -0.000  0.00  0.00     0.198 C 
BRANCH   2   3
HETATM    3  O   UNK N   1      -0.827   1.873   0.000  0.00  0.00    -0.398 OA
HETATM    4  H   UNK N   1      -0.151   2.568   0.000  0.00  0.00     0.209 HD
ENDBRANCH   2   3
ENDBRANCH   1   2
BRANCH   1   5
HETATM    5  O   UNK N   1       1.527  -0.962  -0.000  0.00  0.00    -0.391 OA
HETATM    6  H   UNK N   1       0.891  -1.695  -0.000  0.00  0.00     0.210 HD
ENDBRANCH   1   5
BRANCH   1   7
HETATM    7  C   UNK N   1       2.117   1.486  -0.000  0.00  0.00     0.172 C 
BRANCH   7   8
HETATM    8  O   UNK N   1       1.663   2.804   0.000  0.00  0.00    -0.391 OA
HETATM    9  H   UNK N   1       2.298   3.536   0.000  0.00  0.00     0.210 HD
ENDBRANCH   7   8
BRANCH   7  10
HETATM   10  C   UNK N   1       3.637   1.310   0.000  0.00  0.00     0.198 C 
BRANCH  10  11
HETATM   11  O   UNK N   1       4.017  -0.032  -0.000  0.00  0.00    -0.398 OA
HETATM   12  H   UNK N   1       3.340  -0.727  -0.000  0.00  0.00     0.209 HD
ENDBRANCH  10  11
ENDBRANCH   7  10
ENDBRANCH   1   7
TORSDOF 7
