REMARK  6 active torsions:
REMARK  status: ('A' for Active; 'I' for Inactive)
REMARK    1  A    between atoms: C_6  and  C_1 
REMARK    2  A    between atoms: C_8  and  C_5 
REMARK    3  A    between atoms: O_16  and  C_5 
REMARK    4  A    between atoms: C_7  and  O_17 
REMARK    5  A    between atoms: C_9  and  N_15 
REMARK    6  A    between atoms: O_18  and  C_10 
ROOT
HETATM    1  C   UNK N   1      -0.860  -0.668   0.168  0.00  0.00     0.114 A 
HETATM    2  C   UNK N   1      -0.247  -1.908  -0.025  0.00  0.00     0.031 A 
HETATM    3  C   UNK N   1       1.141  -1.937  -0.219  0.00  0.00     0.155 A 
HETATM    4  C   UNK N   1       1.223   0.433  -0.068  0.00  0.00     0.330 A 
HETATM    5  N   UNK N   1       1.842  -0.774  -0.248  0.00  0.00    -0.288 N 
ATOM      6  HN  UNK N   1       2.850  -0.801  -0.406  1.00  0.00     0.172 HD
HETATM    7  N   UNK N   1      -0.139   0.489   0.158  0.00  0.00    -0.281 N 
HETATM    8  O   UNK N   1       1.892   1.455  -0.077  0.00  0.00    -0.246 OA
ENDROOT
BRANCH   7   9
HETATM    9  C   UNK N   1      -0.810   1.763   0.469  0.00  0.00     0.235 C 
HETATM   10  C   UNK N   1      -0.788   2.743  -0.697  0.00  0.00     0.088 C 
HETATM   11  C   UNK N   1      -1.877   3.651  -0.227  0.00  0.00     0.153 C 
HETATM   12  C   UNK N   1      -2.899   2.633   0.253  0.00  0.00     0.176 C 
HETATM   13  O   UNK N   1      -2.168   1.578   0.847  0.00  0.00    -0.356 OA
BRANCH  11  14
HETATM   14  O   UNK N   1      -2.363   4.500  -1.223  0.00  0.00    -0.393 OA
HETATM   15  H   UNK N   1      -2.022   5.088  -1.916  0.00  0.00     0.210 HD
ENDBRANCH  11  14
BRANCH  12  16
HETATM   16  C   UNK N   1      -3.731   2.068  -0.900  0.00  0.00     0.198 C 
BRANCH  16  17
HETATM   17  O   UNK N   1      -4.680   1.167  -0.413  0.00  0.00    -0.398 OA
HETATM   18  H   UNK N   1      -5.552   1.424  -0.075  0.00  0.00     0.209 HD
ENDBRANCH  16  17
ENDBRANCH  12  16
ENDBRANCH   7   9
BRANCH   2  19
HETATM   19  C   UNK N   1      -1.049  -3.161  -0.010  0.00  0.00     0.024 C 
HETATM   20  C   UNK N   1      -2.388  -3.151   0.074  0.00  0.00     0.057 C 
HETATM   21 Br   UNK N   1      -3.369  -4.791   0.082  0.00  0.00    -0.064 Br
ENDBRANCH   2  19
BRANCH   3  22
HETATM   22  O   UNK N   1       1.789  -3.104  -0.380  0.00  0.00    -0.345 OA
HETATM   23  H   UNK N   1       1.311  -3.902  -0.493  0.00  0.00     0.219 HD
ENDBRANCH   3  22
TORSDOF 6
