REMARK  7 active torsions:
REMARK  status: ('A' for Active; 'I' for Inactive)
REMARK    1  A    between atoms: O_1  and  N_2 
REMARK    2  A    between atoms: N_2  and  C_3 
REMARK    3  A    between atoms: N_2  and  C_9 
REMARK    4  A    between atoms: C_3  and  C_4 
REMARK    5  A    between atoms: C_4  and  P_5 
REMARK    6  A    between atoms: P_5  and  O_6 
REMARK    7  A    between atoms: P_5  and  O_7 
ROOT
HETATM    1  C   UNK N   1       3.038   2.330   0.728  0.00  0.00     0.147 C 
ENDROOT
BRANCH   1   2
HETATM    2  C   UNK N   1       4.075   2.712  -0.313  0.00  0.00     0.170 C 
BRANCH   2   3
HETATM    3  N   UNK N   1       5.347   2.114  -0.007  0.00  0.00    -0.235 N 
BRANCH   3   4
HETATM    4  O   UNK N   1       6.310   2.867   0.546  0.00  0.00    -0.285 OA
HETATM    5  H   UNK N   1       7.130   2.536   0.945  0.00  0.00     0.245 HD
ENDBRANCH   3   4
BRANCH   3   6
HETATM    6  C   UNK N   1       5.594   0.826  -0.336  0.00  0.00     0.376 C 
HETATM    7  O   UNK N   1       6.685   0.324  -0.114  0.00  0.00    -0.281 OA
ENDBRANCH   3   6
ENDBRANCH   2   3
ENDBRANCH   1   2
BRANCH   1   8
HETATM    8  P   UNK N   1       1.734   1.274  -0.063  0.00  0.00     0.237 P 
HETATM    9  O   UNK N   1       1.107   2.030  -1.265  0.00  0.00    -0.653 OA
BRANCH   8  10
HETATM   10  O   UNK N   1       0.373   0.865   0.934  0.00  0.00    -0.329 OA
HETATM   11  H   UNK N   1      -0.205   1.409   1.492  0.00  0.00     0.220 HD
ENDBRANCH   8  10
BRANCH   8  12
HETATM   12  O   UNK N   1       2.332  -0.197  -0.761  0.00  0.00    -0.329 OA
HETATM   13  H   UNK N   1       1.786  -0.898  -1.151  0.00  0.00     0.220 HD
ENDBRANCH   8  12
ENDBRANCH   1   8
TORSDOF 7
