REMARK  6 active torsions:
REMARK  status: ('A' for Active; 'I' for Inactive)
REMARK    1  A    between atoms: C_3  and  C_4 
REMARK    2  A    between atoms: C_4  and  C_5 
REMARK    3  A    between atoms: C_5  and  O_6 
REMARK    4  A    between atoms: O_6  and  P_7 
REMARK    5  A    between atoms: P_7  and  O_8 
REMARK    6  A    between atoms: P_7  and  O_9 
ROOT
HETATM    1  C   UNK N   1      -2.372   0.122   0.507  0.00  0.00     0.075 C 
ENDROOT
BRANCH   1   2
HETATM    2  C   UNK N   1      -3.641   0.845   0.187  0.00  0.00     0.008 A 
HETATM    3  C   UNK N   1      -3.842   2.226   0.082  0.00  0.00     0.018 A 
HETATM    4  C   UNK N   1      -2.760   3.234   0.241  0.00  0.00     0.069 C 
HETATM    5  N   UNK N   1      -5.148   2.599  -0.174  0.00  0.00    -0.363 N 
HETATM    6  C   UNK N   1      -5.995   1.540  -0.273  0.00  0.00     0.138 A 
ATOM      7  HN  UNK N   1      -5.446   3.569  -0.278  1.00  0.00     0.165 HD
HETATM    8  S   UNK N   1      -5.117   0.151  -0.045  0.00  0.00    -0.087 SA
ENDBRANCH   1   2
BRANCH   1   9
HETATM    9  C   UNK N   1      -1.267   0.428  -0.486  0.00  0.00     0.185 C 
BRANCH   9  10
HETATM   10  O   UNK N   1      -0.049   0.401   0.202  0.00  0.00    -0.297 OA
BRANCH  10  11
HETATM   11  P   UNK N   1       1.029   1.437  -0.686  0.00  0.00     0.390 P 
HETATM   12  O   UNK N   1       0.597   2.388   0.464  0.00  0.00    -0.632 OA
BRANCH  11  13
HETATM   13  O   UNK N   1       2.555   1.914  -0.008  0.00  0.00    -0.307 OA
HETATM   14  H   UNK N   1       3.212   1.309   0.371  0.00  0.00     0.222 HD
ENDBRANCH  11  13
BRANCH  11  15
HETATM   15  O   UNK N   1       1.878   0.080  -0.011  0.00  0.00    -0.307 OA
HETATM   16  H   UNK N   1       1.459  -0.709   0.365  0.00  0.00     0.222 HD
ENDBRANCH  11  15
ENDBRANCH  10  11
ENDBRANCH   9  10
ENDBRANCH   1   9
TORSDOF 6
