REMARK  20 active torsions:
REMARK  status: ('A' for Active; 'I' for Inactive)
REMARK    1  A    between atoms: C_6  and  C_5 
REMARK    2  A    between atoms: C_11  and  C_5 
REMARK    3  A    between atoms: C_13  and  C_6 
REMARK    4  A    between atoms: C_14  and  C_7 
REMARK    5  A    between atoms: N_20  and  C_7 
REMARK    6  A    between atoms: C_12  and  C_8 
REMARK    7  A    between atoms: S_33  and  C_8 
REMARK    8  A    between atoms: N_24  and  C_10 
REMARK    9  A    between atoms: C_16  and  C_11 
REMARK   10  A    between atoms: C_11  and  N_19 
REMARK   11  A    between atoms: C_15  and  C_12 
REMARK   12  A    between atoms: C_12  and  N_22 
REMARK   13  A    between atoms: C_13  and  O_25 
REMARK   14  A    between atoms: O_27  and  C_14 
REMARK   15  A    between atoms: O_28  and  C_15 
REMARK   16  A    between atoms: O_30  and  C_16 
REMARK   17  A    between atoms: N_24  and  C_17 
REMARK   18  A    between atoms: C_17  and  O_31 
REMARK   19  A    between atoms: S_33  and  C_17 
REMARK   20  A    between atoms: O_32  and  N_24 
ROOT
HETATM    1  C   UNK N   1       5.260   0.458  -0.664  0.00  0.00     0.167 C 
ENDROOT
BRANCH   1   2
HETATM    2  C   UNK N   1       5.842  -0.321   0.519  0.00  0.00     0.111 C 
BRANCH   2   3
HETATM    3  S   UNK N   1       6.473  -1.984   0.083  0.00  0.00    -0.112 SA
BRANCH   3   4
HETATM    4  C   UNK N   1       7.877  -1.495  -0.991  0.00  0.00     0.311 C 
BRANCH   4   5
HETATM    5  N   UNK N   1       8.896  -0.726  -0.278  0.00  0.00    -0.222 N 
BRANCH   5   6
HETATM    6  C   UNK N   1      10.172  -1.275   0.075  0.00  0.00     0.060 A 
HETATM    7  C   UNK N   1      11.272  -0.423   0.267  0.00  0.00     0.033 A 
HETATM    8  C   UNK N   1      12.538  -0.948   0.548  0.00  0.00     0.020 A 
HETATM    9  C   UNK N   1      12.711  -2.330   0.662  0.00  0.00     0.006 A 
HETATM   10  C   UNK N   1      11.619  -3.185   0.511  0.00  0.00     0.020 A 
HETATM   11  I   UNK N   1      14.621  -3.132   1.025  0.00  0.00    -0.045 I 
HETATM   12  C   UNK N   1      10.359  -2.662   0.218  0.00  0.00     0.033 A 
ENDBRANCH   5   6
BRANCH   5  13
HETATM   13  O   UNK N   1       8.748   0.610  -0.236  0.00  0.00    -0.284 OA
HETATM   14  H   UNK N   1       9.529   1.184  -0.206  0.00  0.00     0.245 HD
ENDBRANCH   5  13
ENDBRANCH   4   5
BRANCH   4  15
HETATM   15  O   UNK N   1       8.406  -2.647  -1.575  0.00  0.00    -0.366 OA
HETATM   16  H   UNK N   1       7.897  -3.366  -1.981  0.00  0.00     0.213 HD
ENDBRANCH   4  15
ENDBRANCH   3   4
ENDBRANCH   2   3
ENDBRANCH   1   2
BRANCH   1  17
HETATM   17  C   UNK N   1       4.860   1.853  -0.244  0.00  0.00     0.136 C 
HETATM   18  N   UNK N   1       3.995   2.036   0.694  0.00  0.00    -0.363 N 
ATOM     19  HN  UNK N   1       3.578   1.220   1.141  1.00  0.00     0.161 HD
BRANCH  18  20
HETATM   20  C   UNK N   1       3.593   3.350   1.137  0.00  0.00     0.231 C 
BRANCH  20  21
HETATM   21  C   UNK N   1       2.656   3.969   0.152  0.00  0.00     0.158 C 
HETATM   22  O   UNK N   1       1.585   3.439  -0.093  0.00  0.00    -0.649 OA
BRANCH  21  23
HETATM   23  O   UNK N   1       2.996   5.115  -0.466  0.00  0.00    -0.775 OA
HETATM   24  H   UNK N   1       3.805   5.309  -0.897  0.00  0.00     0.167 HD
ENDBRANCH  21  23
ENDBRANCH  20  21
ENDBRANCH  18  20
BRANCH  17  25
HETATM   25  O   UNK N   1       5.455   2.911  -0.836  0.00  0.00    -0.348 OA
HETATM   26  H   UNK N   1       6.298   2.921  -1.246  0.00  0.00     0.219 HD
ENDBRANCH  17  25
ENDBRANCH   1  17
BRANCH   1  27
HETATM   27  N   UNK N   1       4.223  -0.270  -1.390  0.00  0.00    -0.362 N 
HETATM   28  C   UNK N   1       3.030  -0.603  -1.011  0.00  0.00     0.111 C 
ATOM     29  HN  UNK N   1       4.475  -0.560  -2.334  1.00  0.00     0.162 HD
BRANCH  28  30
HETATM   30  C   UNK N   1       2.470  -0.225   0.330  0.00  0.00     0.086 C 
BRANCH  30  31
HETATM   31  C   UNK N   1       1.738  -1.326   1.107  0.00  0.00     0.043 C 
BRANCH  31  32
HETATM   32  C   UNK N   1       0.311  -1.674   0.630  0.00  0.00     0.173 C 
BRANCH  32  33
HETATM   33  C   UNK N   1      -0.576  -0.491   0.300  0.00  0.00     0.163 C 
HETATM   34  O   UNK N   1      -1.726  -0.686  -0.061  0.00  0.00    -0.648 OA
BRANCH  33  35
HETATM   35  O   UNK N   1      -0.125   0.774   0.403  0.00  0.00    -0.775 OA
HETATM   36  H   UNK N   1       0.794   0.943   0.475  0.00  0.00     0.167 HD
ENDBRANCH  33  35
ENDBRANCH  32  33
BRANCH  32  37
HETATM   37  N   UNK N   1       0.374  -2.572  -0.509  0.00  0.00    -0.418 N 
HETATM   38  H   UNK N   1      -0.151  -2.925  -1.310  0.00  0.00     0.150 HD
HETATM   39  H   UNK N   1       1.290  -3.019  -0.509  0.00  0.00     0.150 HD
ENDBRANCH  32  37
ENDBRANCH  31  32
ENDBRANCH  30  31
ENDBRANCH  28  30
BRANCH  28  40
HETATM   40  O   UNK N   1       2.237  -1.234  -1.894  0.00  0.00    -0.350 OA
HETATM   41  H   UNK N   1       1.579  -0.976  -2.509  0.00  0.00     0.219 HD
ENDBRANCH  28  40
ENDBRANCH   1  27
TORSDOF 20
