REMARK  12 active torsions:
REMARK  status: ('A' for Active; 'I' for Inactive)
REMARK    1  A    between atoms: P_1  and  O_2 
REMARK    2  A    between atoms: P_1  and  O_3 
REMARK    3  A    between atoms: P_1  and  O_4 
REMARK    4  A    between atoms: C_6  and  O_2 
REMARK    5  A    between atoms: C_7  and  O_10 
REMARK    6  A    between atoms: C_8  and  O_12 
REMARK    7  A    between atoms: C_9  and  O_14 
REMARK    8  A    between atoms: C_11  and  O_15 
REMARK    9  A    between atoms: C_13  and  O_16 
REMARK   10  A    between atoms: O_16  and  P_17 
REMARK   11  A    between atoms: P_17  and  O_18 
REMARK   12  A    between atoms: P_17  and  O_19 
ROOT
HETATM    1  C   UNK N   1      -1.324   0.651   0.054  0.00  0.00     0.196 C 
HETATM    2  C   UNK N   1      -0.073   1.458  -0.302  0.00  0.00     0.181 C 
HETATM    3  C   UNK N   1      -1.144  -0.815  -0.357  0.00  0.00     0.181 C 
HETATM    4  C   UNK N   1       1.170   0.856   0.359  0.00  0.00     0.181 C 
HETATM    5  C   UNK N   1       0.092  -1.415   0.312  0.00  0.00     0.181 C 
HETATM    6  C   UNK N   1       1.343  -0.611  -0.045  0.00  0.00     0.196 C 
ENDROOT
BRANCH   1   7
HETATM    7  O   UNK N   1      -2.437   1.196  -0.607  0.00  0.00    -0.286 OA
BRANCH   7   8
HETATM    8  P   UNK N   1      -3.664   1.391   0.614  0.00  0.00     0.391 P 
HETATM    9  O   UNK N   1      -4.329   0.388  -0.369  0.00  0.00    -0.632 OA
BRANCH   8  10
HETATM   10  O   UNK N   1      -5.178   2.148   0.230  0.00  0.00    -0.307 OA
HETATM   11  H   UNK N   1      -5.235   3.092   0.016  0.00  0.00     0.222 HD
ENDBRANCH   8  10
BRANCH   8  12
HETATM   12  O   UNK N   1      -3.404   2.910  -0.186  0.00  0.00    -0.307 OA
HETATM   13  H   UNK N   1      -2.597   3.208  -0.633  0.00  0.00     0.222 HD
ENDBRANCH   8  12
ENDBRANCH   7   8
ENDBRANCH   1   7
BRANCH   2  14
HETATM   14  O   UNK N   1      -0.228   2.780   0.118  0.00  0.00    -0.390 OA
HETATM   15  H   UNK N   1       0.514   3.333   0.409  0.00  0.00     0.210 HD
ENDBRANCH   2  14
BRANCH   3  16
HETATM   16  O   UNK N   1      -2.269  -1.553   0.013  0.00  0.00    -0.390 OA
HETATM   17  H   UNK N   1      -3.105  -1.133   0.270  0.00  0.00     0.210 HD
ENDBRANCH   3  16
BRANCH   4  18
HETATM   18  O   UNK N   1       2.296   1.586  -0.024  0.00  0.00    -0.390 OA
HETATM   19  H   UNK N   1       3.127   1.162  -0.290  0.00  0.00     0.210 HD
ENDBRANCH   4  18
BRANCH   5  20
HETATM   20  O   UNK N   1       0.247  -2.739  -0.102  0.00  0.00    -0.390 OA
HETATM   21  H   UNK N   1      -0.496  -3.292  -0.391  0.00  0.00     0.210 HD
ENDBRANCH   5  20
BRANCH   6  22
HETATM   22  O   UNK N   1       2.454  -1.156   0.617  0.00  0.00    -0.286 OA
BRANCH  22  23
HETATM   23  P   UNK N   1       3.575  -1.603  -0.638  0.00  0.00     0.391 P 
HETATM   24  O   UNK N   1       3.378  -2.955   0.099  0.00  0.00    -0.632 OA
BRANCH  23  25
HETATM   25  O   UNK N   1       5.206  -2.055  -0.255  0.00  0.00    -0.307 OA
HETATM   26  H   UNK N   1       5.443  -2.971  -0.041  0.00  0.00     0.222 HD
ENDBRANCH  23  25
BRANCH  23  27
HETATM   27  O   UNK N   1       4.315  -0.465   0.445  0.00  0.00    -0.307 OA
HETATM   28  H   UNK N   1       5.072  -0.505   1.049  0.00  0.00     0.222 HD
ENDBRANCH  23  27
ENDBRANCH  22  23
ENDBRANCH   6  22
TORSDOF 12
