REMARK  2 active torsions:
REMARK  status: ('A' for Active; 'I' for Inactive)
REMARK    1  A    between atoms: Cu_5  and  Cu_1 
REMARK    2  A    between atoms: S_2  and  Cu_5 
ROOT
HETATM    1 Cu   UNK N   1       1.693  -0.101   0.000  0.00  0.00     0.000 Cu
HETATM    2  S   UNK N   1      -0.532  -0.348   0.000  0.00  0.00     0.000 SA
HETATM    3 Cu   UNK N   1      -2.699  -0.456   0.000  0.00  0.00     0.000 Cu
HETATM    4 Cu   UNK N   1      -0.251  -2.057   0.000  0.00  0.00     0.000 Cu
HETATM    5 Cu   UNK N   1      -0.642   1.424   0.000  0.00  0.00     0.000 Cu
ENDROOT
TORSDOF 2
