REMARK  3 active torsions:
REMARK  status: ('A' for Active; 'I' for Inactive)
REMARK    1  A    between atoms: C_6  and  C_7 
REMARK    2  A    between atoms: C_7  and  C_8 
REMARK    3  A    between atoms: C_10  and  O_11 
ROOT
HETATM    1  C   UNK N   1       3.568   1.358   0.000  0.00  0.00     0.051 C 
HETATM    2  C   UNK N   1       2.248   0.666   0.000  0.00  0.00    -0.028 A 
HETATM    3  C   UNK N   1       2.211  -0.728  -0.000  0.00  0.00     0.009 A 
HETATM    4  C   UNK N   1       0.989  -1.398  -0.000  0.00  0.00     0.001 A 
HETATM    5  C   UNK N   1      -0.203  -0.676  -0.000  0.00  0.00     0.010 A 
HETATM    6  C   UNK N   1      -0.195   0.723  -0.000  0.00  0.00    -0.021 A 
HETATM    7  C   UNK N   1       1.053   1.405   0.000  0.00  0.00     0.078 A 
ENDROOT
BRANCH   6   8
HETATM    8  C   UNK N   1      -1.545   1.398   0.000  0.00  0.00     0.067 C 
BRANCH   8   9
HETATM    9  C   UNK N   1      -1.539   2.889  -0.000  0.00  0.00    -0.032 C 
HETATM   10  C   UNK N   1      -2.683   3.560   0.000  0.00  0.00     0.007 C 
ENDBRANCH   8   9
ENDBRANCH   6   8
BRANCH   7  11
HETATM   11  O   UNK N   1       1.117   2.750   0.000  0.00  0.00    -0.360 OA
HETATM   12  H   UNK N   1       1.950   3.179   0.000  0.00  0.00     0.217 HD
ENDBRANCH   7  11
TORSDOF 3
