REMARK WARNING: 32 MAX_TORS EXCEEDED!!!
REMARK  35 active torsions:
REMARK  status: ('A' for Active; 'I' for Inactive)
REMARK    1  A    between atoms: C_4  and  C_3 
REMARK    2  A    between atoms: C_8  and  C_3 
REMARK    3  A    between atoms: C_16  and  C_4 
REMARK    4  A    between atoms: C_6  and  C_5 
REMARK    5  A    between atoms: C_15  and  C_5 
REMARK    6  A    between atoms: N_29  and  C_6 
REMARK    7  A    between atoms: C_9  and  C_7 
REMARK    8  A    between atoms: N_27  and  C_7 
REMARK    9  A    between atoms: N_38  and  C_8 
REMARK   10  A    between atoms: S_61  and  C_9 
REMARK   11  A    between atoms: C_14  and  C_10 
REMARK   12  A    between atoms: O_53  and  C_10 
REMARK   13  A    between atoms: C_25  and  C_11 
REMARK   14  A    between atoms: O_54  and  C_11 
REMARK   15  A    between atoms: N_27  and  C_15 
REMARK   16  A    between atoms: O_39  and  C_15 
REMARK   17  A    between atoms: S_61  and  C_16 
REMARK   18  A    between atoms: C_18  and  O_41 
REMARK   19  A    between atoms: C_19  and  O_56 
REMARK   20  A    between atoms: C_23  and  C_20 
REMARK   21  A    between atoms: C_25  and  C_20 
REMARK   22  A    between atoms: C_20  and  O_42 
REMARK   23  A    between atoms: N_26  and  C_21 
REMARK   24  A    between atoms: N_29  and  C_23 
REMARK   25  A    between atoms: O_43  and  C_23 
REMARK   26  A    between atoms: C_24  and  N_37 
REMARK   27  A    between atoms: P_58  and  O_46 
REMARK   28  A    between atoms: P_58  and  O_47 
REMARK   29  A    between atoms: P_59  and  O_49 
REMARK   30  A    between atoms: P_60  and  O_51 
REMARK   31  A    between atoms: P_59  and  O_53 
REMARK   32  A    between atoms: P_60  and  O_54 
REMARK   33  A    between atoms: P_58  and  O_56 
REMARK   34  A    between atoms: P_59  and  O_57 
REMARK   35  A    between atoms: P_60  and  O_57 
ROOT
HETATM    1  O   UNK N   1      -4.355  17.772   1.650  0.00  0.00    -0.195 OA
ENDROOT
BRANCH   1   2
HETATM    2  P   UNK N   1      -5.430  16.805   0.598  0.00  0.00     0.401 P 
HETATM    3  O   UNK N   1      -4.543  17.526  -0.452  0.00  0.00    -0.631 OA
BRANCH   2   4
HETATM    4  O   UNK N   1      -4.567  15.401   1.163  0.00  0.00    -0.307 OA
HETATM    5  H   UNK N   1      -5.003  14.594   1.478  0.00  0.00     0.222 HD
ENDBRANCH   2   4
BRANCH   2   6
HETATM    6  O   UNK N   1      -5.382  15.781  -0.818  0.00  0.00    -0.294 OA
BRANCH   6   7
HETATM    7  C   UNK N   1      -6.424  16.198  -1.678  0.00  0.00     0.215 C 
BRANCH   7   8
HETATM    8  C   UNK N   1      -7.777  15.592  -1.323  0.00  0.00     0.180 C 
HETATM    9  C   UNK N   1      -8.508  16.288  -0.157  0.00  0.00     0.197 C 
HETATM   10  C   UNK N   1      -9.480  15.196   0.137  0.00  0.00     0.199 C 
HETATM   11  C   UNK N   1      -8.470  14.038   0.151  0.00  0.00     0.262 C 
HETATM   12  O   UNK N   1      -7.656  14.216  -0.992  0.00  0.00    -0.353 OA
BRANCH   9  13
HETATM   13  O   UNK N   1      -9.114  17.521  -0.497  0.00  0.00    -0.286 OA
BRANCH  13  14
HETATM   14  P   UNK N   1      -8.175  18.852   0.182  0.00  0.00     0.391 P 
HETATM   15  O   UNK N   1      -9.124  20.073   0.279  0.00  0.00    -0.632 OA
BRANCH  14  16
HETATM   16  O   UNK N   1      -7.637  18.566   1.813  0.00  0.00    -0.307 OA
HETATM   17  H   UNK N   1      -7.626  18.227   2.721  0.00  0.00     0.222 HD
ENDBRANCH  14  16
BRANCH  14  18
HETATM   18  O   UNK N   1      -6.864  19.346  -0.846  0.00  0.00    -0.307 OA
HETATM   19  H   UNK N   1      -6.259  18.850  -1.420  0.00  0.00     0.222 HD
ENDBRANCH  14  18
ENDBRANCH  13  14
ENDBRANCH   9  13
BRANCH  10  20
HETATM   20  O   UNK N   1     -10.127  15.374   1.363  0.00  0.00    -0.388 OA
HETATM   21  H   UNK N   1     -10.244  15.824   2.214  0.00  0.00     0.210 HD
ENDBRANCH  10  20
BRANCH  11  22
HETATM   22  N   UNK N   1      -9.048  12.694   0.196  0.00  0.00    -0.297 N 
HETATM   23  C   UNK N   1      -8.318  11.548   0.249  0.00  0.00     0.188 A 
HETATM   24  N   UNK N   1      -9.118  10.452   0.363  0.00  0.00    -0.346 N 
HETATM   25  C   UNK N   1     -10.366  10.953   0.381  0.00  0.00     0.122 A 
ATOM     26  HN  UNK N   1      -8.835   9.474   0.421  1.00  0.00     0.167 HD
HETATM   27  C   UNK N   1     -11.580  10.302   0.516  0.00  0.00     0.131 A 
HETATM   28  C   UNK N   1     -10.325  12.294   0.270  0.00  0.00     0.142 A 
HETATM   29  N   UNK N   1     -12.716  11.061   0.518  0.00  0.00    -0.337 N 
HETATM   30  C   UNK N   1     -12.654  12.427   0.393  0.00  0.00     0.183 A 
ATOM     31  HN  UNK N   1     -13.624  10.606   0.615  1.00  0.00     0.168 HD
HETATM   32  N   UNK N   1     -11.445  13.056   0.275  0.00  0.00    -0.336 N 
ATOM     33  HN  UNK N   1     -11.389  14.071   0.193  1.00  0.00     0.168 HD
BRANCH  27  34
HETATM   34  N   UNK N   1     -11.648   8.904   0.668  0.00  0.00    -0.383 N 
HETATM   35  H   UNK N   1     -12.518   8.456   0.775  0.00  0.00     0.157 HD
HETATM   36  H   UNK N   1     -10.820   8.371   0.668  0.00  0.00     0.157 HD
ENDBRANCH  27  34
ENDBRANCH  11  22
ENDBRANCH   7   8
ENDBRANCH   6   7
ENDBRANCH   2   6
ENDBRANCH   1   2
BRANCH   1  37
HETATM   37  P   UNK N   1      -2.664  17.314   1.563  0.00  0.00     0.401 P 
HETATM   38  O   UNK N   1      -1.644  18.126   2.402  0.00  0.00    -0.631 OA
BRANCH  37  39
HETATM   39  O   UNK N   1      -2.542  18.706   0.538  0.00  0.00    -0.307 OA
HETATM   40  H   UNK N   1      -1.833  19.037  -0.036  0.00  0.00     0.222 HD
ENDBRANCH  37  39
BRANCH  37  41
HETATM   41  O   UNK N   1      -2.144  16.563   0.111  0.00  0.00    -0.296 OA
BRANCH  41  42
HETATM   42  C   UNK N   1      -1.726  15.287   0.457  0.00  0.00     0.192 C 
BRANCH  42  43
HETATM   43  C   UNK N   1      -0.977  14.718  -0.734  0.00  0.00     0.008 C 
HETATM   44  C   UNK N   1      -1.992  14.355  -1.810  0.00  0.00     0.020 C 
HETATM   45  C   UNK N   1      -0.055  15.790  -1.304  0.00  0.00     0.020 C 
BRANCH  43  46
HETATM   46  C   UNK N   1      -0.152  13.480  -0.353  0.00  0.00     0.202 C 
BRANCH  46  47
HETATM   47  C   UNK N   1       0.844  13.708   0.779  0.00  0.00     0.141 C 
BRANCH  47  48
HETATM   48  N   UNK N   1       1.970  13.085   0.816  0.00  0.00    -0.372 N 
ATOM     49  HN  UNK N   1       2.559  13.207   1.640  1.00  0.00     0.161 HD
BRANCH  48  50
HETATM   50  C   UNK N   1       2.448  12.223  -0.242  0.00  0.00     0.129 C 
BRANCH  50  51
HETATM   51  C   UNK N   1       3.052  13.035  -1.408  0.00  0.00     0.103 C 
BRANCH  51  52
HETATM   52  C   UNK N   1       3.253  14.510  -1.124  0.00  0.00     0.112 C 
BRANCH  52  53
HETATM   53  N   UNK N   1       3.970  14.921  -0.136  0.00  0.00    -0.374 N 
ATOM     54  HN  UNK N   1       4.058  15.926   0.016  1.00  0.00     0.161 HD
BRANCH  53  55
HETATM   55  C   UNK N   1       4.655  14.023   0.767  0.00  0.00     0.132 C 
BRANCH  55  56
HETATM   56  C   UNK N   1       5.585  14.780   1.701  0.00  0.00     0.102 C 
BRANCH  56  57
HETATM   57  S   UNK N   1       6.305  16.248   0.886  0.00  0.00    -0.091 SA
BRANCH  57  58
HETATM   58  C   UNK N   1       7.259  15.368  -0.377  0.00  0.00     0.186 C 
HETATM   59  O   UNK N   1       6.980  14.227  -0.708  0.00  0.00    -0.286 OA
BRANCH  58  60
HETATM   60  C   UNK N   1       8.413  16.052  -1.027  0.00  0.00     0.092 C 
BRANCH  60  61
HETATM   61  C   UNK N   1       9.374  16.641   0.003  0.00  0.00     0.034 C 
BRANCH  61  62
HETATM   62  C   UNK N   1       9.753  15.644   1.095  0.00  0.00     0.202 C 
BRANCH  62  63
HETATM   63  N   UNK N   1      10.580  14.594   0.564  0.00  0.00    -0.156 N 
HETATM   64  O   UNK N   1      11.672  14.838   0.162  0.00  0.00    -0.537 OA
HETATM   65  O   UNK N   1      10.196  13.461   0.601  0.00  0.00    -0.537 OA
ENDBRANCH  62  63
ENDBRANCH  61  62
ENDBRANCH  60  61
ENDBRANCH  58  60
ENDBRANCH  57  58
ENDBRANCH  56  57
ENDBRANCH  55  56
ENDBRANCH  53  55
ENDBRANCH  52  53
BRANCH  52  66
HETATM   66  O   UNK N   1       2.671  15.416  -1.929  0.00  0.00    -0.350 OA
HETATM   67  H   UNK N   1       3.015  16.084  -2.489  0.00  0.00     0.219 HD
ENDBRANCH  52  66
ENDBRANCH  51  52
ENDBRANCH  50  51
ENDBRANCH  48  50
ENDBRANCH  47  48
BRANCH  47  68
HETATM   68  O   UNK N   1       0.537  14.536   1.797  0.00  0.00    -0.348 OA
HETATM   69  H   UNK N   1       0.930  15.009   2.505  0.00  0.00     0.219 HD
ENDBRANCH  47  68
ENDBRANCH  46  47
BRANCH  46  70
HETATM   70  O   UNK N   1      -0.983  12.419   0.010  0.00  0.00    -0.387 OA
HETATM   71  H   UNK N   1      -1.911  12.550   0.262  0.00  0.00     0.210 HD
ENDBRANCH  46  70
ENDBRANCH  43  46
ENDBRANCH  42  43
ENDBRANCH  41  42
ENDBRANCH  37  41
ENDBRANCH   1  37
TORSDOF 35
