REMARK  10 active torsions:
REMARK  status: ('A' for Active; 'I' for Inactive)
REMARK    1  A    between atoms: C_5  and  N_8 
REMARK    2  A    between atoms: C_5  and  C_6 
REMARK    3  A    between atoms: C_5  and  C_7 
REMARK    4  A    between atoms: C_6  and  C_13 
REMARK       I    between atoms: C_7  and  N_14 
REMARK    5  A    between atoms: C_13  and  C_11 
REMARK    6  A    between atoms: C_16  and  C_17 
REMARK    7  A    between atoms: C_17  and  C_18 
REMARK    8  A    between atoms: C_18  and  C_21 
REMARK    9  A    between atoms: C_18  and  N_19 
REMARK   10  A    between atoms: C_21  and  O_20 
ROOT
HETATM    1  N   UNK N   1       0.080  -0.469   0.401  0.00  0.00    -0.348 N 
ATOM      2  HN  UNK N   1      -0.149   0.399   0.884  1.00  0.00     0.167 HD
HETATM    3  C   UNK N   1       1.165  -2.116  -0.625  0.00  0.00     0.114 A 
HETATM    4  C   UNK N   1      -0.764  -1.450   0.032  0.00  0.00     0.081 A 
HETATM    5  N   UNK N   1      -0.135  -2.467  -0.595  0.00  0.00    -0.354 N 
HETATM    6  C   UNK N   1       1.286  -0.884  -0.006  0.00  0.00     0.028 A 
HETATM    7  H   UNK N   1      -0.540  -3.290  -0.953  0.00  0.00     0.166 HD
ENDROOT
BRANCH   4   8
HETATM    8  C   UNK N   1      -2.236  -1.369   0.222  0.00  0.00     0.079 C 
BRANCH   8   9
HETATM    9  C   UNK N   1      -2.744  -0.280  -0.706  0.00  0.00     0.051 C 
BRANCH   9  10
HETATM   10  C   UNK N   1      -4.072   0.355  -0.285  0.00  0.00     0.280 C 
BRANCH  10  11
HETATM   11  N   UNK N   1      -4.112   1.813  -0.023  0.00  0.00    -0.066 N 
HETATM   12  C   UNK N   1      -3.201   2.527  -0.906  0.00  0.00     0.272 C 
HETATM   13  C   UNK N   1      -5.437   2.377  -0.240  0.00  0.00     0.272 C 
HETATM   14  C   UNK N   1      -3.720   2.085   1.350  0.00  0.00     0.272 C 
ENDBRANCH  10  11
BRANCH  10  15
HETATM   15  C   UNK N   1      -5.287  -0.503  -0.035  0.00  0.00     0.246 C 
HETATM   16  O   UNK N   1      -5.280  -1.341   0.853  0.00  0.00    -0.271 OA
HETATM   17  N   UNK N   1      -6.373  -0.372  -0.821  0.00  0.00    -0.368 N 
HETATM   18  H   UNK N   1      -6.687   0.364  -1.395  0.00  0.00     0.159 HD
HETATM   19  H   UNK N   1      -6.965  -1.159  -0.821  0.00  0.00     0.159 HD
ENDBRANCH  10  15
ENDBRANCH   9  10
ENDBRANCH   8   9
ENDBRANCH   4   8
BRANCH   6  20
HETATM   20  C   UNK N   1       2.530  -0.071   0.196  0.00  0.00     0.094 C 
BRANCH  20  21
HETATM   21  C   UNK N   1       3.774  -0.611  -0.504  0.00  0.00     0.178 C 
BRANCH  21  22
HETATM   22  C   UNK N   1       4.905   0.361  -0.322  0.00  0.00     0.163 C 
HETATM   23  O   UNK N   1       4.799   1.504  -0.741  0.00  0.00    -0.648 OA
BRANCH  22  24
HETATM   24  O   UNK N   1       6.041  -0.016   0.298  0.00  0.00    -0.775 OA
HETATM   25  H   UNK N   1       6.209  -0.830   0.729  0.00  0.00     0.167 HD
ENDBRANCH  22  24
ENDBRANCH  21  22
BRANCH  21  26
HETATM   26  N   UNK N   1       4.132  -1.914   0.037  0.00  0.00    -0.417 N 
HETATM   27  H   UNK N   1       3.466  -2.587   0.416  0.00  0.00     0.150 HD
HETATM   28  H   UNK N   1       5.119  -2.171   0.037  0.00  0.00     0.150 HD
ENDBRANCH  21  26
ENDBRANCH  20  21
ENDBRANCH   6  20
TORSDOF 10
