REMARK  2 active torsions:
REMARK  status: ('A' for Active; 'I' for Inactive)
REMARK    1  A    between atoms: C_5  and  S_8 
REMARK    2  A    between atoms: S_8  and  O_9 
ROOT
HETATM    1  C   UNK N   1       0.515  -3.125  -0.416  0.00  0.00     0.048 C 
HETATM    2  C   UNK N   1       0.576  -1.651  -0.241  0.00  0.00    -0.062 A 
HETATM    3  C   UNK N   1      -0.583  -0.881  -0.379  0.00  0.00     0.008 A 
HETATM    4  C   UNK N   1      -0.530   0.504  -0.194  0.00  0.00     0.026 A 
HETATM    5  C   UNK N   1       0.684   1.122   0.127  0.00  0.00     0.072 A 
HETATM    6  C   UNK N   1       1.845   0.352   0.257  0.00  0.00     0.026 A 
HETATM    7  C   UNK N   1       1.791  -1.033   0.072  0.00  0.00     0.008 A 
ENDROOT
BRANCH   5   8
HETATM    8  S   UNK N   1       0.734   2.885   0.423  0.00  0.00     0.129 S 
HETATM    9  O   UNK N   1       2.132   3.349   0.860  0.00  0.00    -0.598 OA
HETATM   10  O   UNK N   1      -0.101   3.264   1.656  0.00  0.00    -0.598 OA
BRANCH   8  11
HETATM   11  O   UNK N   1       0.257   3.979  -0.810  0.00  0.00    -0.292 OA
HETATM   12  H   UNK N   1       0.658   4.522  -1.507  0.00  0.00     0.232 HD
ENDBRANCH   8  11
ENDBRANCH   5   8
TORSDOF 2
