REMARK  1 active torsions:
REMARK  status: ('A' for Active; 'I' for Inactive)
REMARK    1  A    between atoms: O_1  and  C_2 
ROOT
HETATM    1  C   UNK N   1       0.703  -1.061   0.000  0.00  0.00     0.065 A 
HETATM    2  C   UNK N   1      -0.513  -0.371  -0.000  0.00  0.00     0.038 A 
HETATM    3  C   UNK N   1      -0.523   1.027  -0.000  0.00  0.00     0.021 A 
HETATM    4  C   UNK N   1       0.684   1.733   0.000  0.00  0.00     0.006 A 
HETATM    5  I   UNK N   1       0.669   3.832  -0.000  0.00  0.00    -0.045 I 
HETATM    6  C   UNK N   1       1.900   1.043   0.000  0.00  0.00     0.021 A 
HETATM    7  C   UNK N   1       1.909  -0.354   0.000  0.00  0.00     0.038 A 
ENDROOT
BRANCH   1   8
HETATM    8  O   UNK N   1       0.712  -2.403   0.000  0.00  0.00    -0.361 OA
HETATM    9  H   UNK N   1      -0.097  -2.877   0.000  0.00  0.00     0.217 HD
ENDBRANCH   1   8
TORSDOF 1
