REMARK  6 active torsions:
REMARK  status: ('A' for Active; 'I' for Inactive)
REMARK    1  A    between atoms: C_3  and  C_2 
REMARK    2  A    between atoms: O_8  and  C_2 
REMARK    3  A    between atoms: C_4  and  O_9 
REMARK    4  A    between atoms: C_5  and  O_10 
REMARK    5  A    between atoms: C_6  and  O_11 
REMARK    6  A    between atoms: C_7  and  O_12 
ROOT
HETATM    1  C   UNK N   1       1.960  -0.340   0.249  0.00  0.00     0.015 C 
HETATM    2  C   UNK N   1       2.033   0.982   0.016  0.00  0.00    -0.027 C 
HETATM    3  C   UNK N   1       0.665  -1.110   0.311  0.00  0.00     0.172 C 
HETATM    4  C   UNK N   1       0.773   1.825  -0.173  0.00  0.00     0.180 C 
HETATM    5  C   UNK N   1      -0.515  -0.329  -0.295  0.00  0.00     0.182 C 
HETATM    6  C   UNK N   1      -0.511   1.090   0.264  0.00  0.00     0.182 C 
ENDROOT
BRANCH   2   7
HETATM    7  C   UNK N   1       3.409   1.576  -0.128  0.00  0.00     0.201 C 
BRANCH   7   8
HETATM    8  O   UNK N   1       3.374   2.948  -0.384  0.00  0.00    -0.397 OA
HETATM    9  H   UNK N   1       4.187   3.445  -0.562  0.00  0.00     0.209 HD
ENDBRANCH   7   8
ENDBRANCH   2   7
BRANCH   4  10
HETATM   10  O   UNK N   1       0.862   3.010   0.562  0.00  0.00    -0.388 OA
HETATM   11  H   UNK N   1       1.605   3.367   1.072  0.00  0.00     0.210 HD
ENDBRANCH   4  10
BRANCH   3  12
HETATM   12  O   UNK N   1       0.811  -2.321  -0.366  0.00  0.00    -0.389 OA
HETATM   13  H   UNK N   1       0.133  -2.831  -0.837  0.00  0.00     0.210 HD
ENDBRANCH   3  12
BRANCH   6  14
HETATM   14  O   UNK N   1      -1.630   1.799  -0.183  0.00  0.00    -0.390 OA
HETATM   15  H   UNK N   1      -1.592   2.717  -0.493  0.00  0.00     0.210 HD
ENDBRANCH   6  14
BRANCH   5  16
HETATM   16  O   UNK N   1      -1.712  -0.977   0.024  0.00  0.00    -0.390 OA
HETATM   17  H   UNK N   1      -2.517  -0.482   0.246  0.00  0.00     0.210 HD
ENDBRANCH   5  16
TORSDOF 6
