REMARK  5 active torsions:
REMARK  status: ('A' for Active; 'I' for Inactive)
REMARK    1  A    between atoms: C_2  and  C_1 
REMARK    2  A    between atoms: S_8  and  C_1 
REMARK    3  A    between atoms: C_3  and  C_2 
REMARK    4  A    between atoms: C_2  and  N_4 
REMARK    5  A    between atoms: O_7  and  C_3 
ROOT
HETATM    1  C   UNK N   1       1.401  -0.528  -0.001  0.00  0.00     0.158 C 
ENDROOT
BRANCH   1   2
HETATM    2  C   UNK N   1       0.447   0.683  -0.000  0.00  0.00     0.103 C 
BRANCH   2   3
HETATM    3  S   UNK N   1      -1.353   0.339  -0.000  0.00  0.00    -0.180 SA
HETATM    4  H   UNK N   1      -2.242   1.369  -0.000  0.00  0.00     0.101 HD
ENDBRANCH   2   3
ENDBRANCH   1   2
BRANCH   1   5
HETATM    5  C   UNK N   1       2.903  -0.671  -0.000  0.00  0.00     0.132 C 
HETATM    6  N   UNK N   1       3.436  -1.842  -0.000  0.00  0.00    -0.382 N 
HETATM    7  H   UNK N   1       2.864  -2.644   0.000  0.00  0.00     0.158 HD
ATOM      8  HN  UNK N   1       4.452  -1.941  -0.000  1.00  0.00     0.158 HD
BRANCH   5   9
HETATM    9  O   UNK N   1       3.700   0.414   0.000  0.00  0.00    -0.348 OA
HETATM   10  H   UNK N   1       4.632   0.312   0.000  0.00  0.00     0.219 HD
ENDBRANCH   5   9
ENDBRANCH   1   5
BRANCH   1  11
HETATM   11  N   UNK N   1       0.620  -1.756   0.001  0.00  0.00    -0.419 N 
HETATM   12  H   UNK N   1      -0.400  -1.712   0.002  0.00  0.00     0.150 HD
HETATM   13  H   UNK N   1       1.091  -2.661   0.001  0.00  0.00     0.150 HD
ENDBRANCH   1  11
TORSDOF 5
