REMARK  0 active torsions:
REMARK  status: ('A' for Active; 'I' for Inactive)
REMARK       I    between atoms: N_1  and  C_2 
ROOT
HETATM    1  N   UNK N   1       5.855   1.611  -0.000  0.00  0.00    -0.234 N 
HETATM    2  C   UNK N   1       4.449   1.539  -0.000  0.00  0.00     0.680 A 
HETATM    3  N   UNK N   1       3.720   2.677  -0.000  0.00  0.00    -0.175 N 
ATOM      4  HN  UNK N   1       4.202   3.576  -0.000  1.00  0.00     0.186 HD
HETATM    5  C   UNK N   1       2.366   2.653   0.000  0.00  0.00     0.150 A 
HETATM    6  C   UNK N   1       1.675   1.420   0.000  0.00  0.00     0.153 A 
HETATM    7  N   UNK N   1       0.236   1.459   0.000  0.00  0.00    -0.277 N 
HETATM    8  C   UNK N   1      -0.472   2.695   0.000  0.00  0.00     0.138 A 
HETATM    9  C   UNK N   1       0.233   4.035  -0.000  0.00  0.00     0.149 A 
HETATM   10  N   UNK N   1       1.672   3.893  -0.000  0.00  0.00    -0.372 N 
HETATM   11  C   UNK N   1      -1.964   2.360  -0.000  0.00  0.00     0.208 A 
HETATM   12  O   UNK N   1      -1.952   0.970  -0.000  0.00  0.00    -0.302 OA
HETATM   13  C   UNK N   1      -0.695   0.492  -0.000  0.00  0.00     0.368 A 
HETATM   14  O   UNK N   1      -0.460  -0.704  -0.000  0.00  0.00    -0.238 OA
HETATM   15  C   UNK N   1       2.464   0.236   0.000  0.00  0.00     0.290 A 
HETATM   16  O   UNK N   1       1.965  -0.870   0.000  0.00  0.00    -0.265 OA
HETATM   17  N   UNK N   1       3.830   0.335  -0.000  0.00  0.00    -0.154 N 
HETATM   18  H   UNK N   1       6.390   0.784  -0.000  0.00  0.00     0.174 HD
HETATM   19  H   UNK N   1       6.303   2.487  -0.000  0.00  0.00     0.174 HD
HETATM   20  H   UNK N   1       2.211   4.717   0.000  0.00  0.00     0.161 HD
HETATM   21  H   UNK N   1       4.373  -0.486  -0.000  0.00  0.00     0.187 HD
ENDROOT
TORSDOF 0
