REMARK  5 active torsions:
REMARK  status: ('A' for Active; 'I' for Inactive)
REMARK    1  A    between atoms: O_1  and  B_2 
REMARK    2  A    between atoms: B_2  and  O_3 
REMARK    3  A    between atoms: B_2  and  C_4 
REMARK    4  A    between atoms: C_7  and  C_10 
REMARK    5  A    between atoms: C_10  and  O_11 
ROOT
HETATM    1  C   UNK N   1       0.718  -0.966  -0.000  0.00  0.00    -0.032 A 
HETATM    2  C   UNK N   1      -0.503  -0.286  -0.000  0.00  0.00     0.002 A 
HETATM    3  C   UNK N   1      -0.525   1.110  -0.000  0.00  0.00     0.018 A 
HETATM    4  C   UNK N   1       0.675   1.832  -0.000  0.00  0.00     0.037 A 
HETATM    5  C   UNK N   1       1.897   1.145  -0.000  0.00  0.00     0.018 A 
HETATM    6  C   UNK N   1       1.918  -0.250  -0.000  0.00  0.00     0.002 A 
ENDROOT
BRANCH   1   7
HETATM    7  B   UNK N   1       0.741  -2.523  -0.000  0.00  0.00     0.529 B 
BRANCH   7   8
HETATM    8  O   UNK N   1       2.015  -3.237   0.000  0.00  0.00    -0.433 OA
HETATM    9  H   UNK N   1       2.027  -4.207   0.000  0.00  0.00     0.185 HD
ENDBRANCH   7   8
BRANCH   7  10
HETATM   10  O   UNK N   1      -0.513  -3.271  -0.000  0.00  0.00    -0.433 OA
HETATM   11  H   UNK N   1      -1.360  -2.798  -0.000  0.00  0.00     0.185 HD
ENDBRANCH   7  10
ENDBRANCH   1   7
BRANCH   4  12
HETATM   12  C   UNK N   1       0.653   3.304   0.000  0.00  0.00     0.176 C 
HETATM   13  O   UNK N   1       1.696   3.935  -0.000  0.00  0.00    -0.646 OA
BRANCH  12  14
HETATM   14  O   UNK N   1      -0.523   3.962   0.000  0.00  0.00    -0.773 OA
HETATM   15  H   UNK N   1      -0.535   4.899   0.000  0.00  0.00     0.167 HD
ENDBRANCH  12  14
ENDBRANCH   4  12
TORSDOF 5
