REMARK  2 active torsions:
REMARK  status: ('A' for Active; 'I' for Inactive)
REMARK    1  A    between atoms: C_2  and  O_3 
REMARK    2  A    between atoms: C_2  and  C_4 
ROOT
HETATM    1  C   UNK N   1       3.222  -0.709   0.000  0.00  0.00     0.040 C 
HETATM    2  C   UNK N   1       1.709  -0.663  -0.000  0.00  0.00     0.124 C 
ENDROOT
BRANCH   2   3
HETATM    3  O   UNK N   1       1.017  -1.873   0.000  0.00  0.00    -0.395 OA
HETATM    4  H   UNK N   1       0.047  -1.877   0.000  0.00  0.00     0.210 HD
ENDBRANCH   2   3
BRANCH   2   5
HETATM    5  C   UNK N   1       0.939   0.651   0.000  0.00  0.00     0.116 C 
HETATM    6 Br   UNK N   1      -0.981   0.361  -0.000  0.00  0.00    -0.094 Br
ENDBRANCH   2   5
TORSDOF 2
