REMARK  6 active torsions:
REMARK  status: ('A' for Active; 'I' for Inactive)
REMARK    1  A    between atoms: C_9  and  C_5 
REMARK    2  A    between atoms: O_18  and  C_5 
REMARK    3  A    between atoms: C_10  and  O_19 
REMARK    4  A    between atoms: C_11  and  O_20 
REMARK    5  A    between atoms: C_12  and  O_21 
REMARK    6  A    between atoms: C_13  and  C_14 
ROOT
HETATM    1  C   UNK N   1      -1.470   1.722   0.045  0.00  0.00     0.177 C 
HETATM    2  C   UNK N   1      -2.469   0.522   0.200  0.00  0.00     0.180 C 
HETATM    3  C   UNK N   1      -1.802  -0.860   0.340  0.00  0.00     0.181 C 
HETATM    4  C   UNK N   1      -0.348  -0.824  -0.073  0.00  0.00     0.185 C 
HETATM    5  C   UNK N   1       0.346   0.267   0.774  0.00  0.00     0.221 C 
HETATM    6  O   UNK N   1      -0.182   1.584   0.639  0.00  0.00    -0.365 OA
ENDROOT
BRANCH   5   7
HETATM    7  C   UNK N   1       1.814   0.244   0.459  0.00  0.00     0.114 A 
HETATM    8  N   UNK N   1       2.496   1.266  -0.129  0.00  0.00    -0.342 N 
HETATM    9  C   UNK N   1       3.742   0.784  -0.250  0.00  0.00     0.060 A 
ATOM     10  HN  UNK N   1       2.142   2.180  -0.411  1.00  0.00     0.167 HD
HETATM   11  C   UNK N   1       4.857   1.406  -0.809  0.00  0.00     0.032 A 
HETATM   12  C   UNK N   1       3.804  -0.475   0.259  0.00  0.00     0.061 A 
HETATM   13  C   UNK N   1       6.065   0.680  -0.824  0.00  0.00     0.009 A 
HETATM   14  C   UNK N   1       6.126  -0.628  -0.284  0.00  0.00    -0.060 A 
HETATM   15  C   UNK N   1       7.407  -1.380  -0.300  0.00  0.00     0.048 C 
HETATM   16  C   UNK N   1       4.975  -1.221   0.268  0.00  0.00     0.038 A 
HETATM   17  N   UNK N   1       2.596  -0.837   0.708  0.00  0.00    -0.342 N 
HETATM   18  H   UNK N   1       2.334  -1.690   1.123  0.00  0.00     0.167 HD
ENDBRANCH   5   7
BRANCH   4  19
HETATM   19  O   UNK N   1      -0.217  -0.568  -1.442  0.00  0.00    -0.390 OA
HETATM   20  H   UNK N   1      -0.018  -0.558  -2.391  0.00  0.00     0.210 HD
ENDBRANCH   4  19
BRANCH   3  21
HETATM   21  O   UNK N   1      -2.503  -1.860  -0.344  0.00  0.00    -0.390 OA
HETATM   22  H   UNK N   1      -3.346  -1.785  -0.818  0.00  0.00     0.210 HD
ENDBRANCH   3  21
BRANCH   1  23
HETATM   23  C   UNK N   1      -1.276   2.189  -1.401  0.00  0.00     0.198 C 
BRANCH  23  24
HETATM   24  O   UNK N   1      -2.348   2.995  -1.801  0.00  0.00    -0.398 OA
HETATM   25  H   UNK N   1      -2.237   3.918  -2.078  0.00  0.00     0.209 HD
ENDBRANCH  23  24
ENDBRANCH   1  23
BRANCH   2  26
HETATM   26  O   UNK N   1      -3.402   0.529  -0.845  0.00  0.00    -0.390 OA
HETATM   27  H   UNK N   1      -3.720   1.090  -1.569  0.00  0.00     0.210 HD
ENDBRANCH   2  26
TORSDOF 6
