REMARK  17 active torsions:
REMARK  status: ('A' for Active; 'I' for Inactive)
REMARK    1  A    between atoms: C_1  and  N_2 
REMARK    2  A    between atoms: C_4  and  O_9 
REMARK    3  A    between atoms: C_7  and  C_13 
REMARK    4  A    between atoms: C_8  and  O_14 
REMARK    5  A    between atoms: C_13  and  O_16 
REMARK    6  A    between atoms: O_16  and  P_18 
REMARK    7  A    between atoms: P_18  and  O_19 
REMARK    8  A    between atoms: P_18  and  O_20 
REMARK    9  A    between atoms: O_19  and  P_22 
REMARK   10  A    between atoms: P_22  and  O_23 
REMARK   11  A    between atoms: P_22  and  O_24 
REMARK   12  A    between atoms: C_26  and  O_23 
REMARK   13  A    between atoms: C_28  and  O_31 
REMARK   14  A    between atoms: C_29  and  C_33 
REMARK   15  A    between atoms: C_30  and  O_34 
REMARK   16  A    between atoms: C_32  and  O_35 
REMARK   17  A    between atoms: C_33  and  O_36 
ROOT
HETATM    1  P   UNK N   1       0.905   0.079   1.010  0.00  0.00     0.401 P 
HETATM    2  O   UNK N   1       0.577  -0.262   2.489  0.00  0.00    -0.631 OA
ENDROOT
BRANCH   1   3
HETATM    3  O   UNK N   1       0.793  -1.419   0.106  0.00  0.00    -0.294 OA
BRANCH   3   4
HETATM    4  C   UNK N   1       1.982  -1.604  -0.605  0.00  0.00     0.215 C 
BRANCH   4   5
HETATM    5  C   UNK N   1       2.928  -2.506   0.195  0.00  0.00     0.180 C 
HETATM    6  O   UNK N   1       3.691  -1.702   1.060  0.00  0.00    -0.353 OA
HETATM    7  C   UNK N   1       4.907  -1.430   0.383  0.00  0.00     0.263 C 
HETATM    8  C   UNK N   1       4.964  -2.231  -0.908  0.00  0.00     0.198 C 
HETATM    9  C   UNK N   1       3.934  -3.271  -0.641  0.00  0.00     0.182 C 
BRANCH   7  10
HETATM   10  N   UNK N   1       5.087   0.018   0.195  0.00  0.00    -0.280 N 
HETATM   11  C   UNK N   1       4.602   0.723  -0.901  0.00  0.00     0.331 A 
HETATM   12  N   UNK N   1       4.743   2.083  -0.959  0.00  0.00    -0.275 N 
HETATM   13  O   UNK N   1       4.030   0.150  -1.814  0.00  0.00    -0.246 OA
HETATM   14  C   UNK N   1       5.352   2.768   0.054  0.00  0.00     0.250 A 
HETATM   15  H   UNK N   1       4.400   2.574  -1.741  0.00  0.00     0.173 HD
HETATM   16  O   UNK N   1       5.457   3.978  -0.007  0.00  0.00    -0.268 OA
HETATM   17  C   UNK N   1       5.847   2.079   1.155  0.00  0.00     0.092 A 
HETATM   18  C   UNK N   1       5.700   0.695   1.205  0.00  0.00     0.104 A 
ENDBRANCH   7  10
BRANCH   8  19
HETATM   19  O   UNK N   1       6.221  -2.804  -1.089  0.00  0.00    -0.388 OA
HETATM   20  H   UNK N   1       6.314  -3.761  -1.215  0.00  0.00     0.210 HD
ENDBRANCH   8  19
BRANCH   9  21
HETATM   21  O   UNK N   1       3.388  -3.786  -1.818  0.00  0.00    -0.390 OA
HETATM   22  H   UNK N   1       2.889  -3.636  -2.636  0.00  0.00     0.210 HD
ENDBRANCH   9  21
ENDBRANCH   4   5
ENDBRANCH   3   4
ENDBRANCH   1   3
BRANCH   1  23
HETATM   23  O   UNK N   1      -0.263   1.255   0.487  0.00  0.00    -0.195 OA
BRANCH  23  24
HETATM   24  P   UNK N   1      -1.742   0.364   0.378  0.00  0.00     0.404 P 
HETATM   25  O   UNK N   1      -1.505   0.638  -1.133  0.00  0.00    -0.631 OA
BRANCH  24  26
HETATM   26  O   UNK N   1      -3.308   1.017   0.008  0.00  0.00    -0.263 OA
BRANCH  26  27
HETATM   27  C   UNK N   1      -4.119  -0.092  -0.277  0.00  0.00     0.304 C 
HETATM   28  O   UNK N   1      -5.032   0.207  -1.329  0.00  0.00    -0.340 OA
HETATM   29  C   UNK N   1      -6.308   0.601  -0.848  0.00  0.00     0.253 C 
HETATM   30  C   UNK N   1      -6.991  -0.482   0.033  0.00  0.00     0.189 C 
HETATM   31  C   UNK N   1      -5.995  -1.479   0.618  0.00  0.00     0.183 C 
HETATM   32  C   UNK N   1      -4.743  -0.711   0.995  0.00  0.00     0.205 C 
BRANCH  29  33
HETATM   33  C   UNK N   1      -6.324   2.012  -0.314  0.00  0.00     0.172 C 
HETATM   34  O   UNK N   1      -6.997   2.858  -0.878  0.00  0.00    -0.648 OA
BRANCH  33  35
HETATM   35  O   UNK N   1      -5.619   2.344   0.784  0.00  0.00    -0.774 OA
HETATM   36  H   UNK N   1      -5.174   2.035   1.549  0.00  0.00     0.167 HD
ENDBRANCH  33  35
ENDBRANCH  29  33
BRANCH  30  37
HETATM   37  O   UNK N   1      -7.744   0.099   1.057  0.00  0.00    -0.390 OA
HETATM   38  H   UNK N   1      -7.656   0.753   1.768  0.00  0.00     0.210 HD
ENDBRANCH  30  37
BRANCH  31  39
HETATM   39  O   UNK N   1      -5.692  -2.463  -0.329  0.00  0.00    -0.390 OA
HETATM   40  H   UNK N   1      -6.178  -2.986  -0.985  0.00  0.00     0.210 HD
ENDBRANCH  31  39
BRANCH  32  41
HETATM   41  O   UNK N   1      -3.828  -1.553   1.631  0.00  0.00    -0.388 OA
HETATM   42  H   UNK N   1      -4.017  -2.395   2.073  0.00  0.00     0.210 HD
ENDBRANCH  32  41
ENDBRANCH  26  27
ENDBRANCH  24  26
BRANCH  24  43
HETATM   43  O   UNK N   1      -1.976   1.929   1.098  0.00  0.00    -0.307 OA
HETATM   44  H   UNK N   1      -1.285   2.479   1.499  0.00  0.00     0.222 HD
ENDBRANCH  24  43
ENDBRANCH  23  24
ENDBRANCH   1  23
BRANCH   1  45
HETATM   45  O   UNK N   1       2.478   0.796   1.035  0.00  0.00    -0.307 OA
HETATM   46  H   UNK N   1       3.268   0.233   1.050  0.00  0.00     0.222 HD
ENDBRANCH   1  45
TORSDOF 17
