REMARK  7 active torsions:
REMARK  status: ('A' for Active; 'I' for Inactive)
REMARK    1  A    between atoms: N_1  and  C_2 
REMARK    2  A    between atoms: C_2  and  C_3 
REMARK    3  A    between atoms: C_3  and  C_4 
REMARK    4  A    between atoms: C_4  and  C_5 
REMARK    5  A    between atoms: C_5  and  C_6 
REMARK    6  A    between atoms: C_6  and  C_7 
REMARK    7  A    between atoms: C_7  and  N_8 
ROOT
HETATM    1  C   UNK N   1       2.914   2.047   0.000  0.00  0.00     0.002 C 
ENDROOT
BRANCH   1   2
HETATM    2  C   UNK N   1       1.724   1.118   0.000  0.00  0.00     0.019 C 
BRANCH   2   3
HETATM    3  C   UNK N   1       0.455   1.937  -0.000  0.00  0.00     0.111 C 
BRANCH   3   4
HETATM    4  N   UNK N   1      -0.688   1.044   0.000  0.00  0.00    -0.430 N 
HETATM    5  H   UNK N   1      -1.634   1.426   0.000  0.00  0.00     0.149 HD
HETATM    6  H   UNK N   1      -0.546   0.034   0.000  0.00  0.00     0.149 HD
ENDBRANCH   3   4
ENDBRANCH   2   3
ENDBRANCH   1   2
BRANCH   1   7
HETATM    7  C   UNK N   1       4.179   1.223   0.000  0.00  0.00     0.002 C 
BRANCH   7   8
HETATM    8  C   UNK N   1       5.369   2.152   0.000  0.00  0.00     0.019 C 
BRANCH   8   9
HETATM    9  C   UNK N   1       6.639   1.334  -0.000  0.00  0.00     0.111 C 
BRANCH   9  10
HETATM   10  N   UNK N   1       7.781   2.226   0.000  0.00  0.00    -0.430 N 
HETATM   11  H   UNK N   1       8.727   1.844   0.000  0.00  0.00     0.149 HD
HETATM   12  H   UNK N   1       7.639   3.236   0.000  0.00  0.00     0.149 HD
ENDBRANCH   9  10
ENDBRANCH   8   9
ENDBRANCH   7   8
ENDBRANCH   1   7
TORSDOF 7
