REMARK  10 active torsions:
REMARK  status: ('A' for Active; 'I' for Inactive)
REMARK    1  A    between atoms: C_6  and  C_7 
REMARK    2  A    between atoms: C_7  and  O_8 
REMARK    3  A    between atoms: O_8  and  P_9 
REMARK    4  A    between atoms: P_9  and  O_10 
REMARK    5  A    between atoms: P_9  and  O_11 
REMARK    6  A    between atoms: C_13  and  C_14 
REMARK    7  A    between atoms: C_14  and  N_15 
REMARK    8  A    between atoms: N_15  and  C_16 
REMARK    9  A    between atoms: C_21  and  O_22 
REMARK   10  A    between atoms: C_23  and  O_24 
ROOT
HETATM    1  C   UNK N   1      -0.332   8.566   0.604  0.00  0.00     0.071 C 
HETATM    2  C   UNK N   1       0.991   7.994   0.226  0.00  0.00     0.039 A 
HETATM    3  N   UNK N   1       2.099   8.778   0.301  0.00  0.00    -0.367 N 
ATOM      4  HN  UNK N   1       2.006   9.739   0.628  1.00  0.00     0.165 HD
HETATM    5  C   UNK N   1       3.326   8.314  -0.049  0.00  0.00     0.098 A 
HETATM    6  C   UNK N   1       3.486   7.003  -0.503  0.00  0.00    -0.008 A 
HETATM    7  C   UNK N   1       2.357   6.157  -0.587  0.00  0.00     0.004 A 
HETATM    8  C   UNK N   1       1.099   6.666  -0.217  0.00  0.00     0.096 A 
ENDROOT
BRANCH   7   9
HETATM    9  C   UNK N   1       2.460   4.744  -1.108  0.00  0.00     0.162 C 
BRANCH   9  10
HETATM   10  N   UNK N   1       3.534   4.019  -0.473  0.00  0.00    -0.381 N 
HETATM   11  H   UNK N   1       4.402   4.472  -0.374  0.00  0.00     0.160 HD
BRANCH  10  12
HETATM   12  C   UNK N   1       3.413   2.696   0.016  0.00  0.00     0.106 A 
HETATM   13  C   UNK N   1       4.449   1.926   0.493  0.00  0.00     0.201 A 
HETATM   14  O   UNK N   1       3.932   0.759   0.833  0.00  0.00    -0.246 OA
HETATM   15  N   UNK N   1       2.647   0.718   0.613  0.00  0.00    -0.238 N 
HETATM   16  C   UNK N   1       2.296   1.910   0.104  0.00  0.00     0.189 A 
ATOM     17  HN  UNK N   1       2.026  -0.070   0.794  1.00  0.00     0.197 HD
BRANCH  16  18
HETATM   18  O   UNK N   1       1.044   2.241  -0.246  0.00  0.00    -0.343 OA
HETATM   19  H   UNK N   1       0.808   3.114  -0.491  0.00  0.00     0.219 HD
ENDBRANCH  16  18
ENDBRANCH  10  12
ENDBRANCH   9  10
ENDBRANCH   7   9
BRANCH   6  20
HETATM   20  C   UNK N   1       4.854   6.550  -0.904  0.00  0.00     0.221 C 
BRANCH  20  21
HETATM   21  O   UNK N   1       5.523   5.991   0.193  0.00  0.00    -0.292 OA
BRANCH  21  22
HETATM   22  P   UNK N   1       6.991   5.338  -0.475  0.00  0.00     0.391 P 
HETATM   23  O   UNK N   1       6.524   4.129   0.378  0.00  0.00    -0.632 OA
BRANCH  22  24
HETATM   24  O   UNK N   1       8.412   5.036   0.473  0.00  0.00    -0.307 OA
HETATM   25  H   UNK N   1       8.663   4.263   1.003  0.00  0.00     0.222 HD
ENDBRANCH  22  24
BRANCH  22  26
HETATM   26  O   UNK N   1       7.338   6.638   0.623  0.00  0.00    -0.307 OA
HETATM   27  H   UNK N   1       8.064   6.833   1.237  0.00  0.00     0.222 HD
ENDBRANCH  22  26
ENDBRANCH  21  22
ENDBRANCH  20  21
ENDBRANCH   6  20
BRANCH   8  28
HETATM   28  O   UNK N   1      -0.000   5.891  -0.302  0.00  0.00    -0.358 OA
HETATM   29  H   UNK N   1      -0.849   6.284  -0.362  0.00  0.00     0.217 HD
ENDBRANCH   8  28
TORSDOF 10
