REMARK  0 active torsions:
REMARK  status: ('A' for Active; 'I' for Inactive)
ROOT
HETATM    1  C   UNK N   1      -1.158   1.783   0.000  0.00  0.00     0.163 C 
HETATM    2  N   UNK N   1      -0.710   0.400   0.000  0.00  0.00    -0.288 N 
HETATM    3  C   UNK N   1      -1.475  -0.729   0.000  0.00  0.00     0.328 A 
HETATM    4  O   UNK N   1      -2.692  -0.724   0.000  0.00  0.00    -0.246 OA
HETATM    5  N   UNK N   1      -0.724  -1.873   0.000  0.00  0.00    -0.301 N 
HETATM    6  C   UNK N   1       0.541  -1.410   0.000  0.00  0.00     0.150 A 
HETATM    7  C   UNK N   1       0.546  -0.052  -0.000  0.00  0.00     0.148 A 
HETATM    8  N   UNK N   1       1.685   0.677  -0.000  0.00  0.00    -0.292 N 
HETATM    9  C   UNK N   1       2.885  -0.004  -0.000  0.00  0.00     0.328 A 
HETATM   10  O   UNK N   1       3.931   0.617  -0.000  0.00  0.00    -0.247 OA
HETATM   11  N   UNK N   1       2.904  -1.391  -0.000  0.00  0.00    -0.273 N 
HETATM   12  C   UNK N   1       1.730  -2.111  -0.000  0.00  0.00     0.280 A 
HETATM   13  O   UNK N   1       1.744  -3.329   0.000  0.00  0.00    -0.265 OA
HETATM   14  H   UNK N   1      -1.034  -2.808   0.000  0.00  0.00     0.171 HD
HETATM   15  H   UNK N   1       1.659   1.661  -0.000  0.00  0.00     0.172 HD
HETATM   16  H   UNK N   1       3.766  -1.865  -0.000  0.00  0.00     0.173 HD
ENDROOT
TORSDOF 0
