REMARK  13 active torsions:
REMARK  status: ('A' for Active; 'I' for Inactive)
REMARK    1  A    between atoms: C_13  and  C_9 
REMARK    2  A    between atoms: C_16  and  C_9 
REMARK    3  A    between atoms: C_15  and  C_10 
REMARK    4  A    between atoms: O_27  and  C_10 
REMARK    5  A    between atoms: O_22  and  C_11 
REMARK    6  A    between atoms: C_17  and  C_15 
REMARK    7  A    between atoms: C_15  and  N_19 
REMARK    8  A    between atoms: B_18  and  C_16 
REMARK    9  A    between atoms: C_16  and  N_20 
REMARK   10  A    between atoms: O_24  and  C_17 
REMARK   11  A    between atoms: O_25  and  B_18 
REMARK   12  A    between atoms: O_26  and  B_18 
REMARK   13  A    between atoms: O_27  and  B_18 
ROOT
HETATM    1  C   UNK N   1       1.771   3.315   0.157  0.00  0.00     0.152 C 
ENDROOT
BRANCH   1   2
HETATM    2  C   UNK N   1       0.679   3.395  -0.922  0.00  0.00     0.063 C 
BRANCH   2   3
HETATM    3  C   UNK N   1      -0.721   3.533  -0.390  0.00  0.00    -0.046 A 
HETATM    4  C   UNK N   1      -1.188   4.800  -0.016  0.00  0.00     0.008 A 
HETATM    5  C   UNK N   1      -2.502   4.969   0.433  0.00  0.00     0.001 A 
HETATM    6  C   UNK N   1      -3.364   3.873   0.512  0.00  0.00     0.012 A 
HETATM    7  C   UNK N   1      -2.916   2.603   0.144  0.00  0.00    -0.025 A 
HETATM    8  C   UNK N   1      -3.780   1.506   0.226  0.00  0.00     0.012 A 
HETATM    9  C   UNK N   1      -1.589   2.425  -0.317  0.00  0.00    -0.020 A 
HETATM   10  C   UNK N   1      -3.335   0.233  -0.143  0.00  0.00     0.001 A 
HETATM   11  C   UNK N   1      -2.028   0.053  -0.602  0.00  0.00     0.001 A 
HETATM   12  C   UNK N   1      -1.162   1.144  -0.692  0.00  0.00     0.013 A 
ENDBRANCH   2   3
ENDBRANCH   1   2
BRANCH   1  13
HETATM   13  B   UNK N   1       3.240   3.547  -0.532  0.00  0.00     0.629 B 
BRANCH  13  14
HETATM   14  O   UNK N   1       3.443   2.629  -1.671  0.00  0.00    -0.408 OA
HETATM   15  H   UNK N   1       2.988   2.213  -2.419  0.00  0.00     0.188 HD
ENDBRANCH  13  14
BRANCH  13  16
HETATM   16  O   UNK N   1       3.269   4.919  -1.061  0.00  0.00    -0.408 OA
HETATM   17  H   UNK N   1       4.062   5.354  -1.410  0.00  0.00     0.188 HD
ENDBRANCH  13  16
BRANCH  13  18
HETATM   18  O   UNK N   1       4.350   3.427   0.461  0.00  0.00    -0.395 OA
BRANCH  18  19
HETATM   19  C   UNK N   1       4.622   2.074   0.719  0.00  0.00     0.184 C 
BRANCH  19  20
HETATM   20  C   UNK N   1       5.930   1.628   0.067  0.00  0.00     0.195 C 
BRANCH  20  21
HETATM   21  C   UNK N   1       6.183   0.163   0.304  0.00  0.00     0.165 C 
HETATM   22  O   UNK N   1       7.176  -0.364  -0.166  0.00  0.00    -0.648 OA
BRANCH  21  23
HETATM   23  O   UNK N   1       5.316  -0.579   1.025  0.00  0.00    -0.775 OA
HETATM   24  H   UNK N   1       4.569  -0.316   1.525  0.00  0.00     0.167 HD
ENDBRANCH  21  23
ENDBRANCH  20  21
BRANCH  20  25
HETATM   25  N   UNK N   1       7.033   2.403   0.613  0.00  0.00    -0.416 N 
HETATM   26  H   UNK N   1       7.891   2.005   0.995  0.00  0.00     0.150 HD
HETATM   27  H   UNK N   1       6.943   3.419   0.613  0.00  0.00     0.150 HD
ENDBRANCH  20  25
ENDBRANCH  19  20
ENDBRANCH  18  19
ENDBRANCH  13  18
ENDBRANCH   1  13
BRANCH   1  28
HETATM   28  N   UNK N   1       1.672   2.083   0.934  0.00  0.00    -0.370 N 
HETATM   29  C   UNK N   1       1.722   0.883   0.453  0.00  0.00     0.106 C 
HETATM   30  C   UNK N   1       1.613  -0.280   1.375  0.00  0.00     0.097 C 
ATOM     31  HN  UNK N   1       1.553   2.177   1.943  1.00  0.00     0.161 HD
BRANCH  29  32
HETATM   32  O   UNK N   1       1.854   0.660  -0.870  0.00  0.00    -0.350 OA
HETATM   33  H   UNK N   1       1.766   0.503  -1.790  0.00  0.00     0.219 HD
ENDBRANCH  29  32
ENDBRANCH   1  28
TORSDOF 13
