REMARK  11 active torsions:
REMARK  status: ('A' for Active; 'I' for Inactive)
REMARK    1  A    between atoms: C_2  and  C_1 
REMARK    2  A    between atoms: O_14  and  C_1 
REMARK    3  A    between atoms: C_3  and  O_15 
REMARK    4  A    between atoms: C_4  and  O_16 
REMARK    5  A    between atoms: C_5  and  O_17 
REMARK    6  A    between atoms: C_7  and  C_6 
REMARK    7  A    between atoms: N_8  and  C_6 
REMARK    8  A    between atoms: O_18  and  C_6 
REMARK    9  A    between atoms: C_7  and  N_11 
REMARK   10  A    between atoms: N_13  and  N_9 
REMARK   11  A    between atoms: N_13  and  N_11 
ROOT
HETATM    1  C   UNK N   1       1.413   1.333  -0.768  0.00  0.00     0.179 C 
HETATM    2  C   UNK N   1       0.392   2.068   0.112  0.00  0.00     0.180 C 
HETATM    3  C   UNK N   1      -0.902   1.281   0.096  0.00  0.00     0.183 C 
HETATM    4  C   UNK N   1      -0.675  -0.172   0.544  0.00  0.00     0.211 C 
HETATM    5  C   UNK N   1       0.739  -0.824   0.196  0.00  0.00     0.232 C 
HETATM    6  O   UNK N   1       1.761   0.058  -0.275  0.00  0.00    -0.343 OA
ENDROOT
BRANCH   5   7
HETATM    7  C   UNK N   1       0.562  -1.985  -0.818  0.00  0.00     0.272 C 
BRANCH   7   8
HETATM    8  N   UNK N   1      -0.389  -2.970  -0.318  0.00  0.00    -0.402 N 
HETATM    9  H   UNK N   1      -1.319  -2.738   0.032  0.00  0.00     0.152 HD
HETATM   10  H   UNK N   1      -0.108  -3.950  -0.318  0.00  0.00     0.152 HD
ENDBRANCH   7   8
BRANCH   7  11
HETATM   11  O   UNK N   1       0.123  -1.502  -2.049  0.00  0.00    -0.372 OA
HETATM   12  H   UNK N   1       0.261  -1.069  -2.906  0.00  0.00     0.212 HD
ENDBRANCH   7  11
ENDBRANCH   5   7
BRANCH   5  13
HETATM   13  N   UNK N   1       1.288  -1.405   1.419  0.00  0.00    -0.209 N 
ATOM     14  HN  UNK N   1       0.733  -1.420   2.274  1.00  0.00     0.201 HD
BRANCH  13  15
HETATM   15  N   UNK N   1       2.416  -1.874   1.408  0.00  0.00    -0.245 NA
BRANCH  15  16
HETATM   16  N   UNK N   1       3.548  -2.324   1.393  0.00  0.00    -0.261 N 
HETATM   17  H   UNK N   1       3.691  -3.298   1.381  0.00  0.00     0.193 HD
ATOM     18  HN  UNK N   1       4.348  -1.691   1.393  1.00  0.00     0.193 HD
ENDBRANCH  15  16
ENDBRANCH  13  15
ENDBRANCH   5  13
BRANCH   4  19
HETATM   19  O   UNK N   1      -0.934  -0.271   1.916  0.00  0.00    -0.388 OA
HETATM   20  H   UNK N   1      -1.082  -0.150   2.867  0.00  0.00     0.210 HD
ENDBRANCH   4  19
BRANCH   3  21
HETATM   21  O   UNK N   1      -1.442   1.306  -1.194  0.00  0.00    -0.390 OA
HETATM   22  H   UNK N   1      -1.615   1.638  -2.088  0.00  0.00     0.210 HD
ENDBRANCH   3  21
BRANCH   1  23
HETATM   23  C   UNK N   1       2.704   2.150  -0.827  0.00  0.00     0.198 C 
BRANCH  23  24
HETATM   24  O   UNK N   1       3.262   2.292   0.448  0.00  0.00    -0.398 OA
HETATM   25  H   UNK N   1       3.540   2.005   1.332  0.00  0.00     0.209 HD
ENDBRANCH  23  24
ENDBRANCH   1  23
BRANCH   2  26
HETATM   26  O   UNK N   1       0.158   3.349  -0.401  0.00  0.00    -0.390 OA
HETATM   27  H   UNK N   1       0.845   3.934  -0.757  0.00  0.00     0.210 HD
ENDBRANCH   2  26
TORSDOF 11
