REMARK  7 active torsions:
REMARK  status: ('A' for Active; 'I' for Inactive)
REMARK    1  A    between atoms: C_5  and  C_2 
REMARK    2  A    between atoms: N_9  and  C_2 
REMARK    3  A    between atoms: C_6  and  C_3 
REMARK    4  A    between atoms: N_12  and  C_3 
REMARK    5  A    between atoms: C_7  and  C_4 
REMARK    6  A    between atoms: C_4  and  N_10 
REMARK    7  A    between atoms: O_14  and  C_6 
ROOT
HETATM    1  C   UNK N   1      -0.509  -0.929  -0.343  0.00  0.00     0.188 C 
HETATM    2  C   UNK N   1       0.125   1.281   0.234  0.00  0.00     0.205 C 
HETATM    3  C   UNK N   1       0.955  -0.746  -0.368  0.00  0.00     0.246 C 
HETATM    4  N   UNK N   1      -1.024   0.445  -0.182  0.00  0.00    -0.386 N 
HETATM    5  N   UNK N   1       1.300   0.510  -0.098  0.00  0.00    -0.318 N 
HETATM    6  O   UNK N   1       1.752  -1.610  -0.697  0.00  0.00    -0.271 OA
HETATM    7  H   UNK N   1      -1.984   0.758  -0.330  0.00  0.00     0.156 HD
ENDROOT
BRANCH   2   8
HETATM    8  C   UNK N   1       0.074   2.686  -0.394  0.00  0.00     0.112 C 
HETATM    9  C   UNK N   1       1.132   3.587   0.224  0.00  0.00     0.035 C 
BRANCH   8  10
HETATM   10  N   UNK N   1      -1.226   3.289  -0.147  0.00  0.00    -0.423 N 
HETATM   11  H   UNK N   1      -1.315   4.290   0.026  0.00  0.00     0.150 HD
HETATM   12  H   UNK N   1      -2.060   2.702  -0.147  0.00  0.00     0.150 HD
ENDBRANCH   8  10
ENDBRANCH   2   8
BRANCH   5  13
HETATM   13  C   UNK N   1       2.568   1.064  -0.545  0.00  0.00     0.237 C 
BRANCH  13  14
HETATM   14  C   UNK N   1       3.644   0.982   0.480  0.00  0.00     0.158 C 
HETATM   15  O   UNK N   1       4.183   2.004   0.868  0.00  0.00    -0.649 OA
BRANCH  14  16
HETATM   16  O   UNK N   1       4.080  -0.214   0.914  0.00  0.00    -0.775 OA
HETATM   17  H   UNK N   1       3.510  -0.894   1.217  0.00  0.00     0.167 HD
ENDBRANCH  14  16
ENDBRANCH  13  14
ENDBRANCH   5  13
BRANCH   1  18
HETATM   18  C   UNK N   1      -0.980  -1.827   0.791  0.00  0.00     0.145 C 
BRANCH  18  19
HETATM   19  N   UNK N   1      -2.427  -1.973   0.734  0.00  0.00    -0.428 N 
HETATM   20  H   UNK N   1      -3.022  -1.146   0.693  0.00  0.00     0.150 HD
HETATM   21  H   UNK N   1      -2.846  -2.903   0.734  0.00  0.00     0.150 HD
ENDBRANCH  18  19
ENDBRANCH   1  18
TORSDOF 7
