REMARK  2 active torsions:
REMARK  status: ('A' for Active; 'I' for Inactive)
REMARK    1  A    between atoms: N_1  and  C_2 
REMARK    2  A    between atoms: C_3  and  N_10 
ROOT
HETATM    1  C   UNK N   1       1.543   1.089  -0.000  0.00  0.00     0.145 A 
HETATM    2  C   UNK N   1       1.494  -0.324   0.000  0.00  0.00     0.209 A 
HETATM    3  N   UNK N   1       0.284  -0.943   0.000  0.00  0.00    -0.287 N 
HETATM    4  C   UNK N   1      -0.884  -0.236   0.000  0.00  0.00     0.328 A 
HETATM    5  O   UNK N   1      -1.948  -0.824   0.000  0.00  0.00    -0.247 OA
HETATM    6  N   UNK N   1      -0.854   1.131   0.000  0.00  0.00    -0.273 N 
HETATM    7  C   UNK N   1       0.339   1.803   0.000  0.00  0.00     0.279 A 
HETATM    8  O   UNK N   1       0.346   3.021   0.000  0.00  0.00    -0.265 OA
HETATM    9  H   UNK N   1       0.248  -1.927   0.000  0.00  0.00     0.172 HD
HETATM   10  H   UNK N   1      -1.698   1.637   0.000  0.00  0.00     0.173 HD
ENDROOT
BRANCH   1  11
HETATM   11  N   UNK N   1       2.774   1.787  -0.000  0.00  0.00    -0.391 N 
HETATM   12  H   UNK N   1       3.622   1.288  -0.000  0.00  0.00     0.156 HD
HETATM   13  H   UNK N   1       2.781   2.772  -0.000  0.00  0.00     0.156 HD
ENDBRANCH   1  11
BRANCH   2  14
HETATM   14  N   UNK N   1       2.665  -1.131   0.000  0.00  0.00    -0.095 N 
HETATM   15  O   UNK N   1       2.546  -2.440  -0.000  0.00  0.00    -0.530 OA
HETATM   16  O   UNK N   1       3.754  -0.642  -0.000  0.00  0.00    -0.530 OA
ENDBRANCH   2  14
TORSDOF 2
