REMARK  11 active torsions:
REMARK  status: ('A' for Active; 'I' for Inactive)
REMARK    1  A    between atoms: C_31  and  C_7 
REMARK    2  A    between atoms: C_15  and  N_32 
REMARK    3  A    between atoms: O_40  and  C_16 
REMARK    4  A    between atoms: C_17  and  O_43 
REMARK    5  A    between atoms: C_18  and  O_43 
REMARK    6  A    between atoms: C_24  and  C_30 
REMARK    7  A    between atoms: C_25  and  O_33 
REMARK    8  A    between atoms: O_36  and  C_28 
REMARK    9  A    between atoms: O_37  and  C_29 
REMARK   10  A    between atoms: O_41  and  C_30 
REMARK   11  A    between atoms: C_31  and  O_39 
ROOT
HETATM    1  C   UNK N   1      -1.781   3.453   0.265  0.00  0.00     0.004 A 
HETATM    2  C   UNK N   1      -0.650   4.261   0.287  0.00  0.00     0.017 A 
HETATM    3  C   UNK N   1      -1.649   2.074   0.134  0.00  0.00     0.038 A 
HETATM    4  C   UNK N   1       8.289   3.160   0.135  0.00  0.00     0.076 C 
HETATM    5  C   UNK N   1       0.627   3.706   0.148  0.00  0.00     0.032 A 
HETATM    6  C   UNK N   1      -0.392   1.481   0.004  0.00  0.00     0.083 A 
HETATM    7  C   UNK N   1       7.122   2.170   0.052  0.00  0.00     0.164 C 
HETATM    8  C   UNK N   1       0.775   2.309  -0.025  0.00  0.00     0.062 A 
HETATM    9  C   UNK N   1       5.766   2.843   0.170  0.00  0.00     0.015 A 
HETATM   10  C   UNK N   1       5.623   4.227   0.449  0.00  0.00     0.004 A 
HETATM   11  C   UNK N   1       3.188   4.007   0.208  0.00  0.00     0.066 A 
HETATM   12  C   UNK N   1       3.340   2.624  -0.024  0.00  0.00     0.066 A 
HETATM   13  C   UNK N   1       6.840   5.107   0.754  0.00  0.00     0.156 C 
HETATM   14  C   UNK N   1       1.815   4.591   0.209  0.00  0.00     0.197 C 
HETATM   15  C   UNK N   1       2.142   1.772  -0.251  0.00  0.00     0.200 C 
HETATM   16  C   UNK N   1       4.625   2.057  -0.043  0.00  0.00     0.090 A 
HETATM   17  C   UNK N   1       4.333   4.802   0.446  0.00  0.00     0.088 A 
HETATM   18  C   UNK N   1       8.061   4.238   1.187  0.00  0.00     0.077 C 
HETATM   19  O   UNK N   1       1.657   5.801   0.309  0.00  0.00    -0.286 OA
HETATM   20  O   UNK N   1       2.288   0.635  -0.674  0.00  0.00    -0.286 OA
ENDROOT
BRANCH   7  21
HETATM   21  O   UNK N   1       7.145   1.543  -1.220  0.00  0.00    -0.351 OA
BRANCH  21  22
HETATM   22  C   UNK N   1       7.957   0.388  -1.283  0.00  0.00     0.263 C 
HETATM   23  C   UNK N   1       7.472  -0.788  -0.398  0.00  0.00     0.099 C 
HETATM   24  C   UNK N   1       8.545  -1.574   0.381  0.00  0.00     0.257 C 
HETATM   25  C   UNK N   1       9.979  -1.175  -0.001  0.00  0.00     0.180 C 
HETATM   26  C   UNK N   1      10.048   0.344  -0.152  0.00  0.00     0.151 C 
HETATM   27  C   UNK N   1      11.487   0.780  -0.367  0.00  0.00     0.042 C 
HETATM   28  O   UNK N   1       9.331   0.739  -1.297  0.00  0.00    -0.354 OA
BRANCH  24  29
HETATM   29  N   UNK N   1       8.362  -3.037   0.272  0.00  0.00     0.087 N 
HETATM   30  C   UNK N   1       8.420  -3.479  -1.118  0.00  0.00     0.310 C 
HETATM   31  C   UNK N   1       7.063  -3.439   0.797  0.00  0.00     0.310 C 
ENDBRANCH  24  29
BRANCH  25  32
HETATM   32  O   UNK N   1      10.859  -1.619   0.992  0.00  0.00    -0.391 OA
HETATM   33  H   UNK N   1      10.898  -2.301   1.680  0.00  0.00     0.210 HD
ENDBRANCH  25  32
ENDBRANCH  21  22
ENDBRANCH   7  21
BRANCH  18  34
HETATM   34  C   UNK N   1       9.356   5.031   1.440  0.00  0.00     0.034 C 
HETATM   35  C   UNK N   1      10.160   5.371   0.189  0.00  0.00     0.008 C 
ENDBRANCH  18  34
BRANCH  18  36
HETATM   36  O   UNK N   1       7.747   3.614   2.400  0.00  0.00    -0.389 OA
HETATM   37  H   UNK N   1       7.265   3.586   3.241  0.00  0.00     0.210 HD
ENDBRANCH  18  36
BRANCH  16  38
HETATM   38  O   UNK N   1       4.773   0.736  -0.271  0.00  0.00    -0.359 OA
HETATM   39  H   UNK N   1       4.029   0.188  -0.428  0.00  0.00     0.217 HD
ENDBRANCH  16  38
BRANCH  13  40
HETATM   40  C   UNK N   1       7.104   6.062  -0.400  0.00  0.00     0.270 C 
HETATM   41  O   UNK N   1       6.489   5.947  -1.454  0.00  0.00    -0.264 OA
BRANCH  40  42
HETATM   42  O   UNK N   1       7.984   7.080  -0.235  0.00  0.00    -0.326 OA
HETATM   43  C   UNK N   1       8.251   7.994  -1.229  0.00  0.00     0.213 C 
ENDBRANCH  40  42
ENDBRANCH  13  40
BRANCH  17  44
HETATM   44  O   UNK N   1       4.200   6.122   0.691  0.00  0.00    -0.359 OA
HETATM   45  H   UNK N   1       4.948   6.660   0.862  0.00  0.00     0.217 HD
ENDBRANCH  17  44
BRANCH   6  46
HETATM   46  O   UNK N   1      -0.357   0.124  -0.054  0.00  0.00    -0.355 OA
HETATM   47  C   UNK N   1       0.482  -0.650   0.718  0.00  0.00     0.210 C 
ENDBRANCH   6  46
TORSDOF 11
