REMARK  5 active torsions:
REMARK  status: ('A' for Active; 'I' for Inactive)
REMARK    1  A    between atoms: O_1  and  C_2 
REMARK    2  A    between atoms: C_3  and  C_2 
REMARK    3  A    between atoms: C_5  and  O_6 
REMARK    4  A    between atoms: C_7  and  O_8 
REMARK    5  A    between atoms: C_9  and  O_10 
ROOT
HETATM    1  C   UNK N   1      -0.533   0.269  -0.284  0.00  0.00     0.179 C 
HETATM    2  O   UNK N   1       0.547   1.133   0.000  0.00  0.00    -0.349 OA
HETATM    3  C   UNK N   1       1.648   0.296   0.277  0.00  0.00     0.288 C 
HETATM    4  C   UNK N   1       1.291  -1.094  -0.183  0.00  0.00     0.204 C 
HETATM    5  C   UNK N   1      -0.143  -1.111   0.195  0.00  0.00     0.182 C 
ENDROOT
BRANCH   1   6
HETATM    6  C   UNK N   1      -1.798   0.757   0.402  0.00  0.00     0.198 C 
BRANCH   6   7
HETATM    7  O   UNK N   1      -2.898   0.009  -0.019  0.00  0.00    -0.398 OA
HETATM    8  H   UNK N   1      -3.731   0.411  -0.311  0.00  0.00     0.209 HD
ENDBRANCH   6   7
ENDBRANCH   1   6
BRANCH   5   9
HETATM    9  O   UNK N   1      -0.834  -2.108  -0.494  0.00  0.00    -0.390 OA
HETATM   10  H   UNK N   1      -1.675  -2.038  -0.973  0.00  0.00     0.210 HD
ENDBRANCH   5   9
BRANCH   3  11
HETATM   11  O   UNK N   1       2.780   0.742  -0.405  0.00  0.00    -0.369 OA
HETATM   12  H   UNK N   1       3.443   0.215  -0.879  0.00  0.00     0.212 HD
ENDBRANCH   3  11
BRANCH   4  13
HETATM   13  O   UNK N   1       2.017  -2.062   0.510  0.00  0.00    -0.388 OA
HETATM   14  H   UNK N   1       1.686  -2.835   0.993  0.00  0.00     0.210 HD
ENDBRANCH   4  13
TORSDOF 5
