REMARK  12 active torsions:
REMARK  status: ('A' for Active; 'I' for Inactive)
REMARK    1  A    between atoms: C_2  and  C_1 
REMARK    2  A    between atoms: O_14  and  C_1 
REMARK    3  A    between atoms: C_3  and  C_2 
REMARK    4  A    between atoms: C_2  and  O_6 
REMARK    5  A    between atoms: C_4  and  C_3 
REMARK    6  A    between atoms: C_3  and  O_7 
REMARK    7  A    between atoms: C_5  and  C_4 
REMARK    8  A    between atoms: C_4  and  O_8 
REMARK    9  A    between atoms: O_10  and  C_5 
REMARK   10  A    between atoms: P_15  and  O_11 
REMARK   11  A    between atoms: P_15  and  O_12 
REMARK   12  A    between atoms: P_15  and  O_14 
ROOT
HETATM    1  C   UNK N   1       0.137   1.332  -0.413  0.00  0.00     0.174 C 
ENDROOT
BRANCH   1   2
HETATM    2  C   UNK N   1      -0.490   0.871   0.909  0.00  0.00     0.215 C 
BRANCH   2   3
HETATM    3  O   UNK N   1      -1.735   1.479   1.142  0.00  0.00    -0.294 OA
BRANCH   3   4
HETATM    4  P   UNK N   1      -2.953   0.622   0.217  0.00  0.00     0.390 P 
HETATM    5  O   UNK N   1      -2.398  -0.757  -0.239  0.00  0.00    -0.632 OA
BRANCH   4   6
HETATM    6  O   UNK N   1      -4.375   0.302   1.158  0.00  0.00    -0.307 OA
HETATM    7  H   UNK N   1      -4.927   0.902   1.685  0.00  0.00     0.222 HD
ENDBRANCH   4   6
BRANCH   4   8
HETATM    8  O   UNK N   1      -3.359   1.507  -1.219  0.00  0.00    -0.307 OA
HETATM    9  H   UNK N   1      -3.044   1.951  -2.022  0.00  0.00     0.222 HD
ENDBRANCH   4   8
ENDBRANCH   3   4
ENDBRANCH   2   3
ENDBRANCH   1   2
BRANCH   1  10
HETATM   10  C   UNK N   1       1.512   0.673  -0.656  0.00  0.00     0.188 C 
BRANCH  10  11
HETATM   11  C   UNK N   1       2.602   1.088   0.362  0.00  0.00     0.246 C 
BRANCH  11  12
HETATM   12  C   UNK N   1       3.916   0.406   0.055  0.00  0.00     0.172 C 
HETATM   13  O   UNK N   1       4.907   1.065  -0.221  0.00  0.00    -0.648 OA
BRANCH  12  14
HETATM   14  O   UNK N   1       4.006  -0.937   0.096  0.00  0.00    -0.774 OA
HETATM   15  H   UNK N   1       3.228  -1.459   0.124  0.00  0.00     0.167 HD
ENDBRANCH  12  14
ENDBRANCH  11  12
BRANCH  11  16
HETATM   16  O   UNK N   1       2.782   2.475   0.327  0.00  0.00    -0.382 OA
HETATM   17  H   UNK N   1       3.677   2.847   0.302  0.00  0.00     0.210 HD
ENDBRANCH  11  16
ENDBRANCH  10  11
BRANCH  10  18
HETATM   18  O   UNK N   1       1.348  -0.716  -0.642  0.00  0.00    -0.390 OA
HETATM   19  H   UNK N   1       0.457  -1.100  -0.632  0.00  0.00     0.210 HD
ENDBRANCH  10  18
ENDBRANCH   1  10
BRANCH   1  20
HETATM   20  O   UNK N   1       0.236   2.725  -0.442  0.00  0.00    -0.391 OA
HETATM   21  H   UNK N   1       1.108   3.149  -0.461  0.00  0.00     0.210 HD
ENDBRANCH   1  20
TORSDOF 12
