REMARK  5 active torsions:
REMARK  status: ('A' for Active; 'I' for Inactive)
REMARK    1  A    between atoms: C_3  and  C_1 
REMARK    2  A    between atoms: O_19  and  C_1 
REMARK    3  A    between atoms: O_20  and  C_8 
REMARK    4  A    between atoms: C_9  and  N_18 
REMARK       I    between atoms: N_11  and  C_10 
REMARK    5  A    between atoms: P_25  and  O_21 
ROOT
HETATM    1  C   UNK N   1      -0.879   0.138   0.070  0.00  0.00     0.188 A 
HETATM    2  C   UNK N   1       1.186   0.706   0.049  0.00  0.00     0.130 A 
HETATM    3  C   UNK N   1       1.109  -0.618  -0.176  0.00  0.00     0.157 A 
HETATM    4  C   UNK N   1       2.422   1.336   0.059  0.00  0.00     0.186 A 
HETATM    5  C   UNK N   1       3.430  -0.784  -0.376  0.00  0.00     0.679 A 
HETATM    6  N   UNK N   1       4.484  -1.480  -0.567  0.00  0.00    -0.234 N 
ATOM      7  HN  UNK N   1       5.396  -1.025  -0.567  1.00  0.00     0.174 HD
HETATM    8  N   UNK N   1      -0.050   1.213   0.214  0.00  0.00    -0.346 N 
ATOM      9  HN  UNK N   1      -0.308   2.182   0.404  1.00  0.00     0.167 HD
HETATM   10  N   UNK N   1       2.202  -1.387  -0.396  0.00  0.00    -0.174 N 
HETATM   11  N   UNK N   1       3.534   0.569  -0.152  0.00  0.00    -0.168 N 
ATOM     12  HN  UNK N   1       4.455   1.008  -0.144  1.00  0.00     0.186 HD
HETATM   13  N   UNK N   1      -0.174  -1.002  -0.158  0.00  0.00    -0.297 N 
HETATM   14  H   UNK N   1       4.424  -2.452  -0.714  0.00  0.00     0.174 HD
HETATM   15  H   UNK N   1       2.116  -2.353  -0.565  0.00  0.00     0.186 HD
ENDROOT
BRANCH  13  16
HETATM   16  C   UNK N   1      -0.686  -2.336  -0.478  0.00  0.00     0.263 C 
HETATM   17  C   UNK N   1      -2.010  -2.675   0.194  0.00  0.00     0.213 C 
HETATM   18  C   UNK N   1      -1.993  -4.085  -0.084  0.00  0.00     0.196 C 
HETATM   19  O   UNK N   1      -3.205  -2.223  -0.341  0.00  0.00    -0.301 OA
HETATM   20  C   UNK N   1      -0.613  -4.412   0.451  0.00  0.00     0.180 C 
HETATM   21  O   UNK N   1      -3.127  -4.542   0.540  0.00  0.00    -0.303 OA
HETATM   22  O   UNK N   1       0.208  -3.351  -0.025  0.00  0.00    -0.353 OA
HETATM   23  P   UNK N   1      -4.410  -3.547  -0.187  0.00  0.00     0.327 P 
HETATM   24  S   UNK N   1      -4.979  -3.874   1.457  0.00  0.00    -0.007 SA
BRANCH  20  25
HETATM   25  C   UNK N   1      -0.131  -5.755  -0.081  0.00  0.00     0.198 C 
BRANCH  25  26
HETATM   26  O   UNK N   1       1.209  -5.954   0.258  0.00  0.00    -0.398 OA
HETATM   27  H   UNK N   1       1.554  -6.829   0.494  0.00  0.00     0.209 HD
ENDBRANCH  25  26
ENDBRANCH  20  25
BRANCH  23  28
HETATM   28  O   UNK N   1      -4.943  -2.111   0.630  0.00  0.00    -0.324 OA
HETATM   29  H   UNK N   1      -4.397  -1.452   1.087  0.00  0.00     0.220 HD
ENDBRANCH  23  28
ENDBRANCH  13  16
BRANCH   4  30
HETATM   30  O   UNK N   1       2.530   2.659   0.261  0.00  0.00    -0.344 OA
HETATM   31  H   UNK N   1       3.367   3.055   0.402  0.00  0.00     0.219 HD
ENDBRANCH   4  30
TORSDOF 5
