REMARK  0 active torsions:
REMARK  status: ('A' for Active; 'I' for Inactive)
ROOT
HETATM    1  C   UNK N   1       0.825  -1.451   0.000  0.00  0.00     0.271 C 
HETATM    2  N   UNK N   1       0.825  -0.000   0.000  0.00  0.00    -0.082 N 
HETATM    3  C   UNK N   1       0.825   1.451   0.000  0.00  0.00     0.271 C 
HETATM    4  C   UNK N   1       2.276   0.000   0.000  0.00  0.00     0.271 C 
HETATM    5  C   UNK N   1      -0.626   0.000   0.000  0.00  0.00     0.271 C 
ENDROOT
TORSDOF 0
