REMARK  27 active torsions:
REMARK  status: ('A' for Active; 'I' for Inactive)
REMARK    1  A    between atoms: C_2  and  N_1 
REMARK    2  A    between atoms: C_2  and  C_3 
REMARK    3  A    between atoms: C_2  and  C_17 
REMARK    4  A    between atoms: C_3  and  C_4 
REMARK    5  A    between atoms: C_4  and  C_5 
REMARK       I    between atoms: C_5  and  N_7 
REMARK    6  A    between atoms: N_7  and  C_8 
REMARK    7  A    between atoms: C_8  and  C_9 
REMARK    8  A    between atoms: C_8  and  C_10 
REMARK    9  A    between atoms: C_9  and  S_40 
REMARK       I    between atoms: C_10  and  N_12 
REMARK   10  A    between atoms: N_12  and  C_13 
REMARK   11  A    between atoms: C_13  and  C_14 
REMARK   12  A    between atoms: C_14  and  O_16 
REMARK   13  A    between atoms: C_17  and  O_19 
REMARK   14  A    between atoms: C_21  and  N_20 
REMARK   15  A    between atoms: C_21  and  C_22 
REMARK   16  A    between atoms: C_21  and  C_37 
REMARK   17  A    between atoms: C_22  and  C_23 
REMARK   18  A    between atoms: C_23  and  C_24 
REMARK       I    between atoms: C_24  and  N_26 
REMARK   19  A    between atoms: N_26  and  C_27 
REMARK   20  A    between atoms: C_27  and  C_28 
REMARK   21  A    between atoms: C_27  and  C_30 
REMARK   22  A    between atoms: C_28  and  S_29 
REMARK   23  A    between atoms: S_40  and  S_29 
REMARK       I    between atoms: C_30  and  N_32 
REMARK   24  A    between atoms: N_32  and  C_33 
REMARK   25  A    between atoms: C_33  and  C_34 
REMARK   26  A    between atoms: C_34  and  O_36 
REMARK   27  A    between atoms: C_37  and  O_39 
ROOT
HETATM    1  S   UNK N   1       2.472   1.900   1.801  0.00  0.00    -0.095 SA
ENDROOT
BRANCH   1   2
HETATM    2  C   UNK N   1       2.194   3.674   1.522  0.00  0.00     0.120 C 
BRANCH   2   3
HETATM    3  C   UNK N   1       1.809   3.970   0.074  0.00  0.00     0.186 C 
BRANCH   3   4
HETATM    4  N   UNK N   1       2.780   3.575  -0.934  0.00  0.00    -0.347 N 
HETATM    5  C   UNK N   1       4.136   3.639  -0.846  0.00  0.00     0.218 C 
HETATM    6  O   UNK N   1       4.804   3.204  -1.771  0.00  0.00    -0.274 OA
HETATM    7  H   UNK N   1       2.414   3.219  -1.776  0.00  0.00     0.163 HD
BRANCH   5   8
HETATM    8  C   UNK N   1       4.839   4.177   0.366  0.00  0.00     0.105 C 
BRANCH   8   9
HETATM    9  C   UNK N   1       5.934   5.155  -0.036  0.00  0.00     0.044 C 
BRANCH   9  10
HETATM   10  C   UNK N   1       7.270   4.789   0.610  0.00  0.00     0.173 C 
BRANCH  10  11
HETATM   11  N   UNK N   1       8.225   5.851   0.342  0.00  0.00    -0.418 N 
HETATM   12  H   UNK N   1       9.206   5.644   0.154  0.00  0.00     0.150 HD
HETATM   13  H   UNK N   1       7.909   6.821   0.342  0.00  0.00     0.150 HD
ENDBRANCH  10  11
BRANCH  10  14
HETATM   14  C   UNK N   1       7.807   3.465   0.117  0.00  0.00     0.163 C 
HETATM   15  O   UNK N   1       7.181   2.437   0.321  0.00  0.00    -0.648 OA
BRANCH  14  16
HETATM   16  O   UNK N   1       8.992   3.402  -0.523  0.00  0.00    -0.775 OA
HETATM   17  H   UNK N   1       9.365   2.667  -0.968  0.00  0.00     0.167 HD
ENDBRANCH  14  16
ENDBRANCH  10  14
ENDBRANCH   9  10
ENDBRANCH   8   9
ENDBRANCH   5   8
ENDBRANCH   3   4
BRANCH   3  18
HETATM   18  C   UNK N   1       1.309   5.373  -0.116  0.00  0.00     0.241 C 
HETATM   19  O   UNK N   1       2.037   6.319   0.141  0.00  0.00    -0.271 OA
HETATM   20  N   UNK N   1       0.046   5.601  -0.553  0.00  0.00    -0.349 N 
HETATM   21  H   UNK N   1      -0.281   6.528  -0.609  0.00  0.00     0.163 HD
BRANCH  20  22
HETATM   22  C   UNK N   1      -0.835   4.521  -0.939  0.00  0.00     0.232 C 
BRANCH  22  23
HETATM   23  C   UNK N   1      -1.998   4.423  -0.010  0.00  0.00     0.158 C 
HETATM   24  O   UNK N   1      -2.194   3.391   0.608  0.00  0.00    -0.649 OA
BRANCH  23  25
HETATM   25  O   UNK N   1      -2.849   5.458   0.124  0.00  0.00    -0.775 OA
HETATM   26  H   UNK N   1      -2.521   6.331   0.218  0.00  0.00     0.167 HD
ENDBRANCH  23  25
ENDBRANCH  22  23
ENDBRANCH  20  22
ENDBRANCH   3  18
ENDBRANCH   2   3
ENDBRANCH   1   2
BRANCH   1  27
HETATM   27  S   UNK N   1       0.385   1.482   1.801  0.00  0.00    -0.095 SA
BRANCH  27  28
HETATM   28  C   UNK N   1       0.664  -0.291   1.522  0.00  0.00     0.120 C 
BRANCH  28  29
HETATM   29  C   UNK N   1       1.049  -0.587   0.074  0.00  0.00     0.186 C 
BRANCH  29  30
HETATM   30  N   UNK N   1       0.077  -0.192  -0.934  0.00  0.00    -0.347 N 
HETATM   31  C   UNK N   1      -1.278  -0.256  -0.846  0.00  0.00     0.218 C 
HETATM   32  O   UNK N   1      -1.946   0.178  -1.771  0.00  0.00    -0.274 OA
HETATM   33  H   UNK N   1       0.443   0.163  -1.776  0.00  0.00     0.163 HD
BRANCH  31  34
HETATM   34  C   UNK N   1      -1.981  -0.795   0.366  0.00  0.00     0.105 C 
BRANCH  34  35
HETATM   35  C   UNK N   1      -3.076  -1.772  -0.036  0.00  0.00     0.044 C 
BRANCH  35  36
HETATM   36  C   UNK N   1      -4.412  -1.406   0.610  0.00  0.00     0.173 C 
BRANCH  36  37
HETATM   37  N   UNK N   1      -5.367  -2.469   0.342  0.00  0.00    -0.418 N 
HETATM   38  H   UNK N   1      -6.348  -2.261   0.154  0.00  0.00     0.150 HD
HETATM   39  H   UNK N   1      -5.051  -3.438   0.342  0.00  0.00     0.150 HD
ENDBRANCH  36  37
BRANCH  36  40
HETATM   40  C   UNK N   1      -4.949  -0.083   0.117  0.00  0.00     0.163 C 
HETATM   41  O   UNK N   1      -4.324   0.945   0.321  0.00  0.00    -0.648 OA
BRANCH  40  42
HETATM   42  O   UNK N   1      -6.134  -0.019  -0.523  0.00  0.00    -0.775 OA
HETATM   43  H   UNK N   1      -6.507   0.716  -0.968  0.00  0.00     0.167 HD
ENDBRANCH  40  42
ENDBRANCH  36  40
ENDBRANCH  35  36
ENDBRANCH  34  35
ENDBRANCH  31  34
ENDBRANCH  29  30
BRANCH  29  44
HETATM   44  C   UNK N   1       1.549  -1.990  -0.116  0.00  0.00     0.241 C 
HETATM   45  O   UNK N   1       0.821  -2.937   0.141  0.00  0.00    -0.271 OA
HETATM   46  N   UNK N   1       2.812  -2.218  -0.553  0.00  0.00    -0.349 N 
HETATM   47  H   UNK N   1       3.139  -3.145  -0.609  0.00  0.00     0.163 HD
BRANCH  46  48
HETATM   48  C   UNK N   1       3.693  -1.138  -0.939  0.00  0.00     0.232 C 
BRANCH  48  49
HETATM   49  C   UNK N   1       4.856  -1.041  -0.010  0.00  0.00     0.158 C 
HETATM   50  O   UNK N   1       5.052  -0.008   0.608  0.00  0.00    -0.649 OA
BRANCH  49  51
HETATM   51  O   UNK N   1       5.706  -2.076   0.124  0.00  0.00    -0.775 OA
HETATM   52  H   UNK N   1       5.378  -2.948   0.218  0.00  0.00     0.167 HD
ENDBRANCH  49  51
ENDBRANCH  48  49
ENDBRANCH  46  48
ENDBRANCH  29  44
ENDBRANCH  28  29
ENDBRANCH  27  28
ENDBRANCH   1  27
TORSDOF 27
