REMARK  3 active torsions:
REMARK  status: ('A' for Active; 'I' for Inactive)
REMARK    1  A    between atoms: C_6  and  N_7 
REMARK    2  A    between atoms: C_21  and  C_22 
REMARK    3  A    between atoms: C_22  and  O_23 
ROOT
HETATM    1  C   UNK N   1      -3.898   2.064   0.001  0.00  0.00     0.035 C 
HETATM    2  C   UNK N   1      -2.588   1.289  -0.004  0.00  0.00     0.110 A 
HETATM    3  C   UNK N   1      -2.589  -0.230  -0.008  0.00  0.00     0.201 A 
HETATM    4  O   UNK N   1      -1.323  -0.784  -0.012  0.00  0.00    -0.344 OA
HETATM    5  C   UNK N   1      -0.140  -0.118  -0.007  0.00  0.00     0.126 A 
HETATM    6  C   UNK N   1       1.097  -0.845  -0.005  0.00  0.00     0.105 A 
HETATM    7  C   UNK N   1       2.309  -0.098  -0.009  0.00  0.00     0.146 A 
HETATM    8  F   UNK N   1       3.527  -0.693  -0.016  0.00  0.00    -0.204 F 
HETATM    9  C   UNK N   1       2.291   1.287  -0.007  0.00  0.00     0.062 A 
HETATM   10  C   UNK N   1       1.094   1.992  -0.003  0.00  0.00     0.048 A 
HETATM   11  C   UNK N   1      -0.132   1.297  -0.004  0.00  0.00     0.085 A 
HETATM   12  N   UNK N   1      -1.309   1.999  -0.003  0.00  0.00    -0.346 N 
HETATM   13  C   UNK N   1      -1.307   3.363  -0.000  0.00  0.00     0.114 A 
HETATM   14  C   UNK N   1      -0.115   4.093   0.001  0.00  0.00     0.104 A 
HETATM   15  C   UNK N   1       1.104   3.393   0.000  0.00  0.00     0.202 A 
HETATM   16  O   UNK N   1       2.166   3.995   0.001  0.00  0.00    -0.286 OA
ENDROOT
BRANCH   6  17
HETATM   17  N   UNK N   1       1.128  -2.296   0.002  0.00  0.00    -0.373 N 
HETATM   18  C   UNK N   1       2.406  -2.988   0.144  0.00  0.00     0.153 C 
HETATM   19  C   UNK N   1       2.350  -4.447  -0.286  0.00  0.00     0.291 C 
HETATM   20  N   UNK N   1       1.214  -5.091   0.347  0.00  0.00     0.087 N 
HETATM   21  C   UNK N   1       1.257  -6.494  -0.014  0.00  0.00     0.310 C 
HETATM   22  C   UNK N   1       0.031  -4.519  -0.271  0.00  0.00     0.291 C 
HETATM   23  C   UNK N   1      -0.108  -3.060   0.149  0.00  0.00     0.153 C 
ENDBRANCH   6  17
BRANCH  14  24
HETATM   24  C   UNK N   1      -0.182   5.576   0.002  0.00  0.00     0.181 C 
HETATM   25  O   UNK N   1       0.837   6.249   0.001  0.00  0.00    -0.646 OA
BRANCH  24  26
HETATM   26  O   UNK N   1      -1.379   6.194   0.001  0.00  0.00    -0.772 OA
HETATM   27  H   UNK N   1      -1.423   7.130   0.000  0.00  0.00     0.167 HD
ENDBRANCH  24  26
ENDBRANCH  14  24
TORSDOF 3
