REMARK  5 active torsions:
REMARK  status: ('A' for Active; 'I' for Inactive)
REMARK    1  A    between atoms: C_2  and  N_1 
REMARK    2  A    between atoms: C_2  and  C_3 
REMARK    3  A    between atoms: C_2  and  C_13 
REMARK    4  A    between atoms: C_3  and  C_4 
REMARK    5  A    between atoms: C_13  and  O_14 
ROOT
HETATM    1  C   UNK N   1       0.726  -0.995  -0.197  0.00  0.00    -0.028 A 
HETATM    2  C   UNK N   1      -0.098   0.092   0.077  0.00  0.00     0.096 A 
HETATM    3  N   UNK N   1       0.661   1.205   0.249  0.00  0.00    -0.365 N 
HETATM    4  C   UNK N   1       1.940   0.817   0.076  0.00  0.00     0.042 A 
HETATM    5  C   UNK N   1       3.077   1.616   0.145  0.00  0.00     0.030 A 
HETATM    6  C   UNK N   1       4.324   1.002  -0.080  0.00  0.00     0.002 A 
HETATM    7  C   UNK N   1       4.399  -0.378  -0.373  0.00  0.00     0.001 A 
HETATM    8  C   UNK N   1       3.229  -1.153  -0.440  0.00  0.00     0.014 A 
HETATM    9  C   UNK N   1       2.012  -0.516  -0.201  0.00  0.00    -0.002 A 
HETATM   10  H   UNK N   1       0.341   2.113   0.458  0.00  0.00     0.165 HD
ENDROOT
BRANCH   1  11
HETATM   11  C   UNK N   1       0.287  -2.397  -0.490  0.00  0.00     0.076 C 
BRANCH  11  12
HETATM   12  C   UNK N   1       0.610  -3.429   0.600  0.00  0.00     0.177 C 
BRANCH  12  13
HETATM   13  N   UNK N   1       1.911  -3.196   1.209  0.00  0.00    -0.417 N 
HETATM   14  H   UNK N   1       2.508  -3.904   1.636  0.00  0.00     0.150 HD
HETATM   15  H   UNK N   1       2.257  -2.237   1.209  0.00  0.00     0.150 HD
ENDBRANCH  12  13
BRANCH  12  16
HETATM   16  C   UNK N   1       0.572  -4.798  -0.017  0.00  0.00     0.163 C 
HETATM   17  O   UNK N   1      -0.468  -5.224  -0.491  0.00  0.00    -0.648 OA
BRANCH  16  18
HETATM   18  O   UNK N   1       1.686  -5.556  -0.068  0.00  0.00    -0.775 OA
HETATM   19  H   UNK N   1       1.617  -6.490  -0.104  0.00  0.00     0.167 HD
ENDBRANCH  16  18
ENDBRANCH  12  16
ENDBRANCH  11  12
ENDBRANCH   1  11
TORSDOF 5
