REMARK  2 active torsions:
REMARK  status: ('A' for Active; 'I' for Inactive)
REMARK    1  A    between atoms: C_1  and  C_4 
REMARK    2  A    between atoms: C_4  and  O_7 
ROOT
HETATM    1  C   UNK N   1      14.472 -10.001  -0.000  0.00  0.00     0.182 A 
HETATM    2  N   UNK N   1      13.266 -10.754  -0.000  0.00  0.00    -0.347 N 
HETATM    3  C   UNK N   1      14.141  -8.510   0.000  0.00  0.00     0.045 A 
HETATM    4  C   UNK N   1      12.227  -9.922   0.000  0.00  0.00     0.218 A 
HETATM    5  C   UNK N   1      12.596  -8.475   0.000  0.00  0.00     0.105 A 
HETATM    6  O   UNK N   1      11.075 -10.323   0.000  0.00  0.00    -0.274 OA
HETATM    7  H   UNK N   1      13.209 -11.737  -0.000  0.00  0.00     0.163 HD
ENDROOT
BRANCH   1   8
HETATM    8  C   UNK N   1      15.805 -10.675   0.000  0.00  0.00     0.163 C 
HETATM    9  O   UNK N   1      16.827 -10.009   0.000  0.00  0.00    -0.648 OA
BRANCH   8  10
HETATM   10  O   UNK N   1      15.882 -12.019  -0.000  0.00  0.00    -0.775 OA
HETATM   11  H   UNK N   1      15.098 -12.533  -0.000  0.00  0.00     0.167 HD
ENDBRANCH   8  10
ENDBRANCH   1   8
TORSDOF 2
