REMARK  3 active torsions:
REMARK  status: ('A' for Active; 'I' for Inactive)
REMARK    1  A    between atoms: N_1  and  C_2 
REMARK    2  A    between atoms: C_7  and  C_8 
REMARK    3  A    between atoms: C_8  and  O_9 
ROOT
HETATM    1  C   UNK N   1       1.760   0.678  -0.000  0.00  0.00     0.034 A 
HETATM    2  C   UNK N   1       1.628  -0.715   0.000  0.00  0.00     0.029 A 
HETATM    3  C   UNK N   1       0.360  -1.302   0.000  0.00  0.00     0.002 A 
HETATM    4  C   UNK N   1      -0.782  -0.500   0.000  0.00  0.00     0.001 A 
HETATM    5  C   UNK N   1      -0.657   0.890  -0.000  0.00  0.00     0.011 A 
HETATM    6  C   UNK N   1       0.611   1.493  -0.000  0.00  0.00    -0.009 A 
ENDROOT
BRANCH   1   7
HETATM    7  N   UNK N   1       3.051   1.249  -0.000  0.00  0.00    -0.399 N 
HETATM    8  H   UNK N   1       3.846   0.669  -0.000  0.00  0.00     0.156 HD
HETATM    9  H   UNK N   1       3.156   2.228  -0.000  0.00  0.00     0.156 HD
ENDBRANCH   1   7
BRANCH   6  10
HETATM   10  C   UNK N   1       0.736   2.990  -0.000  0.00  0.00     0.205 C 
BRANCH  10  11
HETATM   11  O   UNK N   1      -0.517   3.610  -0.000  0.00  0.00    -0.396 OA
HETATM   12  H   UNK N   1      -0.579   4.578  -0.000  0.00  0.00     0.209 HD
ENDBRANCH  10  11
ENDBRANCH   6  10
TORSDOF 3
