REMARK  14 active torsions:
REMARK  status: ('A' for Active; 'I' for Inactive)
REMARK    1  A    between atoms: C_10  and  C_5 
REMARK    2  A    between atoms: O_33  and  C_5 
REMARK    3  A    between atoms: C_11  and  C_6 
REMARK    4  A    between atoms: O_39  and  C_6 
REMARK    5  A    between atoms: C_8  and  O_34 
REMARK    6  A    between atoms: O_42  and  C_9 
REMARK    7  A    between atoms: N_20  and  C_12 
REMARK    8  A    between atoms: C_13  and  N_32 
REMARK    9  A    between atoms: N_31  and  C_14 
REMARK   10  A    between atoms: O_35  and  C_17 
REMARK   11  A    between atoms: O_36  and  C_19 
REMARK   12  A    between atoms: P_43  and  O_37 
REMARK   13  A    between atoms: P_43  and  O_39 
REMARK   14  A    between atoms: P_43  and  O_42 
ROOT
HETATM    1  O   UNK N   1       0.924  -4.299  -0.435  0.00  0.00    -0.294 OA
ENDROOT
BRANCH   1   2
HETATM    2  C   UNK N   1      -0.430  -4.185  -0.830  0.00  0.00     0.215 C 
BRANCH   2   3
HETATM    3  C   UNK N   1      -0.948  -2.804  -0.536  0.00  0.00     0.177 C 
HETATM    4  C   UNK N   1      -2.445  -2.715  -0.504  0.00  0.00     0.153 C 
HETATM    5  C   UNK N   1      -2.583  -1.327   0.057  0.00  0.00     0.088 C 
HETATM    6  C   UNK N   1      -1.327  -1.208   0.936  0.00  0.00     0.233 C 
HETATM    7  O   UNK N   1      -0.575  -2.385   0.749  0.00  0.00    -0.356 OA
BRANCH   4   8
HETATM    8  O   UNK N   1      -3.027  -2.843  -1.765  0.00  0.00    -0.393 OA
HETATM    9  H   UNK N   1      -3.306  -2.538  -2.642  0.00  0.00     0.210 HD
ENDBRANCH   4   8
BRANCH   6  10
HETATM   10  N   UNK N   1      -0.511  -0.054   0.537  0.00  0.00    -0.299 N 
HETATM   11  C   UNK N   1      -0.914   1.239   0.439  0.00  0.00     0.188 A 
HETATM   12  N   UNK N   1       0.104   2.044   0.019  0.00  0.00    -0.346 N 
HETATM   13  C   UNK N   1       1.153   1.211  -0.129  0.00  0.00     0.130 A 
ATOM     14  HN  UNK N   1       0.078   3.050  -0.147  1.00  0.00     0.167 HD
HETATM   15  C   UNK N   1       0.785  -0.042   0.184  0.00  0.00     0.157 A 
HETATM   16  C   UNK N   1       2.453   1.474  -0.528  0.00  0.00     0.186 A 
HETATM   17  N   UNK N   1       1.652  -1.087   0.139  0.00  0.00    -0.174 N 
HETATM   18  C   UNK N   1       2.941  -0.843  -0.245  0.00  0.00     0.679 A 
HETATM   19  H   UNK N   1       1.359  -1.996   0.376  0.00  0.00     0.186 HD
HETATM   20  N   UNK N   1       3.783  -1.805  -0.288  0.00  0.00    -0.234 N 
HETATM   21  N   UNK N   1       3.335   0.429  -0.578  0.00  0.00    -0.168 N 
HETATM   22  H   UNK N   1       3.467  -2.736  -0.322  0.00  0.00     0.174 HD
ATOM     23  HN  UNK N   1       4.784  -1.606  -0.288  1.00  0.00     0.174 HD
ATOM     24  HN  UNK N   1       4.299   0.597  -0.868  1.00  0.00     0.186 HD
BRANCH  16  25
HETATM   25  O   UNK N   1       2.846   2.716  -0.854  0.00  0.00    -0.344 OA
HETATM   26  H   UNK N   1       3.733   2.912  -1.082  0.00  0.00     0.219 HD
ENDBRANCH  16  25
ENDBRANCH   6  10
ENDBRANCH   2   3
ENDBRANCH   1   2
BRANCH   1  27
HETATM   27  P   UNK N   1       1.204  -5.170   1.108  0.00  0.00     0.393 P 
HETATM   28  O   UNK N   1      -0.294  -5.035   1.478  0.00  0.00    -0.631 OA
BRANCH  27  29
HETATM   29  O   UNK N   1       1.517  -6.109  -0.323  0.00  0.00    -0.307 OA
HETATM   30  H   UNK N   1       1.150  -6.522  -1.120  0.00  0.00     0.222 HD
ENDBRANCH  27  29
BRANCH  27  31
HETATM   31  O   UNK N   1       0.920  -6.908   1.432  0.00  0.00    -0.289 OA
BRANCH  31  32
HETATM   32  C   UNK N   1      -0.174  -7.693   0.899  0.00  0.00     0.169 C 
HETATM   33  C   UNK N   1       0.425  -8.792   0.089  0.00  0.00     0.089 C 
HETATM   34  C   UNK N   1      -0.714  -9.255  -0.806  0.00  0.00     0.234 C 
HETATM   35  O   UNK N   1      -1.723  -8.271  -0.796  0.00  0.00    -0.356 OA
HETATM   36  C   UNK N   1      -1.203  -7.160  -0.118  0.00  0.00     0.177 C 
BRANCH  34  37
HETATM   37  N   UNK N   1      -1.218 -10.572  -0.370  0.00  0.00    -0.296 N 
HETATM   38  C   UNK N   1      -0.310 -11.588  -0.294  0.00  0.00     0.101 A 
HETATM   39  C   UNK N   1      -0.694 -12.863   0.101  0.00  0.00     0.065 A 
HETATM   40  C   UNK N   1      -2.028 -13.087   0.407  0.00  0.00     0.102 A 
HETATM   41  N   UNK N   1      -2.922 -12.073   0.315  0.00  0.00    -0.308 N 
HETATM   42  C   UNK N   1      -2.540 -10.827  -0.066  0.00  0.00     0.227 A 
ATOM     43  HN  UNK N   1      -3.902 -12.250   0.537  1.00  0.00     0.171 HD
BRANCH  40  44
HETATM   44  N   UNK N   1      -2.415 -14.249   0.768  0.00  0.00    -0.385 N 
HETATM   45  H   UNK N   1      -3.340 -14.439   1.047  0.00  0.00     0.157 HD
ATOM     46  HN  UNK N   1      -1.738 -15.012   0.768  1.00  0.00     0.157 HD
ENDBRANCH  40  44
BRANCH  42  47
HETATM   47  O   UNK N   1      -3.479  -9.867  -0.151  0.00  0.00    -0.332 OA
HETATM   48  H   UNK N   1      -3.227  -8.966  -0.210  0.00  0.00     0.221 HD
ENDBRANCH  42  47
ENDBRANCH  34  37
BRANCH  36  49
HETATM   49  C   UNK N   1      -2.364  -6.431   0.559  0.00  0.00     0.198 C 
BRANCH  49  50
HETATM   50  O   UNK N   1      -3.318  -6.050  -0.387  0.00  0.00    -0.398 OA
HETATM   51  H   UNK N   1      -3.421  -5.344  -1.043  0.00  0.00     0.209 HD
ENDBRANCH  49  50
ENDBRANCH  36  49
ENDBRANCH  31  32
ENDBRANCH  27  31
ENDBRANCH   1  27
TORSDOF 14
