REMARK  24 active torsions:
REMARK  status: ('A' for Active; 'I' for Inactive)
REMARK    1  A    between atoms: C_4  and  C_5 
REMARK    2  A    between atoms: C_5  and  C_6 
REMARK    3  A    between atoms: C_6  and  C_7 
REMARK    4  A    between atoms: C_9  and  C_10 
REMARK    5  A    between atoms: C_10  and  C_11 
REMARK    6  A    between atoms: C_11  and  C_12 
REMARK    7  A    between atoms: C_14  and  C_15 
REMARK    8  A    between atoms: C_15  and  C_16 
REMARK    9  A    between atoms: C_16  and  C_17 
REMARK   10  A    between atoms: C_19  and  C_20 
REMARK   11  A    between atoms: C_20  and  C_21 
REMARK   12  A    between atoms: C_21  and  C_22 
REMARK   13  A    between atoms: C_24  and  C_25 
REMARK   14  A    between atoms: C_25  and  C_26 
REMARK   15  A    between atoms: C_26  and  C_27 
REMARK   16  A    between atoms: C_29  and  C_30 
REMARK   17  A    between atoms: C_30  and  C_31 
REMARK   18  A    between atoms: C_31  and  C_32 
REMARK   19  A    between atoms: C_34  and  C_35 
REMARK   20  A    between atoms: C_35  and  C_36 
REMARK   21  A    between atoms: C_36  and  C_37 
REMARK   22  A    between atoms: C_39  and  C_40 
REMARK   23  A    between atoms: C_40  and  C_41 
REMARK   24  A    between atoms: C_46  and  O_47 
ROOT
HETATM    1  C   UNK N   1       7.366   8.892   1.043  0.00  0.00    -0.087 C 
HETATM    2  C   UNK N   1       8.654   8.163   1.199  0.00  0.00     0.043 C 
HETATM    3  C   UNK N   1       6.284   8.430   1.689  0.00  0.00    -0.024 C 
ENDROOT
BRANCH   3   4
HETATM    4  C   UNK N   1       4.903   9.036   1.635  0.00  0.00     0.031 C 
BRANCH   4   5
HETATM    5  C   UNK N   1       4.360   9.321   0.233  0.00  0.00     0.037 C 
BRANCH   5   6
HETATM    6  C   UNK N   1       4.507   8.190  -0.744  0.00  0.00    -0.087 C 
HETATM    7  C   UNK N   1       5.338   8.399  -1.961  0.00  0.00     0.043 C 
HETATM    8  C   UNK N   1       3.886   7.019  -0.599  0.00  0.00    -0.024 C 
BRANCH   8   9
HETATM    9  C   UNK N   1       3.004   6.641   0.559  0.00  0.00     0.031 C 
BRANCH   9  10
HETATM   10  C   UNK N   1       3.422   5.294   1.170  0.00  0.00     0.037 C 
BRANCH  10  11
HETATM   11  C   UNK N   1       3.848   4.297   0.128  0.00  0.00    -0.087 C 
HETATM   12  C   UNK N   1       5.258   3.804   0.164  0.00  0.00     0.043 C 
HETATM   13  C   UNK N   1       2.988   3.955  -0.850  0.00  0.00    -0.024 C 
BRANCH  13  14
HETATM   14  C   UNK N   1       3.289   3.082  -2.047  0.00  0.00     0.031 C 
BRANCH  14  15
HETATM   15  C   UNK N   1       4.198   1.870  -1.807  0.00  0.00     0.037 C 
BRANCH  15  16
HETATM   16  C   UNK N   1       3.721   0.863  -0.796  0.00  0.00    -0.087 C 
HETATM   17  C   UNK N   1       4.556  -0.356  -0.573  0.00  0.00     0.043 C 
HETATM   18  C   UNK N   1       2.597   1.065  -0.099  0.00  0.00    -0.020 C 
BRANCH  18  19
HETATM   19  C   UNK N   1       2.078   0.116   0.932  0.00  0.00     0.068 C 
BRANCH  19  20
HETATM   20  C   UNK N   1       0.685  -0.300   0.589  0.00  0.00    -0.022 A 
HETATM   21  C   UNK N   1       0.421  -1.654   0.362  0.00  0.00     0.010 A 
HETATM   22  C   UNK N   1      -0.873  -2.074   0.042  0.00  0.00     0.001 A 
HETATM   23  C   UNK N   1      -1.908  -1.141  -0.052  0.00  0.00     0.003 A 
HETATM   24  C   UNK N   1      -1.653   0.214   0.176  0.00  0.00     0.037 A 
HETATM   25  C   UNK N   1      -0.362   0.640   0.498  0.00  0.00     0.072 A 
BRANCH  25  26
HETATM   26  O   UNK N   1      -0.132   1.948   0.716  0.00  0.00    -0.360 OA
HETATM   27  H   UNK N   1       0.736   2.265   0.867  0.00  0.00     0.217 HD
ENDBRANCH  25  26
ENDBRANCH  19  20
ENDBRANCH  18  19
ENDBRANCH  15  16
ENDBRANCH  14  15
ENDBRANCH  13  14
ENDBRANCH  10  11
ENDBRANCH   9  10
ENDBRANCH   8   9
ENDBRANCH   5   6
ENDBRANCH   4   5
ENDBRANCH   3   4
BRANCH   1  28
HETATM   28  C   UNK N   1       7.319  10.054   0.099  0.00  0.00     0.037 C 
BRANCH  28  29
HETATM   29  C   UNK N   1       7.023  11.379   0.785  0.00  0.00     0.031 C 
BRANCH  29  30
HETATM   30  C   UNK N   1       7.066  12.473  -0.243  0.00  0.00    -0.024 C 
HETATM   31  C   UNK N   1       8.197  12.826  -0.874  0.00  0.00    -0.087 C 
HETATM   32  C   UNK N   1       9.500  12.149  -0.579  0.00  0.00     0.043 C 
BRANCH  31  33
HETATM   33  C   UNK N   1       8.165  13.870  -1.947  0.00  0.00     0.037 C 
BRANCH  33  34
HETATM   34  C   UNK N   1       8.232  15.296  -1.404  0.00  0.00     0.031 C 
BRANCH  34  35
HETATM   35  C   UNK N   1       9.383  15.509  -0.457  0.00  0.00    -0.024 C 
HETATM   36  C   UNK N   1      10.681  15.306  -0.761  0.00  0.00    -0.087 C 
HETATM   37  C   UNK N   1      11.096  14.828  -2.116  0.00  0.00     0.043 C 
BRANCH  36  38
HETATM   38  C   UNK N   1      11.761  15.525   0.268  0.00  0.00     0.037 C 
BRANCH  38  39
HETATM   39  C   UNK N   1      11.282  16.197   1.557  0.00  0.00     0.031 C 
BRANCH  39  40
HETATM   40  C   UNK N   1      11.002  17.648   1.296  0.00  0.00    -0.024 C 
HETATM   41  C   UNK N   1      11.972  18.555   1.133  0.00  0.00    -0.087 C 
HETATM   42  C   UNK N   1      13.419  18.181   1.252  0.00  0.00     0.043 C 
BRANCH  41  43
HETATM   43  C   UNK N   1      11.599  19.968   0.830  0.00  0.00     0.037 C 
BRANCH  43  44
HETATM   44  C   UNK N   1      12.174  20.374  -0.515  0.00  0.00     0.031 C 
BRANCH  44  45
HETATM   45  C   UNK N   1      12.924  21.657  -0.361  0.00  0.00    -0.024 C 
HETATM   46  C   UNK N   1      14.259  21.721  -0.430  0.00  0.00    -0.091 C 
HETATM   47  C   UNK N   1      14.933  23.037  -0.261  0.00  0.00     0.042 C 
HETATM   48  C   UNK N   1      15.095  20.500  -0.650  0.00  0.00     0.042 C 
ENDBRANCH  44  45
ENDBRANCH  43  44
ENDBRANCH  41  43
ENDBRANCH  39  40
ENDBRANCH  38  39
ENDBRANCH  36  38
ENDBRANCH  34  35
ENDBRANCH  33  34
ENDBRANCH  31  33
ENDBRANCH  29  30
ENDBRANCH  28  29
ENDBRANCH   1  28
TORSDOF 24
