REMARK  6 active torsions:
REMARK  status: ('A' for Active; 'I' for Inactive)
REMARK    1  A    between atoms: C_2  and  N_3 
REMARK    2  A    between atoms: C_2  and  C_4 
REMARK    3  A    between atoms: C_9  and  O_10 
REMARK    4  A    between atoms: N_11  and  C_12 
REMARK    5  A    between atoms: C_12  and  C_13 
REMARK    6  A    between atoms: C_13  and  O_14 
ROOT
HETATM    1  C   UNK N   1       1.577   0.288   0.061  0.00  0.00     0.108 A 
HETATM    2  N   UNK N   1       1.243  -0.978  -0.296  0.00  0.00    -0.344 N 
ATOM      3  HN  UNK N   1       1.870  -1.729  -0.585  1.00  0.00     0.167 HD
HETATM    4  C   UNK N   1      -0.100  -1.025  -0.187  0.00  0.00     0.058 A 
HETATM    5  C   UNK N   1      -0.923  -2.234  -0.464  0.00  0.00     0.072 C 
HETATM    6  C   UNK N   1      -0.559   0.198   0.230  0.00  0.00     0.167 A 
HETATM    7  N   UNK N   1       0.487   1.025   0.381  0.00  0.00    -0.304 N 
ENDROOT
BRANCH   1   8
HETATM    8  C   UNK N   1       2.996   0.788   0.119  0.00  0.00     0.138 C 
HETATM    9  C   UNK N   1       3.189   1.998  -0.773  0.00  0.00     0.040 C 
BRANCH   8  10
HETATM   10  N   UNK N   1       3.924  -0.255  -0.288  0.00  0.00    -0.420 N 
HETATM   11  H   UNK N   1       3.616  -1.185  -0.573  0.00  0.00     0.150 HD
HETATM   12  H   UNK N   1       4.923  -0.048  -0.288  0.00  0.00     0.150 HD
ENDBRANCH   8  10
ENDBRANCH   1   8
BRANCH   7  13
HETATM   13  C   UNK N   1       0.449   2.416   0.827  0.00  0.00     0.242 C 
BRANCH  13  14
HETATM   14  C   UNK N   1      -0.183   3.304  -0.204  0.00  0.00     0.158 C 
HETATM   15  O   UNK N   1       0.438   4.257  -0.644  0.00  0.00    -0.649 OA
BRANCH  14  16
HETATM   16  O   UNK N   1      -1.438   3.071  -0.632  0.00  0.00    -0.775 OA
HETATM   17  H   UNK N   1      -2.015   3.746  -0.930  0.00  0.00     0.167 HD
ENDBRANCH  14  16
ENDBRANCH  13  14
ENDBRANCH   7  13
BRANCH   6  18
HETATM   18  O   UNK N   1      -1.841   0.527   0.468  0.00  0.00    -0.344 OA
HETATM   19  H   UNK N   1      -2.088   1.416   0.633  0.00  0.00     0.219 HD
ENDBRANCH   6  18
TORSDOF 6
