REMARK  7 active torsions:
REMARK  status: ('A' for Active; 'I' for Inactive)
REMARK    1  A    between atoms: C_8  and  C_5 
REMARK    2  A    between atoms: O_21  and  C_5 
REMARK    3  A    between atoms: C_9  and  O_20 
REMARK    4  A    between atoms: C_11  and  N_14 
REMARK    5  A    between atoms: P_23  and  O_17 
REMARK    6  A    between atoms: P_23  and  O_18 
REMARK    7  A    between atoms: P_23  and  O_21 
ROOT
HETATM    1  C   UNK N   1       1.005   2.901   1.233  0.00  0.00     0.015 C 
HETATM    2  C   UNK N   1      -0.288   2.326   0.664  0.00  0.00     0.046 C 
HETATM    3  C   UNK N   1      -0.717   2.934  -0.653  0.00  0.00     0.155 C 
HETATM    4  C   UNK N   1      -0.197   0.873   0.258  0.00  0.00     0.176 C 
HETATM    5  C   UNK N   1      -1.358   0.782  -0.771  0.00  0.00     0.261 C 
HETATM    6  O   UNK N   1      -1.776   2.114  -1.084  0.00  0.00    -0.356 OA
ENDROOT
BRANCH   5   7
HETATM    7  N   UNK N   1      -2.497  -0.066  -0.351  0.00  0.00    -0.279 N 
HETATM    8  C   UNK N   1      -3.759   0.451  -0.358  0.00  0.00     0.110 A 
HETATM    9  C   UNK N   1      -4.869  -0.354  -0.103  0.00  0.00     0.022 A 
HETATM   10  C   UNK N   1      -6.237   0.236  -0.153  0.00  0.00     0.056 C 
HETATM   11  C   UNK N   1      -4.670  -1.710   0.165  0.00  0.00     0.256 A 
HETATM   12  N   UNK N   1      -3.400  -2.213   0.187  0.00  0.00    -0.275 N 
HETATM   13  O   UNK N   1      -5.617  -2.450   0.369  0.00  0.00    -0.267 OA
HETATM   14  C   UNK N   1      -2.317  -1.414  -0.072  0.00  0.00     0.331 A 
HETATM   15  H   UNK N   1      -3.261  -3.166   0.393  0.00  0.00     0.173 HD
HETATM   16  O   UNK N   1      -1.204  -1.909  -0.083  0.00  0.00    -0.246 OA
ENDBRANCH   5   7
BRANCH   4  17
HETATM   17  O   UNK N   1       1.032   0.679  -0.427  0.00  0.00    -0.386 OA
HETATM   18  C   UNK N   1       1.589  -0.549  -0.041  0.00  0.00     0.202 C 
ENDBRANCH   4  17
BRANCH   3  19
HETATM   19  C   UNK N   1      -1.112   4.408  -0.515  0.00  0.00     0.213 C 
BRANCH  19  20
HETATM   20  O   UNK N   1       0.028   5.175  -0.798  0.00  0.00    -0.295 OA
BRANCH  20  21
HETATM   21  P   UNK N   1      -0.014   6.671   0.096  0.00  0.00     0.390 P 
HETATM   22  O   UNK N   1      -1.478   7.165   0.254  0.00  0.00    -0.632 OA
BRANCH  21  23
HETATM   23  O   UNK N   1       0.702   6.535   1.672  0.00  0.00    -0.307 OA
HETATM   24  H   UNK N   1       0.836   6.150   2.552  0.00  0.00     0.222 HD
ENDBRANCH  21  23
BRANCH  21  25
HETATM   25  O   UNK N   1       0.817   7.885  -0.825  0.00  0.00    -0.307 OA
HETATM   26  H   UNK N   1       1.636   7.822  -1.340  0.00  0.00     0.222 HD
ENDBRANCH  21  25
ENDBRANCH  20  21
ENDBRANCH  19  20
ENDBRANCH   3  19
TORSDOF 7
