REMARK  3 active torsions:
REMARK  status: ('A' for Active; 'I' for Inactive)
REMARK    1  A    between atoms: C_4  and  N_7 
REMARK    2  A    between atoms: C_5  and  C_6 
REMARK    3  A    between atoms: O_10  and  C_6 
ROOT
HETATM    1  C   UNK N   1       0.947   2.899  -0.812  0.00  0.00     0.012 C 
HETATM    2  C   UNK N   1       1.792   0.529  -0.994  0.00  0.00     0.052 C 
HETATM    3  C   UNK N   1       1.264   1.601  -0.088  0.00  0.00     0.018 C 
HETATM    4  C   UNK N   1       1.728  -0.664  -0.058  0.00  0.00     0.170 C 
HETATM    5  C   UNK N   1       0.083   0.885   0.574  0.00  0.00     0.180 C 
HETATM    6  N   UNK N   1       0.526  -0.503   0.767  0.00  0.00    -0.388 N 
HETATM    7  H   UNK N   1       0.086  -1.211   1.355  0.00  0.00     0.156 HD
ENDROOT
BRANCH   5   8
HETATM    8  C   UNK N   1      -1.190   0.911  -0.254  0.00  0.00     0.163 C 
HETATM    9  O   UNK N   1      -1.690  -0.123  -0.667  0.00  0.00    -0.648 OA
BRANCH   8  10
HETATM   10  O   UNK N   1      -1.804   2.086  -0.500  0.00  0.00    -0.775 OA
HETATM   11  H   UNK N   1      -1.310   2.864  -0.671  0.00  0.00     0.167 HD
ENDBRANCH   8  10
ENDBRANCH   5   8
BRANCH   4  12
HETATM   12  N   UNK N   1       1.673  -1.905  -0.808  0.00  0.00    -0.411 N 
HETATM   13  H   UNK N   1       0.898  -2.308  -1.335  0.00  0.00     0.151 HD
HETATM   14  H   UNK N   1       2.533  -2.454  -0.808  0.00  0.00     0.151 HD
ENDBRANCH   4  12
TORSDOF 3
