REMARK WARNING: 32 MAX_TORS EXCEEDED!!!
REMARK  35 active torsions:
REMARK  status: ('A' for Active; 'I' for Inactive)
REMARK    1  A    between atoms: C_6  and  C_5 
REMARK    2  A    between atoms: C_16  and  C_5 
REMARK    3  A    between atoms: C_21  and  C_6 
REMARK    4  A    between atoms: C_8  and  C_7 
REMARK    5  A    between atoms: C_20  and  C_7 
REMARK    6  A    between atoms: N_36  and  C_8 
REMARK    7  A    between atoms: C_10  and  C_9 
REMARK    8  A    between atoms: N_34  and  C_9 
REMARK    9  A    between atoms: S_68  and  C_10 
REMARK   10  A    between atoms: C_19  and  C_13 
REMARK   11  A    between atoms: O_60  and  C_13 
REMARK   12  A    between atoms: O_58  and  C_17 
REMARK   13  A    between atoms: O_59  and  C_18 
REMARK   14  A    between atoms: N_34  and  C_20 
REMARK   15  A    between atoms: O_45  and  C_20 
REMARK   16  A    between atoms: S_68  and  C_21 
REMARK   17  A    between atoms: O_47  and  C_23 
REMARK   18  A    between atoms: C_24  and  O_48 
REMARK   19  A    between atoms: C_25  and  O_62 
REMARK   20  A    between atoms: N_33  and  C_26 
REMARK   21  A    between atoms: C_28  and  N_44 
REMARK   22  A    between atoms: C_29  and  O_63 
REMARK   23  A    between atoms: C_32  and  C_30 
REMARK   24  A    between atoms: N_36  and  C_30 
REMARK   25  A    between atoms: O_49  and  C_30 
REMARK   26  A    between atoms: O_50  and  C_32 
REMARK   27  A    between atoms: P_65  and  O_51 
REMARK   28  A    between atoms: P_65  and  O_52 
REMARK   29  A    between atoms: P_66  and  O_54 
REMARK   30  A    between atoms: P_67  and  O_56 
REMARK   31  A    between atoms: P_66  and  O_60 
REMARK   32  A    between atoms: P_65  and  O_62 
REMARK   33  A    between atoms: P_67  and  O_63 
REMARK   34  A    between atoms: P_66  and  O_64 
REMARK   35  A    between atoms: P_67  and  O_64 
ROOT
HETATM    1  O   UNK N   1      -4.266  -4.400   3.293  0.00  0.00    -0.631 OA
HETATM    2  P   UNK N   1      -3.787  -4.527   1.824  0.00  0.00     0.402 P 
ENDROOT
BRANCH   2   3
HETATM    3  O   UNK N   1      -2.067  -4.762   1.908  0.00  0.00    -0.307 OA
HETATM    4  H   UNK N   1      -1.701  -5.658   1.955  0.00  0.00     0.222 HD
ENDBRANCH   2   3
BRANCH   2   5
HETATM    5  O   UNK N   1      -4.648  -5.878   1.133  0.00  0.00    -0.287 OA
BRANCH   5   6
HETATM    6  C   UNK N   1      -4.101  -6.040  -0.147  0.00  0.00     0.188 A 
HETATM    7  C   UNK N   1      -4.720  -7.160  -0.987  0.00  0.00     0.024 A 
HETATM    8  C   UNK N   1      -5.988  -7.766  -0.401  0.00  0.00     0.021 C 
HETATM    9  C   UNK N   1      -4.640  -7.007  -2.500  0.00  0.00     0.021 C 
HETATM   10  C   UNK N   1      -3.386  -7.387  -0.279  0.00  0.00     0.158 A 
BRANCH  10  11
HETATM   11  C   UNK N   1      -1.995  -7.107  -0.818  0.00  0.00     0.150 C 
BRANCH  11  12
HETATM   12  N   UNK N   1      -0.953  -7.082  -0.053  0.00  0.00    -0.371 N 
ATOM     13  HN  UNK N   1      -0.049  -6.903  -0.489  1.00  0.00     0.161 HD
BRANCH  12  14
HETATM   14  C   UNK N   1      -0.978  -7.292   1.384  0.00  0.00     0.129 C 
BRANCH  14  15
HETATM   15  C   UNK N   1      -0.500  -8.685   1.808  0.00  0.00     0.103 C 
BRANCH  15  16
HETATM   16  C   UNK N   1       0.365  -9.351   0.791  0.00  0.00     0.112 C 
BRANCH  16  17
HETATM   17  N   UNK N   1      -0.137  -9.649  -0.353  0.00  0.00    -0.374 N 
ATOM     18  HN  UNK N   1      -1.117  -9.431  -0.532  1.00  0.00     0.161 HD
BRANCH  17  19
HETATM   19  C   UNK N   1       0.631 -10.279  -1.389  0.00  0.00     0.132 C 
BRANCH  19  20
HETATM   20  C   UNK N   1      -0.274 -11.053  -2.340  0.00  0.00     0.102 C 
BRANCH  20  21
HETATM   21  S   UNK N   1      -1.788 -11.728  -1.554  0.00  0.00    -0.086 SA
BRANCH  21  22
HETATM   22  C   UNK N   1      -1.094 -12.650  -0.153  0.00  0.00     0.208 C 
HETATM   23  O   UNK N   1      -1.843 -12.943   0.766  0.00  0.00    -0.281 OA
BRANCH  22  24
HETATM   24  C   UNK N   1       0.301 -13.155  -0.148  0.00  0.00     0.063 C 
BRANCH  24  25
HETATM   25  C   UNK N   1       0.652 -14.227   0.579  0.00  0.00     0.016 C 
BRANCH  25  26
HETATM   26  C   UNK N   1       1.997 -14.817   0.451  0.00  0.00    -0.031 A 
HETATM   27  C   UNK N   1       3.107 -14.048   0.085  0.00  0.00     0.051 A 
HETATM   28  C   UNK N   1       4.348 -14.639  -0.151  0.00  0.00     0.104 A 
HETATM   29  C   UNK N   1       4.463 -16.055  -0.081  0.00  0.00     0.133 A 
HETATM   30  C   UNK N   1       3.330 -16.836   0.274  0.00  0.00     0.104 A 
HETATM   31  C   UNK N   1       2.124 -16.198   0.563  0.00  0.00     0.051 A 
BRANCH  28  32
HETATM   32  O   UNK N   1       5.385 -13.815  -0.459  0.00  0.00    -0.353 OA
HETATM   33  C   UNK N   1       6.682 -14.209  -0.691  0.00  0.00     0.210 C 
ENDBRANCH  28  32
BRANCH  29  34
HETATM   34  O   UNK N   1       5.637 -16.652  -0.353  0.00  0.00    -0.356 OA
HETATM   35  H   UNK N   1       5.685 -17.569  -0.542  0.00  0.00     0.218 HD
ENDBRANCH  29  34
BRANCH  30  36
HETATM   36  O   UNK N   1       3.339 -18.194   0.322  0.00  0.00    -0.353 OA
HETATM   37  C   UNK N   1       4.362 -19.002  -0.119  0.00  0.00     0.210 C 
ENDBRANCH  30  36
ENDBRANCH  25  26
ENDBRANCH  24  25
ENDBRANCH  22  24
ENDBRANCH  21  22
ENDBRANCH  20  21
ENDBRANCH  19  20
ENDBRANCH  17  19
ENDBRANCH  16  17
BRANCH  16  38
HETATM   38  O   UNK N   1       1.652  -9.628   1.079  0.00  0.00    -0.350 OA
HETATM   39  H   UNK N   1       1.933 -10.499   1.279  0.00  0.00     0.219 HD
ENDBRANCH  16  38
ENDBRANCH  15  16
ENDBRANCH  14  15
ENDBRANCH  12  14
ENDBRANCH  11  12
BRANCH  11  40
HETATM   40  O   UNK N   1      -1.833  -6.848  -2.130  0.00  0.00    -0.347 OA
HETATM   41  H   UNK N   1      -1.621  -6.856  -3.043  0.00  0.00     0.219 HD
ENDBRANCH  11  40
ENDBRANCH  10  11
BRANCH  10  42
HETATM   42  O   UNK N   1      -3.494  -8.204   0.853  0.00  0.00    -0.378 OA
HETATM   43  H   UNK N   1      -4.022  -8.422   1.637  0.00  0.00     0.211 HD
ENDBRANCH  10  42
ENDBRANCH   5   6
ENDBRANCH   2   5
BRANCH   2  44
HETATM   44  O   UNK N   1      -4.252  -3.050   1.027  0.00  0.00    -0.195 OA
BRANCH  44  45
HETATM   45  P   UNK N   1      -2.875  -2.502   0.112  0.00  0.00     0.401 P 
HETATM   46  O   UNK N   1      -3.384  -1.318  -0.758  0.00  0.00    -0.631 OA
BRANCH  45  47
HETATM   47  O   UNK N   1      -2.244  -3.684  -0.990  0.00  0.00    -0.307 OA
HETATM   48  H   UNK N   1      -2.639  -4.320  -1.606  0.00  0.00     0.222 HD
ENDBRANCH  45  47
BRANCH  45  49
HETATM   49  O   UNK N   1      -1.617  -1.947   1.178  0.00  0.00    -0.294 OA
BRANCH  49  50
HETATM   50  C   UNK N   1      -1.305  -0.654   0.778  0.00  0.00     0.215 C 
BRANCH  50  51
HETATM   51  C   UNK N   1      -0.058  -0.615  -0.104  0.00  0.00     0.180 C 
HETATM   52  C   UNK N   1       1.169  -1.247   0.599  0.00  0.00     0.197 C 
HETATM   53  C   UNK N   1       2.263  -0.235   0.308  0.00  0.00     0.199 C 
HETATM   54  C   UNK N   1       1.372   0.996   0.501  0.00  0.00     0.262 C 
HETATM   55  O   UNK N   1       0.248   0.758  -0.312  0.00  0.00    -0.353 OA
BRANCH  52  56
HETATM   56  O   UNK N   1       1.406  -2.647   0.514  0.00  0.00    -0.286 OA
BRANCH  56  57
HETATM   57  P   UNK N   1       1.738  -3.303  -1.080  0.00  0.00     0.391 P 
HETATM   58  O   UNK N   1       3.090  -2.764  -1.617  0.00  0.00    -0.632 OA
BRANCH  57  59
HETATM   59  O   UNK N   1       0.504  -3.039  -2.270  0.00  0.00    -0.307 OA
HETATM   60  H   UNK N   1       0.287  -2.367  -2.936  0.00  0.00     0.222 HD
ENDBRANCH  57  59
BRANCH  57  61
HETATM   61  O   UNK N   1       1.985  -5.015  -0.916  0.00  0.00    -0.307 OA
HETATM   62  H   UNK N   1       1.226  -5.612  -0.824  0.00  0.00     0.222 HD
ENDBRANCH  57  61
ENDBRANCH  56  57
ENDBRANCH  52  56
BRANCH  53  63
HETATM   63  O   UNK N   1       2.687  -0.285  -1.023  0.00  0.00    -0.388 OA
HETATM   64  H   UNK N   1       2.804  -0.557  -1.947  0.00  0.00     0.210 HD
ENDBRANCH  53  63
BRANCH  54  65
HETATM   65  N   UNK N   1       1.958   2.316   0.268  0.00  0.00    -0.297 N 
HETATM   66  C   UNK N   1       1.255   3.476   0.344  0.00  0.00     0.188 A 
HETATM   67  N   UNK N   1       2.069   4.561   0.246  0.00  0.00    -0.346 N 
HETATM   68  C   UNK N   1       3.301   4.040   0.123  0.00  0.00     0.122 A 
ATOM     69  HN  UNK N   1       1.805   5.546   0.262  1.00  0.00     0.167 HD
HETATM   70  C   UNK N   1       4.526   4.679   0.063  0.00  0.00     0.131 A 
HETATM   71  C   UNK N   1       3.236   2.692   0.118  0.00  0.00     0.142 A 
HETATM   72  N   UNK N   1       5.648   3.905  -0.014  0.00  0.00    -0.337 N 
HETATM   73  C   UNK N   1       5.560   2.532  -0.028  0.00  0.00     0.183 A 
ATOM     74  HN  UNK N   1       6.564   4.350  -0.063  1.00  0.00     0.168 HD
HETATM   75  N   UNK N   1       4.341   1.914   0.053  0.00  0.00    -0.336 N 
ATOM     76  HN  UNK N   1       4.268   0.896   0.064  1.00  0.00     0.168 HD
BRANCH  70  77
HETATM   77  N   UNK N   1       4.621   6.084   0.123  0.00  0.00    -0.383 N 
HETATM   78  H   UNK N   1       5.505   6.517   0.165  0.00  0.00     0.157 HD
HETATM   79  H   UNK N   1       3.804   6.633   0.123  0.00  0.00     0.157 HD
ENDBRANCH  70  77
ENDBRANCH  54  65
ENDBRANCH  50  51
ENDBRANCH  49  50
ENDBRANCH  45  49
ENDBRANCH  44  45
ENDBRANCH   2  44
TORSDOF 35
