REMARK  5 active torsions:
REMARK  status: ('A' for Active; 'I' for Inactive)
REMARK    1  A    between atoms: O_1  and  C_2 
REMARK    2  A    between atoms: C_3  and  C_2 
REMARK    3  A    between atoms: C_5  and  N_10 
REMARK    4  A    between atoms: C_6  and  O_7 
REMARK    5  A    between atoms: C_8  and  O_9 
ROOT
HETATM    1  C   UNK N   1       0.475  -0.093   0.166  0.00  0.00     0.179 C 
HETATM    2  O   UNK N   1       1.548  -0.956  -0.042  0.00  0.00    -0.353 OA
HETATM    3  C   UNK N   1       0.971  -2.181   0.320  0.00  0.00     0.263 C 
HETATM    4  C   UNK N   1      -0.376  -2.233  -0.393  0.00  0.00     0.198 C 
HETATM    5  C   UNK N   1      -0.733  -0.753  -0.472  0.00  0.00     0.182 C 
ENDROOT
BRANCH   3   6
HETATM    6  N   UNK N   1       1.912  -3.306   0.120  0.00  0.00    -0.280 N 
HETATM    7  C   UNK N   1       3.237  -3.039   0.301  0.00  0.00     0.100 A 
HETATM    8  C   UNK N   1       4.196  -4.041   0.202  0.00  0.00     0.034 A 
HETATM    9  C   UNK N   1       3.782  -5.337  -0.071  0.00  0.00     0.094 A 
HETATM   10  N   UNK N   1       2.465  -5.603  -0.237  0.00  0.00    -0.319 N 
HETATM   11  C   UNK N   1       1.519  -4.612  -0.144  0.00  0.00     0.328 A 
ATOM     12  HN  UNK N   1       2.169  -6.559  -0.436  1.00  0.00     0.170 HD
HETATM   13  O   UNK N   1       0.348  -4.903  -0.282  0.00  0.00    -0.246 OA
ENDBRANCH   3   6
BRANCH   4  14
HETATM   14  O   UNK N   1      -1.303  -2.948   0.371  0.00  0.00    -0.388 OA
HETATM   15  H   UNK N   1      -2.054  -2.639   0.902  0.00  0.00     0.210 HD
ENDBRANCH   4  14
BRANCH   1  16
HETATM   16  C   UNK N   1       0.759   1.282  -0.408  0.00  0.00     0.198 C 
BRANCH  16  17
HETATM   17  O   UNK N   1      -0.078   2.222   0.190  0.00  0.00    -0.398 OA
HETATM   18  H   UNK N   1       0.198   3.054   0.607  0.00  0.00     0.209 HD
ENDBRANCH  16  17
ENDBRANCH   1  16
BRANCH   5  19
HETATM   19  O   UNK N   1      -1.884  -0.434   0.256  0.00  0.00    -0.390 OA
HETATM   20  H   UNK N   1      -2.091   0.368   0.761  0.00  0.00     0.210 HD
ENDBRANCH   5  19
TORSDOF 5
