REMARK  6 active torsions:
REMARK  status: ('A' for Active; 'I' for Inactive)
REMARK    1  A    between atoms: C_2  and  C_3 
REMARK    2  A    between atoms: C_3  and  N_4 
REMARK    3  A    between atoms: C_5  and  C_30 
REMARK    4  A    between atoms: C_8  and  C_9 
REMARK    5  A    between atoms: C_17  and  C_18 
REMARK       I    between atoms: C_23  and  N_24 
REMARK    6  A    between atoms: N_24  and  C_25 
ROOT
HETATM    1  N   UNK N   1      -2.685  -0.258   0.315  0.00  0.00    -0.333 N 
HETATM    2  C   UNK N   1      -2.270   1.027   0.398  0.00  0.00     0.088 A 
HETATM    3  N   UNK N   1      -0.948   1.145   0.202  0.00  0.00    -0.343 N 
ATOM      4  HN  UNK N   1      -0.406   2.009   0.203  1.00  0.00     0.167 HD
HETATM    5  C   UNK N   1      -0.475  -0.107   0.004  0.00  0.00     0.073 A 
HETATM    6  C   UNK N   1      -1.573  -1.007   0.077  0.00  0.00     0.091 A 
ENDROOT
BRANCH   6   7
HETATM    7  C   UNK N   1      -1.606  -2.520   0.088  0.00  0.00     0.079 A 
HETATM    8  C   UNK N   1      -0.444  -3.275  -0.029  0.00  0.00     0.050 A 
HETATM    9  C   UNK N   1      -0.481  -4.650   0.150  0.00  0.00     0.108 A 
HETATM   10  N   UNK N   1      -1.652  -5.254   0.446  0.00  0.00    -0.202 N 
HETATM   11  C   UNK N   1      -2.798  -4.536   0.524  0.00  0.00     0.678 A 
ATOM     12  HN  UNK N   1      -1.674  -6.260   0.612  1.00  0.00     0.183 HD
HETATM   13  N   UNK N   1      -4.006  -5.204   0.811  0.00  0.00    -0.221 N 
HETATM   14  N   UNK N   1      -2.771  -3.182   0.346  0.00  0.00    -0.190 N 
HETATM   15  H   UNK N   1      -4.103  -5.677   1.669  0.00  0.00     0.178 HD
ATOM     16  HN  UNK N   1      -3.641  -2.654   0.407  1.00  0.00     0.184 HD
BRANCH  13  17
HETATM   17  C   UNK N   1      -5.098  -5.207  -0.122  0.00  0.00     0.099 A 
HETATM   18  C   UNK N   1      -4.679  -5.962  -1.376  0.00  0.00     0.028 A 
HETATM   19  C   UNK N   1      -5.533  -6.646  -0.336  0.00  0.00     0.028 A 
ENDBRANCH  13  17
ENDBRANCH   6   7
BRANCH   5  20
HETATM   20  C   UNK N   1       1.008  -0.311  -0.059  0.00  0.00    -0.005 A 
HETATM   21  C   UNK N   1       1.846   0.806   0.102  0.00  0.00     0.015 A 
HETATM   22  C   UNK N   1       3.229   0.650   0.249  0.00  0.00     0.026 A 
HETATM   23  C   UNK N   1       3.795  -0.627   0.245  0.00  0.00     0.055 A 
HETATM   24 Cl   UNK N   1       5.520  -0.803   0.521  0.00  0.00    -0.083 Cl
HETATM   25  C   UNK N   1       2.975  -1.744   0.046  0.00  0.00     0.056 A 
HETATM   26 Cl   UNK N   1       3.623  -3.377   0.040  0.00  0.00    -0.083 Cl
HETATM   27  C   UNK N   1       1.601  -1.570  -0.099  0.00  0.00     0.039 A 
ENDBRANCH   5  20
BRANCH   1  28
HETATM   28  C   UNK N   1      -4.042  -0.724   0.577  0.00  0.00     0.130 C 
BRANCH  28  29
HETATM   29  C   UNK N   1      -4.743  -1.087  -0.720  0.00  0.00     0.016 C 
HETATM   30  C   UNK N   1      -6.158  -1.527  -0.411  0.00  0.00     0.006 C 
ENDBRANCH  28  29
ENDBRANCH   1  28
BRANCH   2  31
HETATM   31  C   UNK N   1      -3.106   2.181   0.916  0.00  0.00     0.057 C 
HETATM   32  C   UNK N   1      -4.613   2.134   0.702  0.00  0.00     0.042 C 
HETATM   33  C   UNK N   1      -4.973   2.690  -0.674  0.00  0.00     0.272 C 
HETATM   34  N   UNK N   1      -4.443   4.045  -0.875  0.00  0.00     0.084 N 
HETATM   35  C   UNK N   1      -5.072   4.986   0.048  0.00  0.00     0.309 C 
HETATM   36  C   UNK N   1      -2.982   4.070  -0.728  0.00  0.00     0.272 C 
HETATM   37  C   UNK N   1      -2.528   3.567   0.646  0.00  0.00     0.042 C 
ENDBRANCH   2  31
TORSDOF 6
