REMARK WARNING: 32 MAX_TORS EXCEEDED!!!
REMARK  38 active torsions:
REMARK  status: ('A' for Active; 'I' for Inactive)
REMARK    1  A    between atoms: C_6  and  C_4 
REMARK    2  A    between atoms: C_7  and  C_5 
REMARK    3  A    between atoms: C_8  and  C_6 
REMARK    4  A    between atoms: C_9  and  C_7 
REMARK    5  A    between atoms: C_11  and  C_9 
REMARK    6  A    between atoms: C_12  and  C_10 
REMARK    7  A    between atoms: C_14  and  C_12 
REMARK    8  A    between atoms: C_15  and  C_13 
REMARK    9  A    between atoms: C_17  and  C_15 
REMARK   10  A    between atoms: C_19  and  C_16 
REMARK   11  A    between atoms: C_18  and  C_17 
REMARK   12  A    between atoms: C_22  and  C_19 
REMARK   13  A    between atoms: C_21  and  C_20 
REMARK   14  A    between atoms: C_23  and  C_21 
REMARK   15  A    between atoms: C_24  and  C_22 
REMARK   16  A    between atoms: C_25  and  C_23 
REMARK   17  A    between atoms: C_26  and  C_24 
REMARK   18  A    between atoms: C_27  and  C_25 
REMARK   19  A    between atoms: C_28  and  C_26 
REMARK   20  A    between atoms: C_29  and  C_27 
REMARK   21  A    between atoms: C_30  and  C_28 
REMARK   22  A    between atoms: C_31  and  C_29 
REMARK   23  A    between atoms: C_32  and  C_30 
REMARK   24  A    between atoms: C_38  and  C_31 
REMARK   25  A    between atoms: C_39  and  C_32 
REMARK   26  A    between atoms: C_34  and  C_33 
REMARK   27  A    between atoms: N_40  and  C_33 
REMARK   28  A    between atoms: O_46  and  C_34 
REMARK   29  A    between atoms: C_37  and  C_35 
REMARK   30  A    between atoms: O_45  and  C_35 
REMARK   31  A    between atoms: C_37  and  C_36 
REMARK   32  A    between atoms: O_47  and  C_36 
REMARK   33  A    between atoms: C_37  and  O_48 
REMARK   34  A    between atoms: O_45  and  C_38 
REMARK   35  A    between atoms: O_48  and  C_39 
REMARK   36  A    between atoms: P_49  and  O_43 
REMARK   37  A    between atoms: P_49  and  O_46 
REMARK   38  A    between atoms: P_49  and  O_47 
ROOT
HETATM    1  C   UNK N   1      11.698  -3.354  -0.857  0.00  0.00     0.180 C 
ENDROOT
BRANCH   1   2
HETATM    2  C   UNK N   1      12.771  -2.307  -1.155  0.00  0.00     0.213 C 
BRANCH   2   3
HETATM    3  O   UNK N   1      13.146  -1.542  -0.072  0.00  0.00    -0.319 OA
BRANCH   3   4
HETATM    4  C   UNK N   1      14.301  -1.724   0.615  0.00  0.00     0.258 C 
HETATM    5  O   UNK N   1      14.761  -0.797   1.260  0.00  0.00    -0.265 OA
BRANCH   4   6
HETATM    6  C   UNK N   1      14.979  -3.061   0.683  0.00  0.00     0.111 C 
BRANCH   6   7
HETATM    7  C   UNK N   1      15.437  -3.558  -0.677  0.00  0.00     0.010 C 
BRANCH   7   8
HETATM    8  C   UNK N   1      15.877  -5.009  -0.576  0.00  0.00     0.000 C 
BRANCH   8   9
HETATM    9  C   UNK N   1      17.167  -5.136   0.220  0.00  0.00     0.000 C 
BRANCH   9  10
HETATM   10  C   UNK N   1      18.402  -5.097  -0.677  0.00  0.00     0.004 C 
BRANCH  10  11
HETATM   11  C   UNK N   1      18.572  -3.790  -1.460  0.00  0.00     0.027 C 
BRANCH  11  12
HETATM   12  C   UNK N   1      18.431  -2.566  -0.602  0.00  0.00    -0.031 C 
HETATM   13  C   UNK N   1      19.220  -2.374   0.468  0.00  0.00    -0.030 C 
BRANCH  13  14
HETATM   14  C   UNK N   1      19.100  -1.187   1.388  0.00  0.00     0.030 C 
BRANCH  14  15
HETATM   15  C   UNK N   1      18.089  -0.119   0.963  0.00  0.00     0.030 C 
BRANCH  15  16
HETATM   16  C   UNK N   1      18.688   1.085   0.279  0.00  0.00    -0.030 C 
HETATM   17  C   UNK N   1      19.986   1.182  -0.061  0.00  0.00    -0.030 C 
BRANCH  17  18
HETATM   18  C   UNK N   1      20.525   2.433  -0.678  0.00  0.00     0.030 C 
BRANCH  18  19
HETATM   19  C   UNK N   1      20.420   3.569   0.331  0.00  0.00     0.030 C 
BRANCH  19  20
HETATM   20  C   UNK N   1      21.269   4.738  -0.051  0.00  0.00    -0.031 C 
HETATM   21  C   UNK N   1      22.602   4.637  -0.095  0.00  0.00    -0.035 C 
HETATM   22  C   UNK N   1      23.436   5.820  -0.453  0.00  0.00     0.036 C 
ENDBRANCH  19  20
ENDBRANCH  18  19
ENDBRANCH  17  18
ENDBRANCH  15  16
ENDBRANCH  14  15
ENDBRANCH  13  14
ENDBRANCH  11  12
ENDBRANCH  10  11
ENDBRANCH   9  10
ENDBRANCH   8   9
ENDBRANCH   7   8
ENDBRANCH   6   7
ENDBRANCH   4   6
ENDBRANCH   3   4
ENDBRANCH   2   3
ENDBRANCH   1   2
BRANCH   1  23
HETATM   23  C   UNK N   1      12.303  -4.721  -0.575  0.00  0.00     0.215 C 
BRANCH  23  24
HETATM   24  O   UNK N   1      11.391  -5.723  -0.955  0.00  0.00    -0.294 OA
BRANCH  24  25
HETATM   25  P   UNK N   1      10.806  -6.464   0.507  0.00  0.00     0.393 P 
HETATM   26  O   UNK N   1       9.735  -7.545   0.198  0.00  0.00    -0.631 OA
BRANCH  25  27
HETATM   27  O   UNK N   1       9.504  -5.584  -0.235  0.00  0.00    -0.307 OA
HETATM   28  H   UNK N   1       9.565  -4.709  -0.649  0.00  0.00     0.222 HD
ENDBRANCH  25  27
BRANCH  25  29
HETATM   29  O   UNK N   1      11.670  -7.651  -0.429  0.00  0.00    -0.295 OA
BRANCH  29  30
HETATM   30  C   UNK N   1      12.667  -8.143   0.419  0.00  0.00     0.199 C 
BRANCH  30  31
HETATM   31  C   UNK N   1      14.028  -7.637  -0.022  0.00  0.00     0.138 C 
BRANCH  31  32
HETATM   32  N   UNK N   1      14.338  -8.132  -1.352  0.00  0.00    -0.428 N 
HETATM   33  H   UNK N   1      14.145  -8.494  -2.286  0.00  0.00     0.149 HD
HETATM   34  H   UNK N   1      15.357  -8.096  -1.352  0.00  0.00     0.149 HD
ENDBRANCH  31  32
ENDBRANCH  30  31
ENDBRANCH  29  30
ENDBRANCH  25  29
ENDBRANCH  24  25
ENDBRANCH  23  24
ENDBRANCH   1  23
BRANCH   1  35
HETATM   35  O   UNK N   1      10.874  -2.997   0.197  0.00  0.00    -0.312 OA
BRANCH  35  36
HETATM   36  C   UNK N   1       9.771  -2.212   0.106  0.00  0.00     0.259 C 
HETATM   37  O   UNK N   1       9.124  -1.987   1.118  0.00  0.00    -0.265 OA
BRANCH  36  38
HETATM   38  C   UNK N   1       9.327  -1.601  -1.193  0.00  0.00     0.111 C 
BRANCH  38  39
HETATM   39  C   UNK N   1       8.783  -2.668  -2.138  0.00  0.00     0.010 C 
BRANCH  39  40
HETATM   40  C   UNK N   1       7.278  -2.556  -2.334  0.00  0.00     0.000 C 
BRANCH  40  41
HETATM   41  C   UNK N   1       6.535  -2.758  -1.027  0.00  0.00     0.000 C 
BRANCH  41  42
HETATM   42  C   UNK N   1       6.396  -1.422  -0.317  0.00  0.00     0.000 C 
BRANCH  42  43
HETATM   43  C   UNK N   1       5.925  -1.639   1.109  0.00  0.00     0.004 C 
BRANCH  43  44
HETATM   44  C   UNK N   1       4.476  -1.207   1.287  0.00  0.00     0.027 C 
BRANCH  44  45
HETATM   45  C   UNK N   1       3.554  -2.048   0.461  0.00  0.00    -0.030 C 
HETATM   46  C   UNK N   1       2.229  -1.930   0.570  0.00  0.00    -0.027 C 
BRANCH  46  47
HETATM   47  C   UNK N   1       1.330  -2.794  -0.264  0.00  0.00     0.053 C 
BRANCH  47  48
HETATM   48  C   UNK N   1       1.557  -4.249   0.031  0.00  0.00    -0.027 C 
HETATM   49  C   UNK N   1       0.543  -5.112   0.037  0.00  0.00    -0.030 C 
BRANCH  49  50
HETATM   50  C   UNK N   1       0.810  -6.560   0.323  0.00  0.00     0.026 C 
BRANCH  50  51
HETATM   51  C   UNK N   1      -0.459  -7.393   0.259  0.00  0.00    -0.001 C 
HETATM   52  C   UNK N   1      -0.876  -7.607  -1.184  0.00  0.00     0.005 C 
ENDBRANCH  50  51
ENDBRANCH  49  50
ENDBRANCH  47  48
ENDBRANCH  46  47
ENDBRANCH  44  45
ENDBRANCH  43  44
ENDBRANCH  42  43
ENDBRANCH  41  42
ENDBRANCH  40  41
ENDBRANCH  39  40
ENDBRANCH  38  39
ENDBRANCH  36  38
ENDBRANCH  35  36
ENDBRANCH   1  35
TORSDOF 38
