REMARK  7 active torsions:
REMARK  status: ('A' for Active; 'I' for Inactive)
REMARK    1  A    between atoms: C_2  and  N_1 
REMARK    2  A    between atoms: C_2  and  C_3 
REMARK    3  A    between atoms: C_2  and  C_7 
REMARK    4  A    between atoms: C_3  and  C_4 
REMARK    5  A    between atoms: C_4  and  C_5 
REMARK    6  A    between atoms: C_5  and  O_6 
REMARK    7  A    between atoms: C_7  and  O_8 
ROOT
HETATM    1  C   UNK N   1       5.025   2.107  -0.000  0.00  0.00     0.173 C 
ENDROOT
BRANCH   1   2
HETATM    2  N   UNK N   1       5.611   3.435   0.000  0.00  0.00    -0.418 N 
HETATM    3  H   UNK N   1       6.625   3.545   0.000  0.00  0.00     0.150 HD
HETATM    4  H   UNK N   1       5.008   4.258   0.000  0.00  0.00     0.150 HD
ENDBRANCH   1   2
BRANCH   1   5
HETATM    5  C   UNK N   1       3.499   2.062   0.000  0.00  0.00     0.037 C 
BRANCH   5   6
HETATM    6  C   UNK N   1       2.913   0.658  -0.000  0.00  0.00     0.028 C 
BRANCH   6   7
HETATM    7  C   UNK N   1       1.384   0.636   0.000  0.00  0.00     0.164 C 
BRANCH   7   8
HETATM    8  O   UNK N   1       0.827   1.919  -0.000  0.00  0.00    -0.401 OA
HETATM    9  H   UNK N   1       1.405   2.698  -0.000  0.00  0.00     0.209 HD
ENDBRANCH   7   8
ENDBRANCH   6   7
ENDBRANCH   5   6
ENDBRANCH   1   5
BRANCH   1  10
HETATM   10  C   UNK N   1       5.983   0.945   0.000  0.00  0.00     0.163 C 
HETATM   11  O   UNK N   1       5.577  -0.205   0.000  0.00  0.00    -0.648 OA
BRANCH  10  12
HETATM   12  O   UNK N   1       7.310   1.178   0.000  0.00  0.00    -0.775 OA
HETATM   13  H   UNK N   1       7.912   0.460  -0.000  0.00  0.00     0.167 HD
ENDBRANCH  10  12
ENDBRANCH   1  10
TORSDOF 7
