REMARK  14 active torsions:
REMARK  status: ('A' for Active; 'I' for Inactive)
REMARK    1  A    between atoms: C_2  and  O_4 
REMARK    2  A    between atoms: O_4  and  C_5 
REMARK    3  A    between atoms: C_5  and  C_6 
REMARK    4  A    between atoms: C_6  and  N_7 
REMARK       I    between atoms: N_7  and  C_8 
REMARK    5  A    between atoms: C_8  and  C_10 
REMARK    6  A    between atoms: C_10  and  C_11 
REMARK    7  A    between atoms: C_11  and  N_12 
REMARK       I    between atoms: N_12  and  C_13 
REMARK    8  A    between atoms: C_13  and  C_15 
REMARK    9  A    between atoms: C_15  and  O_16 
REMARK   10  A    between atoms: C_15  and  C_17 
REMARK   11  A    between atoms: C_17  and  C_20 
REMARK   12  A    between atoms: C_20  and  O_21 
REMARK   13  A    between atoms: O_21  and  C_22 
REMARK   14  A    between atoms: C_22  and  C_24 
ROOT
HETATM    1  N   UNK N   1      12.829  -4.318   1.344  0.00  0.00    -0.358 N 
HETATM    2  C   UNK N   1      14.121  -4.696   1.157  0.00  0.00     0.247 C 
HETATM    3  O   UNK N   1      14.592  -5.568   1.865  0.00  0.00    -0.271 OA
HETATM    4  H   UNK N   1      12.321  -4.742   2.073  0.00  0.00     0.162 HD
ENDROOT
BRANCH   2   5
HETATM    5  C   UNK N   1      14.950  -4.086   0.044  0.00  0.00     0.219 C 
BRANCH   5   6
HETATM    6  O   UNK N   1      15.303  -2.770   0.357  0.00  0.00    -0.385 OA
HETATM    7  H   UNK N   1      16.216  -2.526   0.575  0.00  0.00     0.210 HD
ENDBRANCH   5   6
BRANCH   5   8
HETATM    8  C   UNK N   1      16.147  -4.913  -0.456  0.00  0.00     0.009 C 
HETATM    9  C   UNK N   1      15.652  -6.305  -0.837  0.00  0.00     0.020 C 
HETATM   10  C   UNK N   1      16.671  -4.268  -1.726  0.00  0.00     0.020 C 
BRANCH   8  11
HETATM   11  C   UNK N   1      17.287  -4.994   0.578  0.00  0.00     0.190 C 
BRANCH  11  12
HETATM   12  O   UNK N   1      18.127  -6.040   0.252  0.00  0.00    -0.320 OA
BRANCH  12  13
HETATM   13  C   UNK N   1      19.393  -5.947  -0.233  0.00  0.00     0.266 C 
HETATM   14  O   UNK N   1      19.891  -6.954  -0.715  0.00  0.00    -0.264 OA
BRANCH  13  15
HETATM   15  C   UNK N   1      20.212  -4.663  -0.185  0.00  0.00     0.037 C 
HETATM   16  C   UNK N   1      20.466  -4.273   1.257  0.00  0.00     0.025 C 
HETATM   17  C   UNK N   1      21.561  -4.849  -0.865  0.00  0.00     0.025 C 
HETATM   18  C   UNK N   1      19.515  -3.518  -0.891  0.00  0.00     0.025 C 
ENDBRANCH  13  15
ENDBRANCH  12  13
ENDBRANCH  11  12
ENDBRANCH   8  11
ENDBRANCH   5   8
ENDBRANCH   2   5
BRANCH   1  19
HETATM   19  C   UNK N   1      12.159  -3.328   0.529  0.00  0.00     0.132 C 
BRANCH  19  20
HETATM   20  C   UNK N   1      12.091  -3.742  -0.944  0.00  0.00     0.122 C 
BRANCH  20  21
HETATM   21  C   UNK N   1      11.401  -5.061  -1.159  0.00  0.00     0.219 C 
HETATM   22  N   UNK N   1      10.087  -5.233  -0.880  0.00  0.00    -0.359 N 
HETATM   23  H   UNK N   1       9.673  -6.108  -1.058  0.00  0.00     0.162 HD
HETATM   24  O   UNK N   1      12.039  -5.990  -1.626  0.00  0.00    -0.274 OA
BRANCH  22  25
HETATM   25  C   UNK N   1       9.274  -4.177  -0.331  0.00  0.00     0.149 C 
BRANCH  25  26
HETATM   26  C   UNK N   1       8.521  -4.686   0.886  0.00  0.00     0.198 C 
BRANCH  26  27
HETATM   27  O   UNK N   1       7.367  -5.335   0.498  0.00  0.00    -0.320 OA
BRANCH  27  28
HETATM   28  C   UNK N   1       6.294  -4.681  -0.014  0.00  0.00     0.254 C 
HETATM   29  C   UNK N   1       5.094  -5.455  -0.434  0.00  0.00     0.126 C 
HETATM   30  O   UNK N   1       6.298  -3.465  -0.135  0.00  0.00    -0.266 OA
ENDBRANCH  27  28
ENDBRANCH  26  27
ENDBRANCH  25  26
ENDBRANCH  22  25
ENDBRANCH  20  21
ENDBRANCH  19  20
ENDBRANCH   1  19
TORSDOF 14
