REMARK  15 active torsions:
REMARK  status: ('A' for Active; 'I' for Inactive)
REMARK    1  A    between atoms: C_8  and  C_4 
REMARK    2  A    between atoms: C_5  and  O_22 
REMARK    3  A    between atoms: C_6  and  O_23 
REMARK    4  A    between atoms: C_7  and  O_11 
REMARK    5  A    between atoms: O_13  and  C_8 
REMARK    6  A    between atoms: C_10  and  C_9 
REMARK    7  A    between atoms: O_15  and  C_9 
REMARK    8  A    between atoms: C_10  and  O_22 
REMARK    9  A    between atoms: O_24  and  C_10 
REMARK   10  A    between atoms: P_25  and  O_16 
REMARK   11  A    between atoms: P_25  and  O_17 
REMARK   12  A    between atoms: P_26  and  O_19 
REMARK   13  A    between atoms: P_26  and  O_20 
REMARK   14  A    between atoms: P_25  and  O_23 
REMARK   15  A    between atoms: P_26  and  O_24 
ROOT
HETATM    1  C   UNK N   1       1.284  -1.305   0.322  0.00  0.00     0.080 C 
HETATM    2  C   UNK N   1       2.456   0.573  -0.865  0.00  0.00     0.022 C 
HETATM    3  C   UNK N   1       2.476  -0.700  -0.418  0.00  0.00     0.017 C 
HETATM    4  C   UNK N   1       0.020  -0.419   0.402  0.00  0.00     0.161 C 
HETATM    5  C   UNK N   1       1.260   1.472  -0.667  0.00  0.00     0.188 C 
HETATM    6  C   UNK N   1       0.499   1.042   0.599  0.00  0.00     0.180 C 
ENDROOT
BRANCH   4   7
HETATM    7  O   UNK N   1      -0.736  -0.658  -0.796  0.00  0.00    -0.338 OA
BRANCH   7   8
HETATM    8  C   UNK N   1      -2.118  -0.284  -0.796  0.00  0.00     0.258 C 
HETATM    9  C   UNK N   1      -2.646  -0.678  -2.164  0.00  0.00     0.092 C 
BRANCH   8  10
HETATM   10  C   UNK N   1      -2.950  -1.114   0.198  0.00  0.00     0.205 C 
HETATM   11  O   UNK N   1      -2.423  -1.968   0.892  0.00  0.00    -0.646 OA
BRANCH  10  12
HETATM   12  O   UNK N   1      -4.293  -1.007   0.225  0.00  0.00    -0.772 OA
HETATM   13  H   UNK N   1      -4.695  -0.161   0.243  0.00  0.00     0.167 HD
ENDBRANCH  10  12
ENDBRANCH   8  10
BRANCH   8  14
HETATM   14  O   UNK N   1      -2.197   1.137  -0.759  0.00  0.00    -0.249 OA
BRANCH  14  15
HETATM   15  P   UNK N   1      -3.545   1.873   0.097  0.00  0.00     0.393 P 
HETATM   16  O   UNK N   1      -3.449   1.502   1.602  0.00  0.00    -0.631 OA
BRANCH  15  17
HETATM   17  O   UNK N   1      -5.107   1.416  -0.505  0.00  0.00    -0.307 OA
HETATM   18  H   UNK N   1      -5.765   2.045  -0.842  0.00  0.00     0.222 HD
ENDBRANCH  15  17
BRANCH  15  19
HETATM   19  O   UNK N   1      -3.383   3.600   0.026  0.00  0.00    -0.307 OA
HETATM   20  H   UNK N   1      -2.503   4.005  -0.014  0.00  0.00     0.222 HD
ENDBRANCH  15  19
ENDBRANCH  14  15
ENDBRANCH   8  14
ENDBRANCH   7   8
ENDBRANCH   4   7
BRANCH   6  21
HETATM   21  O   UNK N   1      -0.543   1.917   0.886  0.00  0.00    -0.390 OA
HETATM   22  H   UNK N   1      -0.377   2.851   1.086  0.00  0.00     0.210 HD
ENDBRANCH   6  21
BRANCH   3  23
HETATM   23  C   UNK N   1       3.723  -1.488  -0.549  0.00  0.00     0.171 C 
HETATM   24  O   UNK N   1       4.724  -0.989  -1.040  0.00  0.00    -0.646 OA
BRANCH  23  25
HETATM   25  O   UNK N   1       3.773  -2.754  -0.088  0.00  0.00    -0.773 OA
HETATM   26  H   UNK N   1       3.028  -3.224   0.232  0.00  0.00     0.167 HD
ENDBRANCH  23  25
ENDBRANCH   3  23
BRANCH   5  27
HETATM   27  O   UNK N   1       1.590   2.850  -0.708  0.00  0.00    -0.285 OA
BRANCH  27  28
HETATM   28  P   UNK N   1       2.730   3.289   0.547  0.00  0.00     0.391 P 
HETATM   29  O   UNK N   1       3.584   3.408  -0.744  0.00  0.00    -0.632 OA
BRANCH  28  30
HETATM   30  O   UNK N   1       3.332   4.915   0.618  0.00  0.00    -0.307 OA
HETATM   31  H   UNK N   1       4.287   5.078   0.659  0.00  0.00     0.222 HD
ENDBRANCH  28  30
BRANCH  28  32
HETATM   32  O   UNK N   1       1.419   4.428   0.505  0.00  0.00    -0.307 OA
HETATM   33  H   UNK N   1       1.604   5.380   0.482  0.00  0.00     0.222 HD
ENDBRANCH  28  32
ENDBRANCH  27  28
ENDBRANCH   5  27
TORSDOF 15
