REMARK  8 active torsions:
REMARK  status: ('A' for Active; 'I' for Inactive)
REMARK    1  A    between atoms: C_4  and  C_3 
REMARK    2  A    between atoms: O_14  and  C_3 
REMARK    3  A    between atoms: O_15  and  C_5 
REMARK    4  A    between atoms: C_7  and  O_21 
REMARK    5  A    between atoms: C_8  and  N_13 
REMARK    6  A    between atoms: P_22  and  O_17 
REMARK    7  A    between atoms: P_22  and  O_18 
REMARK    8  A    between atoms: P_22  and  O_21 
ROOT
HETATM    1  C   UNK N   1       3.855   0.047   0.162  0.00  0.00     0.180 C 
HETATM    2  C   UNK N   1       1.855  -0.248  -1.042  0.00  0.00     0.251 C 
HETATM    3  C   UNK N   1       3.116   0.598  -1.058  0.00  0.00     0.203 C 
HETATM    4  C   UNK N   1       2.551  -1.594  -0.745  0.00  0.00     0.269 C 
HETATM    5  F   UNK N   1       1.037   0.119   0.008  0.00  0.00    -0.242 F 
HETATM    6  O   UNK N   1       3.527  -1.333   0.252  0.00  0.00    -0.353 OA
ENDROOT
BRANCH   4   7
HETATM    7  N   UNK N   1       1.750  -2.795  -0.395  0.00  0.00    -0.279 N 
HETATM    8  C   UNK N   1       2.468  -3.950  -0.266  0.00  0.00     0.103 A 
HETATM    9  C   UNK N   1       1.852  -5.165   0.011  0.00  0.00     0.073 A 
HETATM   10  C   UNK N   1       0.476  -5.195   0.163  0.00  0.00     0.144 A 
HETATM   11  N   UNK N   1      -0.240  -4.051   0.046  0.00  0.00    -0.289 N 
HETATM   12  C   UNK N   1       0.368  -2.852  -0.234  0.00  0.00     0.330 A 
ATOM     13  HN  UNK N   1      -1.252  -4.081   0.170  1.00  0.00     0.172 HD
HETATM   14  O   UNK N   1      -0.326  -1.863  -0.348  0.00  0.00    -0.246 OA
BRANCH  10  15
HETATM   15  O   UNK N   1      -0.147  -6.356   0.419  0.00  0.00    -0.346 OA
HETATM   16  H   UNK N   1      -1.066  -6.385   0.598  0.00  0.00     0.219 HD
ENDBRANCH  10  15
ENDBRANCH   4   7
BRANCH   3  17
HETATM   17  O   UNK N   1       3.064   2.011  -1.202  0.00  0.00    -0.286 OA
BRANCH  17  18
HETATM   18  P   UNK N   1       1.994   2.893  -0.118  0.00  0.00     0.391 P 
HETATM   19  O   UNK N   1       1.783   2.160   1.233  0.00  0.00    -0.632 OA
BRANCH  18  20
HETATM   20  O   UNK N   1       0.438   3.174  -0.834  0.00  0.00    -0.307 OA
HETATM   21  H   UNK N   1       0.139   4.005  -1.234  0.00  0.00     0.222 HD
ENDBRANCH  18  20
BRANCH  18  22
HETATM   22  O   UNK N   1       2.718   4.415   0.293  0.00  0.00    -0.307 OA
HETATM   23  H   UNK N   1       3.657   4.490   0.523  0.00  0.00     0.222 HD
ENDBRANCH  18  22
ENDBRANCH  17  18
ENDBRANCH   3  17
BRANCH   1  24
HETATM   24  C   UNK N   1       5.361   0.232   0.016  0.00  0.00     0.198 C 
BRANCH  24  25
HETATM   25  O   UNK N   1       6.028  -0.399   1.066  0.00  0.00    -0.398 OA
HETATM   26  H   UNK N   1       5.880  -1.020   1.797  0.00  0.00     0.209 HD
ENDBRANCH  24  25
ENDBRANCH   1  24
TORSDOF 8
