REMARK  2 active torsions:
REMARK  status: ('A' for Active; 'I' for Inactive)
REMARK    1  A    between atoms: N_1  and  S_2 
REMARK    2  A    between atoms: S_2  and  C_5 
ROOT
HETATM    1  C   UNK N   1       1.457   0.734   0.019  0.00  0.00     0.156 A 
HETATM    2  C   UNK N   1       1.309  -0.664   0.055  0.00  0.00     0.142 A 
HETATM    3  F   UNK N   1       2.389  -1.480  -0.005  0.00  0.00    -0.204 F 
HETATM    4  C   UNK N   1       0.033  -1.228   0.151  0.00  0.00     0.044 A 
HETATM    5  C   UNK N   1      -1.096  -0.408   0.212  0.00  0.00     0.006 A 
HETATM    6  C   UNK N   1      -0.952   0.981   0.185  0.00  0.00     0.044 A 
HETATM    7  C   UNK N   1       0.319   1.553   0.090  0.00  0.00     0.142 A 
HETATM    8  F   UNK N   1       0.441   2.903   0.063  0.00  0.00    -0.204 F 
ENDROOT
BRANCH   1   9
HETATM    9  S   UNK N   1       3.083   1.489  -0.143  0.00  0.00     0.262 S 
HETATM   10  O   UNK N   1       3.161   2.382  -1.389  0.00  0.00    -0.201 OA
HETATM   11  O   UNK N   1       4.218   0.488  -0.409  0.00  0.00    -0.201 OA
BRANCH   9  12
HETATM   12  N   UNK N   1       3.664   2.511   1.172  0.00  0.00    -0.324 N 
HETATM   13  H   UNK N   1       4.344   2.515   1.933  0.00  0.00     0.169 HD
HETATM   14  H   UNK N   1       3.149   3.391   1.172  0.00  0.00     0.169 HD
ENDBRANCH   9  12
ENDBRANCH   1   9
TORSDOF 2
