REMARK  13 active torsions:
REMARK  status: ('A' for Active; 'I' for Inactive)
REMARK    1  A    between atoms: C_6  and  C_5 
REMARK    2  A    between atoms: C_13  and  C_5 
REMARK    3  A    between atoms: C_14  and  C_6 
REMARK    4  A    between atoms: C_12  and  C_7 
REMARK    5  A    between atoms: N_23  and  C_7 
REMARK    6  A    between atoms: N_29  and  C_9 
REMARK    7  A    between atoms: C_17  and  C_10 
REMARK    8  A    between atoms: N_23  and  C_11 
REMARK    9  A    between atoms: C_19  and  C_13 
REMARK   10  A    between atoms: C_13  and  N_25 
REMARK   11  A    between atoms: O_32  and  C_14 
REMARK       I    between atoms: N_25  and  C_17 
REMARK   12  A    between atoms: O_34  and  C_18 
REMARK   13  A    between atoms: O_36  and  C_19 
REMARK       I    between atoms: N_21  and  C_20 
ROOT
HETATM    1  N   UNK N   1      -1.087  -2.214   1.016  0.00  0.00    -0.388 N 
HETATM    2  H   UNK N   1      -1.384  -1.453   1.565  0.00  0.00     0.159 HD
ENDROOT
BRANCH   1   3
HETATM    3  C   UNK N   1       0.302  -2.482   0.866  0.00  0.00     0.147 C 
BRANCH   3   4
HETATM    4  C   UNK N   1       1.130  -1.229   0.596  0.00  0.00     0.128 C 
HETATM    5  C   UNK N   1       2.202  -1.635  -0.409  0.00  0.00     0.148 C 
HETATM    6  N   UNK N   1       3.097  -0.531  -0.675  0.00  0.00    -0.372 N 
HETATM    7  C   UNK N   1       2.704   0.815  -0.461  0.00  0.00     0.148 A 
HETATM    8  H   UNK N   1       4.002  -0.719  -1.013  0.00  0.00     0.161 HD
HETATM    9  C   UNK N   1       1.387   1.114  -0.074  0.00  0.00     0.133 A 
HETATM   10  N   UNK N   1       3.609   1.808  -0.629  0.00  0.00    -0.175 N 
HETATM   11  C   UNK N   1       1.060   2.468   0.158  0.00  0.00     0.186 A 
HETATM   12  N   UNK N   1       0.489   0.014   0.128  0.00  0.00    -0.310 N 
HETATM   13  N   UNK N   1       2.010   3.423  -0.019  0.00  0.00    -0.168 N 
HETATM   14  C   UNK N   1       3.269   3.101  -0.412  0.00  0.00     0.679 A 
ATOM     15  HN  UNK N   1       1.774   4.401   0.148  1.00  0.00     0.186 HD
HETATM   16  N   UNK N   1       4.147   4.019  -0.551  0.00  0.00    -0.234 N 
HETATM   17  H   UNK N   1       5.098   3.787  -0.659  0.00  0.00     0.174 HD
ATOM     18  HN  UNK N   1       3.861   4.998  -0.551  1.00  0.00     0.174 HD
HETATM   19  H   UNK N   1       4.526   1.588  -0.912  0.00  0.00     0.186 HD
BRANCH  11  20
HETATM   20  O   UNK N   1      -0.147   2.837   0.619  0.00  0.00    -0.344 OA
HETATM   21  H   UNK N   1      -0.345   3.694   0.941  0.00  0.00     0.219 HD
ENDBRANCH  11  20
BRANCH  12  22
HETATM   22  C   UNK N   1      -0.851   0.093  -0.141  0.00  0.00     0.356 C 
HETATM   23  O   UNK N   1      -1.366   1.073  -0.653  0.00  0.00    -0.283 OA
ENDBRANCH  12  22
ENDBRANCH   3   4
ENDBRANCH   1   3
BRANCH   1  24
HETATM   24  C   UNK N   1      -2.034  -3.029   0.384  0.00  0.00     0.028 A 
HETATM   25  C   UNK N   1      -1.728  -4.359   0.054  0.00  0.00     0.030 A 
HETATM   26  C   UNK N   1      -2.737  -5.214  -0.377  0.00  0.00     0.019 A 
HETATM   27  C   UNK N   1      -4.040  -4.724  -0.507  0.00  0.00     0.032 A 
HETATM   28  C   UNK N   1      -4.308  -3.368  -0.275  0.00  0.00     0.019 A 
HETATM   29  C   UNK N   1      -3.310  -2.526   0.173  0.00  0.00     0.030 A 
BRANCH  27  30
HETATM   30  C   UNK N   1      -5.172  -5.646  -0.491  0.00  0.00     0.252 C 
HETATM   31  N   UNK N   1      -6.384  -5.106  -0.214  0.00  0.00    -0.343 N 
HETATM   32  H   UNK N   1      -6.544  -4.190  -0.536  0.00  0.00     0.163 HD
HETATM   33  O   UNK N   1      -4.979  -6.850  -0.426  0.00  0.00    -0.268 OA
BRANCH  31  34
HETATM   34  C   UNK N   1      -7.463  -5.739   0.505  0.00  0.00     0.183 C 
BRANCH  34  35
HETATM   35  C   UNK N   1      -8.532  -4.671   0.741  0.00  0.00     0.046 C 
BRANCH  35  36
HETATM   36  C   UNK N   1      -9.102  -4.118  -0.560  0.00  0.00     0.112 C 
BRANCH  36  37
HETATM   37  C   UNK N   1     -10.040  -2.999  -0.267  0.00  0.00     0.139 C 
HETATM   38  O   UNK N   1     -11.243  -3.187  -0.327  0.00  0.00    -0.650 OA
BRANCH  37  39
HETATM   39  O   UNK N   1      -9.564  -1.780   0.049  0.00  0.00    -0.776 OA
HETATM   40  H   UNK N   1      -8.664  -1.642   0.269  0.00  0.00     0.167 HD
ENDBRANCH  37  39
ENDBRANCH  36  37
ENDBRANCH  35  36
ENDBRANCH  34  35
BRANCH  34  41
HETATM   41  C   UNK N   1      -8.013  -6.990  -0.138  0.00  0.00     0.163 C 
HETATM   42  O   UNK N   1      -7.301  -7.969  -0.289  0.00  0.00    -0.648 OA
BRANCH  41  43
HETATM   43  O   UNK N   1      -9.316  -7.071  -0.467  0.00  0.00    -0.775 OA
HETATM   44  H   UNK N   1      -9.818  -6.313  -0.696  0.00  0.00     0.167 HD
ENDBRANCH  41  43
ENDBRANCH  34  41
ENDBRANCH  31  34
ENDBRANCH  27  30
ENDBRANCH   1  24
TORSDOF 13
