REMARK  7 active torsions:
REMARK  status: ('A' for Active; 'I' for Inactive)
REMARK    1  A    between atoms: C_2  and  C_1 
REMARK    2  A    between atoms: P_10  and  C_1 
REMARK    3  A    between atoms: C_3  and  C_2 
REMARK    4  A    between atoms: C_2  and  N_4 
REMARK    5  A    between atoms: O_6  and  C_3 
REMARK    6  A    between atoms: P_10  and  O_7 
REMARK    7  A    between atoms: P_10  and  O_8 
ROOT
HETATM    1  C   UNK N   1       0.563   1.530  -0.493  0.00  0.00     0.184 C 
ENDROOT
BRANCH   1   2
HETATM    2  C   UNK N   1      -0.192   0.598   0.452  0.00  0.00     0.160 C 
BRANCH   2   3
HETATM    3  P   UNK N   1      -0.526  -1.056  -0.357  0.00  0.00     0.238 P 
HETATM    4  O   UNK N   1       0.650  -1.384   0.602  0.00  0.00    -0.653 OA
BRANCH   3   5
HETATM    5  O   UNK N   1      -1.166  -2.541   0.271  0.00  0.00    -0.329 OA
HETATM    6  H   UNK N   1      -2.064  -2.646   0.622  0.00  0.00     0.220 HD
ENDBRANCH   3   5
BRANCH   3   7
HETATM    7  O   UNK N   1      -1.782  -0.571   0.738  0.00  0.00    -0.329 OA
HETATM    8  H   UNK N   1      -1.898   0.173   1.350  0.00  0.00     0.220 HD
ENDBRANCH   3   7
ENDBRANCH   2   3
ENDBRANCH   1   2
BRANCH   1   9
HETATM    9  C   UNK N   1       0.830   2.856   0.171  0.00  0.00     0.163 C 
HETATM   10  O   UNK N   1       1.963   3.282   0.284  0.00  0.00    -0.648 OA
BRANCH   9  11
HETATM   11  O   UNK N   1      -0.207   3.592   0.627  0.00  0.00    -0.775 OA
HETATM   12  H   UNK N   1      -0.124   4.471   0.942  0.00  0.00     0.167 HD
ENDBRANCH   9  11
ENDBRANCH   1   9
BRANCH   1  13
HETATM   13  N   UNK N   1       1.820   0.916  -0.908  0.00  0.00    -0.417 N 
HETATM   14  H   UNK N   1       1.888  -0.060  -1.198  0.00  0.00     0.150 HD
HETATM   15  H   UNK N   1       2.666   1.486  -0.908  0.00  0.00     0.150 HD
ENDBRANCH   1  13
TORSDOF 7
