REMARK  12 active torsions:
REMARK  status: ('A' for Active; 'I' for Inactive)
REMARK    1  A    between atoms: C_22  and  C_21 
REMARK    2  A    between atoms: C_28  and  C_21 
REMARK    3  A    between atoms: O_43  and  C_23 
REMARK    4  A    between atoms: C_33  and  C_28 
REMARK    5  A    between atoms: C_28  and  N_34 
REMARK    6  A    between atoms: N_35  and  C_29 
REMARK    7  A    between atoms: N_36  and  C_30 
REMARK    8  A    between atoms: S_44  and  C_31 
REMARK    9  A    between atoms: S_45  and  C_32 
REMARK   10  A    between atoms: O_38  and  C_33 
REMARK   11  A    between atoms: S_44  and  N_34 
REMARK   12  A    between atoms: S_45  and  O_43 
ROOT
HETATM    1  C   UNK N   1       7.152  -3.760  -1.812  0.00  0.00     0.075 C 
ENDROOT
BRANCH   1   2
HETATM    2  C   UNK N   1       6.174  -2.777  -1.279  0.00  0.00    -0.056 C 
HETATM    3  C   UNK N   1       6.344  -2.350   0.043  0.00  0.00     0.010 C 
HETATM    4  C   UNK N   1       5.238  -2.086   0.831  0.00  0.00     0.039 C 
HETATM    5  C   UNK N   1       3.964  -2.220   0.291  0.00  0.00     0.089 C 
HETATM    6  C   UNK N   1       3.801  -2.487  -1.077  0.00  0.00     0.039 C 
HETATM    7  C   UNK N   1       4.906  -2.795  -1.856  0.00  0.00     0.010 C 
BRANCH   5   8
HETATM    8  O   UNK N   1       2.903  -2.108   1.104  0.00  0.00    -0.229 OA
BRANCH   8   9
HETATM    9  S   UNK N   1       1.520  -1.300   0.600  0.00  0.00     0.303 S 
HETATM   10  O   UNK N   1       1.049  -2.000  -0.686  0.00  0.00    -0.193 OA
HETATM   11  O   UNK N   1       0.462  -1.650   1.656  0.00  0.00    -0.193 OA
BRANCH   9  12
HETATM   12  C   UNK N   1       1.957   0.420   0.467  0.00  0.00     0.098 A 
HETATM   13  C   UNK N   1       3.300   0.763   0.666  0.00  0.00     0.027 A 
HETATM   14  C   UNK N   1       3.713   2.083   0.589  0.00  0.00     0.003 A 
HETATM   15  C   UNK N   1       2.783   3.077   0.317  0.00  0.00     0.014 A 
HETATM   16  C   UNK N   1       1.423   2.771   0.113  0.00  0.00     0.002 A 
HETATM   17  C   UNK N   1       1.017   1.413   0.191  0.00  0.00     0.000 A 
HETATM   18  C   UNK N   1       0.460   3.781  -0.161  0.00  0.00     0.040 A 
HETATM   19  C   UNK N   1      -0.324   1.068  -0.003  0.00  0.00     0.014 A 
HETATM   20  C   UNK N   1      -1.266   2.048  -0.271  0.00  0.00     0.003 A 
HETATM   21  C   UNK N   1      -0.881   3.382  -0.347  0.00  0.00     0.030 A 
BRANCH  18  22
HETATM   22  N   UNK N   1       0.772   5.184  -0.256  0.00  0.00    -0.389 N 
HETATM   23  C   UNK N   1      -0.272   6.140  -0.519  0.00  0.00     0.149 C 
HETATM   24  C   UNK N   1       2.109   5.708  -0.106  0.00  0.00     0.149 C 
ENDBRANCH  18  22
ENDBRANCH   9  12
ENDBRANCH   8   9
ENDBRANCH   5   8
ENDBRANCH   1   2
BRANCH   1  25
HETATM   25  C   UNK N   1       7.052  -5.021  -0.900  0.00  0.00     0.195 C 
BRANCH  25  26
HETATM   26  C   UNK N   1       5.616  -5.493  -0.690  0.00  0.00     0.164 C 
HETATM   27  O   UNK N   1       4.940  -5.843  -1.644  0.00  0.00    -0.648 OA
BRANCH  26  28
HETATM   28  O   UNK N   1       5.067  -5.492   0.544  0.00  0.00    -0.775 OA
HETATM   29  H   UNK N   1       4.877  -5.161   1.400  0.00  0.00     0.167 HD
ENDBRANCH  26  28
ENDBRANCH  25  26
BRANCH  25  30
HETATM   30  N   UNK N   1       7.635  -4.682   0.407  0.00  0.00    -0.300 N 
HETATM   31  H   UNK N   1       7.226  -4.026   1.073  0.00  0.00     0.173 HD
BRANCH  30  32
HETATM   32  S   UNK N   1       9.130  -5.561   0.666  0.00  0.00     0.260 S 
HETATM   33  O   UNK N   1      10.011  -5.132  -0.519  0.00  0.00    -0.200 OA
HETATM   34  O   UNK N   1       9.776  -4.897   1.890  0.00  0.00    -0.200 OA
BRANCH  32  35
HETATM   35  C   UNK N   1       8.757  -7.299   0.774  0.00  0.00     0.090 A 
HETATM   36  C   UNK N   1       7.466  -7.664   1.163  0.00  0.00     0.026 A 
HETATM   37  C   UNK N   1       7.081  -8.997   1.167  0.00  0.00     0.003 A 
HETATM   38  C   UNK N   1       7.981  -9.976   0.755  0.00  0.00     0.014 A 
HETATM   39  C   UNK N   1       9.289  -9.645   0.357  0.00  0.00     0.002 A 
HETATM   40  C   UNK N   1       9.678  -8.280   0.385  0.00  0.00    -0.000 A 
HETATM   41  C   UNK N   1      10.217 -10.633  -0.087  0.00  0.00     0.040 A 
HETATM   42  C   UNK N   1      10.971  -7.911   0.001  0.00  0.00     0.014 A 
HETATM   43  C   UNK N   1      11.886  -8.871  -0.400  0.00  0.00     0.003 A 
HETATM   44  C   UNK N   1      11.513 -10.210  -0.449  0.00  0.00     0.030 A 
BRANCH  41  45
HETATM   45  N   UNK N   1       9.900 -12.033  -0.208  0.00  0.00    -0.389 N 
HETATM   46  C   UNK N   1      10.904 -12.963  -0.658  0.00  0.00     0.149 C 
HETATM   47  C   UNK N   1       8.579 -12.565   0.022  0.00  0.00     0.149 C 
ENDBRANCH  41  45
ENDBRANCH  32  35
ENDBRANCH  30  32
ENDBRANCH  25  30
ENDBRANCH   1  25
TORSDOF 12
