REMARK  32 active torsions:
REMARK  status: ('A' for Active; 'I' for Inactive)
REMARK    1  A    between atoms: C_5  and  C_3 
REMARK    2  A    between atoms: C_11  and  C_3 
REMARK    3  A    between atoms: C_6  and  C_4 
REMARK    4  A    between atoms: C_13  and  C_4 
REMARK    5  A    between atoms: N_26  and  C_5 
REMARK    6  A    between atoms: N_28  and  C_6 
REMARK    7  A    between atoms: C_12  and  C_7 
REMARK    8  A    between atoms: O_50  and  C_7 
REMARK    9  A    between atoms: C_23  and  C_8 
REMARK   10  A    between atoms: O_51  and  C_8 
REMARK   11  A    between atoms: C_22  and  C_11 
REMARK   12  A    between atoms: N_26  and  C_13 
REMARK   13  A    between atoms: O_37  and  C_13 
REMARK   14  A    between atoms: C_15  and  O_38 
REMARK   15  A    between atoms: C_16  and  O_53 
REMARK   16  A    between atoms: C_20  and  C_17 
REMARK   17  A    between atoms: C_23  and  C_17 
REMARK   18  A    between atoms: C_17  and  O_39 
REMARK   19  A    between atoms: N_25  and  C_18 
REMARK   20  A    between atoms: N_28  and  C_20 
REMARK   21  A    between atoms: O_40  and  C_20 
REMARK   22  A    between atoms: C_21  and  N_36 
REMARK   23  A    between atoms: O_42  and  C_22 
REMARK   24  A    between atoms: P_55  and  O_43 
REMARK   25  A    between atoms: P_55  and  O_44 
REMARK   26  A    between atoms: P_56  and  O_46 
REMARK   27  A    between atoms: P_57  and  O_48 
REMARK   28  A    between atoms: P_56  and  O_50 
REMARK   29  A    between atoms: P_57  and  O_51 
REMARK   30  A    between atoms: P_55  and  O_53 
REMARK   31  A    between atoms: P_56  and  O_54 
REMARK   32  A    between atoms: P_57  and  O_54 
ROOT
HETATM    1  O   UNK N   1      -4.678  17.460  -0.838  0.00  0.00    -0.631 OA
HETATM    2  P   UNK N   1      -5.305  16.582   0.277  0.00  0.00     0.401 P 
ENDROOT
BRANCH   2   3
HETATM    3  O   UNK N   1      -4.140  15.314   0.488  0.00  0.00    -0.307 OA
HETATM    4  H   UNK N   1      -4.428  14.395   0.605  0.00  0.00     0.222 HD
ENDBRANCH   2   3
BRANCH   2   5
HETATM    5  O   UNK N   1      -5.608  15.719  -1.219  0.00  0.00    -0.294 OA
BRANCH   5   6
HETATM    6  C   UNK N   1      -6.742  16.271  -1.858  0.00  0.00     0.215 C 
BRANCH   6   7
HETATM    7  C   UNK N   1      -8.061  15.642  -1.420  0.00  0.00     0.180 C 
HETATM    8  C   UNK N   1      -8.654  16.269  -0.152  0.00  0.00     0.197 C 
HETATM    9  C   UNK N   1      -9.642  15.184   0.152  0.00  0.00     0.199 C 
HETATM   10  C   UNK N   1      -8.679  14.003   0.008  0.00  0.00     0.262 C 
HETATM   11  O   UNK N   1      -7.931  14.247  -1.173  0.00  0.00    -0.353 OA
BRANCH   8  12
HETATM   12  O   UNK N   1      -9.259  17.542  -0.315  0.00  0.00    -0.286 OA
BRANCH  12  13
HETATM   13  P   UNK N   1      -8.037  18.788  -0.072  0.00  0.00     0.391 P 
HETATM   14  O   UNK N   1      -8.619  20.134   0.432  0.00  0.00    -0.632 OA
BRANCH  13  15
HETATM   15  O   UNK N   1      -8.704  18.465   1.502  0.00  0.00    -0.307 OA
HETATM   16  H   UNK N   1      -9.046  18.698   2.379  0.00  0.00     0.222 HD
ENDBRANCH  13  15
BRANCH  13  17
HETATM   17  O   UNK N   1      -9.116  19.317  -1.323  0.00  0.00    -0.307 OA
HETATM   18  H   UNK N   1      -9.161  19.987  -2.023  0.00  0.00     0.222 HD
ENDBRANCH  13  17
ENDBRANCH  12  13
ENDBRANCH   8  12
BRANCH   9  19
HETATM   19  O   UNK N   1     -10.186  15.295   1.433  0.00  0.00    -0.388 OA
HETATM   20  H   UNK N   1     -10.308  15.661   2.323  0.00  0.00     0.210 HD
ENDBRANCH   9  19
BRANCH  10  21
HETATM   21  N   UNK N   1      -9.289  12.669  -0.007  0.00  0.00    -0.297 N 
HETATM   22  C   UNK N   1      -8.575  11.515  -0.048  0.00  0.00     0.188 A 
HETATM   23  N   UNK N   1      -9.385  10.421   0.001  0.00  0.00    -0.346 N 
HETATM   24  C   UNK N   1     -10.624  10.930   0.071  0.00  0.00     0.122 A 
ATOM     25  HN  UNK N   1      -9.111   9.438  -0.013  1.00  0.00     0.167 HD
HETATM   26  C   UNK N   1     -11.845  10.279   0.155  0.00  0.00     0.131 A 
HETATM   27  C   UNK N   1     -10.575  12.278   0.063  0.00  0.00     0.142 A 
HETATM   28  N   UNK N   1     -12.975  11.042   0.218  0.00  0.00    -0.337 N 
HETATM   29  C   UNK N   1     -12.902  12.415   0.202  0.00  0.00     0.183 A 
ATOM     30  HN  UNK N   1     -13.886  10.588   0.277  1.00  0.00     0.168 HD
HETATM   31  N   UNK N   1     -11.687  13.044   0.129  0.00  0.00    -0.336 N 
ATOM     32  HN  UNK N   1     -11.624  14.062   0.125  1.00  0.00     0.168 HD
BRANCH  26  33
HETATM   33  N   UNK N   1     -11.922   8.872   0.183  0.00  0.00    -0.383 N 
HETATM   34  H   UNK N   1     -12.801   8.427   0.202  0.00  0.00     0.157 HD
HETATM   35  H   UNK N   1     -11.098   8.333   0.183  0.00  0.00     0.157 HD
ENDBRANCH  26  33
ENDBRANCH  10  21
ENDBRANCH   6   7
ENDBRANCH   5   6
ENDBRANCH   2   5
BRANCH   2  36
HETATM   36  O   UNK N   1      -4.212  17.646   1.208  0.00  0.00    -0.195 OA
BRANCH  36  37
HETATM   37  P   UNK N   1      -2.486  17.575   0.790  0.00  0.00     0.401 P 
HETATM   38  O   UNK N   1      -1.527  18.303   1.773  0.00  0.00    -0.631 OA
BRANCH  37  39
HETATM   39  O   UNK N   1      -2.514  18.839  -0.370  0.00  0.00    -0.307 OA
HETATM   40  H   UNK N   1      -1.904  19.210  -1.026  0.00  0.00     0.222 HD
ENDBRANCH  37  39
BRANCH  37  41
HETATM   41  O   UNK N   1      -1.795  16.414  -0.309  0.00  0.00    -0.296 OA
BRANCH  41  42
HETATM   42  C   UNK N   1      -0.722  15.769   0.309  0.00  0.00     0.192 C 
BRANCH  42  43
HETATM   43  C   UNK N   1      -0.951  14.247   0.371  0.00  0.00     0.008 C 
HETATM   44  C   UNK N   1      -1.916  13.798  -0.730  0.00  0.00     0.020 C 
HETATM   45  C   UNK N   1      -1.569  13.896   1.714  0.00  0.00     0.020 C 
BRANCH  43  46
HETATM   46  C   UNK N   1       0.387  13.514   0.131  0.00  0.00     0.202 C 
BRANCH  46  47
HETATM   47  C   UNK N   1       1.504  13.828   1.115  0.00  0.00     0.141 C 
BRANCH  47  48
HETATM   48  N   UNK N   1       2.723  13.451   0.900  0.00  0.00    -0.372 N 
ATOM     49  HN  UNK N   1       3.413  13.645   1.625  1.00  0.00     0.161 HD
BRANCH  48  50
HETATM   50  C   UNK N   1       3.180  12.771  -0.300  0.00  0.00     0.129 C 
BRANCH  50  51
HETATM   51  C   UNK N   1       3.061  13.668  -1.548  0.00  0.00     0.103 C 
BRANCH  51  52
HETATM   52  C   UNK N   1       3.579  15.072  -1.380  0.00  0.00     0.112 C 
BRANCH  52  53
HETATM   53  N   UNK N   1       4.265  15.387  -0.338  0.00  0.00    -0.374 N 
ATOM     54  HN  UNK N   1       4.424  14.671   0.371  1.00  0.00     0.161 HD
BRANCH  53  55
HETATM   55  C   UNK N   1       4.822  16.698  -0.123  0.00  0.00     0.125 C 
BRANCH  55  56
HETATM   56  C   UNK N   1       6.329  16.627  -0.333  0.00  0.00     0.068 C 
BRANCH  56  57
HETATM   57  C   UNK N   1       7.019  15.592   0.562  0.00  0.00     0.269 C 
HETATM   58  F   UNK N   1       7.657  16.229   1.610  0.00  0.00    -0.238 F 
BRANCH  57  59
HETATM   59  C   UNK N   1       8.011  14.830  -0.261  0.00  0.00     0.175 C 
HETATM   60  O   UNK N   1       8.936  15.410  -0.806  0.00  0.00    -0.648 OA
BRANCH  59  61
HETATM   61  O   UNK N   1       7.874  13.498  -0.417  0.00  0.00    -0.774 OA
HETATM   62  H   UNK N   1       7.024  13.118  -0.525  0.00  0.00     0.167 HD
ENDBRANCH  59  61
ENDBRANCH  57  59
ENDBRANCH  56  57
ENDBRANCH  55  56
ENDBRANCH  53  55
ENDBRANCH  52  53
BRANCH  52  63
HETATM   63  O   UNK N   1       3.324  15.988  -2.337  0.00  0.00    -0.350 OA
HETATM   64  H   UNK N   1       3.787  16.459  -3.002  0.00  0.00     0.219 HD
ENDBRANCH  52  63
ENDBRANCH  51  52
ENDBRANCH  50  51
ENDBRANCH  48  50
ENDBRANCH  47  48
BRANCH  47  65
HETATM   65  O   UNK N   1       1.235  14.524   2.237  0.00  0.00    -0.348 OA
HETATM   66  H   UNK N   1       1.561  14.928   3.017  0.00  0.00     0.219 HD
ENDBRANCH  47  65
ENDBRANCH  46  47
BRANCH  46  67
HETATM   67  O   UNK N   1       0.188  12.129   0.108  0.00  0.00    -0.387 OA
HETATM   68  H   UNK N   1      -0.713  11.769   0.092  0.00  0.00     0.210 HD
ENDBRANCH  46  67
ENDBRANCH  43  46
ENDBRANCH  42  43
ENDBRANCH  41  42
ENDBRANCH  37  41
ENDBRANCH  36  37
ENDBRANCH   2  36
TORSDOF 32
