REMARK  1 active torsions:
REMARK  status: ('A' for Active; 'I' for Inactive)
REMARK       I    between atoms: N_1  and  C_2 
REMARK    1  A    between atoms: C_7  and  C_10 
ROOT
HETATM    1  N   UNK N   1       0.289   5.957  -0.000  0.00  0.00    -0.234 N 
HETATM    2  C   UNK N   1       1.543   5.313  -0.000  0.00  0.00     0.676 A 
HETATM    3  N   UNK N   1       2.686   6.046  -0.000  0.00  0.00    -0.202 N 
ATOM      4  HN  UNK N   1       2.633   7.064  -0.000  1.00  0.00     0.183 HD
HETATM    5  C   UNK N   1       3.900   5.434  -0.000  0.00  0.00     0.108 A 
HETATM    6  C   UNK N   1       3.981   4.040   0.000  0.00  0.00     0.048 A 
HETATM    7  C   UNK N   1       2.795   3.301   0.000  0.00  0.00     0.063 A 
HETATM    8  N   UNK N   1       1.603   3.959   0.000  0.00  0.00    -0.191 N 
ATOM      9  HN  UNK N   1       0.736   3.422   0.000  1.00  0.00     0.184 HD
HETATM   10  H   UNK N   1       0.241   6.940  -0.001  0.00  0.00     0.174 HD
HETATM   11  H   UNK N   1      -0.538   5.424  -0.000  0.00  0.00     0.174 HD
ENDROOT
BRANCH   7  12
HETATM   12  C   UNK N   1       2.783   1.823   0.000  0.00  0.00     0.022 A 
HETATM   13  C   UNK N   1       3.905   0.967   0.000  0.00  0.00     0.088 A 
HETATM   14 Cl   UNK N   1       5.612   1.381  -0.000  0.00  0.00    -0.075 Cl
HETATM   15  S   UNK N   1       3.323  -0.585  -0.000  0.00  0.00    -0.065 SA
HETATM   16  C   UNK N   1       1.700  -0.263   0.000  0.00  0.00     0.077 A 
HETATM   17 Cl   UNK N   1       0.402  -1.435  -0.000  0.00  0.00    -0.076 Cl
HETATM   18  C   UNK N   1       1.543   1.119   0.000  0.00  0.00     0.047 A 
ENDBRANCH   7  12
TORSDOF 1
