REMARK  18 active torsions:
REMARK  status: ('A' for Active; 'I' for Inactive)
REMARK    1  A    between atoms: C_4  and  C_1 
REMARK    2  A    between atoms: O_19  and  C_1 
REMARK    3  A    between atoms: C_5  and  C_2 
REMARK    4  A    between atoms: O_20  and  C_2 
REMARK    5  A    between atoms: C_6  and  C_3 
REMARK    6  A    between atoms: O_21  and  C_3 
REMARK    7  A    between atoms: C_7  and  O_22 
REMARK    8  A    between atoms: C_8  and  O_23 
REMARK    9  A    between atoms: C_9  and  O_24 
REMARK   10  A    between atoms: C_10  and  O_25 
REMARK   11  A    between atoms: C_11  and  O_26 
REMARK   12  A    between atoms: C_12  and  O_27 
REMARK   13  A    between atoms: C_13  and  O_28 
REMARK   14  A    between atoms: C_14  and  O_33 
REMARK   15  A    between atoms: C_15  and  O_34 
REMARK   16  A    between atoms: C_16  and  O_29 
REMARK   17  A    between atoms: C_17  and  O_34 
REMARK   18  A    between atoms: C_18  and  O_33 
ROOT
HETATM    1  C   UNK N   1       1.092  -3.680   0.218  0.00  0.00     0.180 C 
HETATM    2  C   UNK N   1      -0.325  -5.704   0.370  0.00  0.00     0.183 C 
HETATM    3  C   UNK N   1       0.384  -6.196  -0.902  0.00  0.00     0.204 C 
HETATM    4  C   UNK N   1      -0.367  -4.150   0.424  0.00  0.00     0.187 C 
HETATM    5  C   UNK N   1       1.787  -5.549  -1.073  0.00  0.00     0.292 C 
HETATM    6  O   UNK N   1       1.656  -4.138  -1.000  0.00  0.00    -0.348 OA
ENDROOT
BRANCH   4   7
HETATM    7  O   UNK N   1      -1.277  -3.597  -0.533  0.00  0.00    -0.348 OA
BRANCH   7   8
HETATM    8  C   UNK N   1      -1.989  -2.489   0.030  0.00  0.00     0.292 C 
HETATM    9  C   UNK N   1      -3.136  -2.039  -0.900  0.00  0.00     0.204 C 
HETATM   10  C   UNK N   1      -3.829  -0.795  -0.290  0.00  0.00     0.183 C 
HETATM   11  C   UNK N   1      -2.783   0.297  -0.011  0.00  0.00     0.180 C 
HETATM   12  C   UNK N   1      -1.672  -0.312   0.864  0.00  0.00     0.179 C 
HETATM   13  O   UNK N   1      -1.091  -1.409   0.196  0.00  0.00    -0.348 OA
BRANCH   9  14
HETATM   14  O   UNK N   1      -4.063  -3.070  -1.068  0.00  0.00    -0.388 OA
HETATM   15  H   UNK N   1      -5.005  -2.870  -1.185  0.00  0.00     0.210 HD
ENDBRANCH   9  14
BRANCH  10  16
HETATM   16  O   UNK N   1      -4.467  -1.142   0.908  0.00  0.00    -0.390 OA
HETATM   17  H   UNK N   1      -4.895  -0.880   1.737  0.00  0.00     0.210 HD
ENDBRANCH  10  16
BRANCH  11  18
HETATM   18  O   UNK N   1      -2.253   0.753  -1.223  0.00  0.00    -0.390 OA
HETATM   19  H   UNK N   1      -1.795   0.593  -2.063  0.00  0.00     0.210 HD
ENDBRANCH  11  18
BRANCH  12  20
HETATM   20  C   UNK N   1      -0.573   0.703   1.193  0.00  0.00     0.198 C 
BRANCH  20  21
HETATM   21  O   UNK N   1       0.147   1.067   0.052  0.00  0.00    -0.398 OA
HETATM   22  H   UNK N   1       0.616   0.760  -0.740  0.00  0.00     0.209 HD
ENDBRANCH  20  21
ENDBRANCH  12  20
ENDBRANCH   7   8
ENDBRANCH   4   7
BRANCH   1  23
HETATM   23  C   UNK N   1       1.396  -2.192   0.331  0.00  0.00     0.198 C 
BRANCH  23  24
HETATM   24  O   UNK N   1       1.262  -1.559  -0.909  0.00  0.00    -0.398 OA
HETATM   25  H   UNK N   1       1.596  -1.259  -1.769  0.00  0.00     0.209 HD
ENDBRANCH  23  24
ENDBRANCH   1  23
BRANCH   2  26
HETATM   26  O   UNK N   1      -1.618  -6.228   0.450  0.00  0.00    -0.390 OA
HETATM   27  H   UNK N   1      -2.381  -5.633   0.505  0.00  0.00     0.210 HD
ENDBRANCH   2  26
BRANCH   3  28
HETATM   28  O   UNK N   1       0.490  -7.593  -0.907  0.00  0.00    -0.388 OA
HETATM   29  H   UNK N   1      -0.311  -8.140  -0.910  0.00  0.00     0.210 HD
ENDBRANCH   3  28
BRANCH   5  30
HETATM   30  O   UNK N   1       2.848  -6.148  -0.307  0.00  0.00    -0.348 OA
BRANCH  30  31
HETATM   31  C   UNK N   1       3.743  -5.363   0.505  0.00  0.00     0.187 C 
HETATM   32  C   UNK N   1       4.411  -4.106  -0.173  0.00  0.00     0.180 C 
HETATM   33  O   UNK N   1       5.303  -4.462  -1.224  0.00  0.00    -0.349 OA
HETATM   34  C   UNK N   1       6.363  -5.304  -0.792  0.00  0.00     0.288 C 
HETATM   35  C   UNK N   1       5.832  -6.600  -0.162  0.00  0.00     0.204 C 
HETATM   36  C   UNK N   1       4.890  -6.265   0.998  0.00  0.00     0.183 C 
BRANCH  32  37
HETATM   37  C   UNK N   1       5.079  -3.183   0.859  0.00  0.00     0.198 C 
BRANCH  37  38
HETATM   38  O   UNK N   1       4.140  -2.694   1.771  0.00  0.00    -0.398 OA
HETATM   39  H   UNK N   1       4.108  -1.960   2.404  0.00  0.00     0.209 HD
ENDBRANCH  37  38
ENDBRANCH  32  37
BRANCH  34  40
HETATM   40  O   UNK N   1       7.228  -4.625   0.077  0.00  0.00    -0.369 OA
HETATM   41  H   UNK N   1       7.935  -4.909   0.678  0.00  0.00     0.212 HD
ENDBRANCH  34  40
BRANCH  35  42
HETATM   42  O   UNK N   1       6.900  -7.379   0.291  0.00  0.00    -0.388 OA
HETATM   43  H   UNK N   1       6.803  -8.291   0.606  0.00  0.00     0.210 HD
ENDBRANCH  35  42
BRANCH  36  44
HETATM   44  O   UNK N   1       4.379  -7.437   1.564  0.00  0.00    -0.390 OA
HETATM   45  H   UNK N   1       3.498  -7.536   1.956  0.00  0.00     0.210 HD
ENDBRANCH  36  44
ENDBRANCH  30  31
ENDBRANCH   5  30
TORSDOF 18
