REMARK  12 active torsions:
REMARK  status: ('A' for Active; 'I' for Inactive)
REMARK    1  A    between atoms: C_9  and  C_4 
REMARK    2  A    between atoms: N_13  and  C_4 
REMARK    3  A    between atoms: C_8  and  C_5 
REMARK    4  A    between atoms: O_21  and  C_5 
REMARK    5  A    between atoms: N_13  and  C_7 
REMARK    6  A    between atoms: P_22  and  C_7 
REMARK    7  A    between atoms: O_14  and  C_10 
REMARK    8  A    between atoms: P_22  and  O_15 
REMARK    9  A    between atoms: P_22  and  O_16 
REMARK   10  A    between atoms: P_23  and  O_18 
REMARK   11  A    between atoms: P_23  and  O_19 
REMARK   12  A    between atoms: P_23  and  O_21 
ROOT
HETATM    1  C   UNK N   1       2.252  -3.203  -0.061  0.00  0.00     0.071 C 
HETATM    2  C   UNK N   1       2.737   0.489  -0.136  0.00  0.00     0.098 A 
HETATM    3  C   UNK N   1       1.951  -1.746  -0.003  0.00  0.00     0.039 A 
HETATM    4  C   UNK N   1       1.450   0.992   0.093  0.00  0.00    -0.008 A 
HETATM    5  C   UNK N   1       0.388   0.084   0.280  0.00  0.00     0.004 A 
HETATM    6  C   UNK N   1       0.644  -1.294   0.229  0.00  0.00     0.096 A 
HETATM    7  N   UNK N   1       2.958  -0.850  -0.177  0.00  0.00    -0.367 N 
ATOM      8  HN  UNK N   1       3.905  -1.193  -0.342  1.00  0.00     0.165 HD
ENDROOT
BRANCH   5   9
HETATM    9  C   UNK N   1      -1.008   0.560   0.541  0.00  0.00     0.157 C 
BRANCH   9  10
HETATM   10  N   UNK N   1      -1.528   1.315  -0.598  0.00  0.00    -0.404 N 
HETATM   11  H   UNK N   1      -1.063   1.396  -1.502  0.00  0.00     0.154 HD
BRANCH  10  12
HETATM   12  C   UNK N   1      -2.811   1.941  -0.260  0.00  0.00     0.185 C 
HETATM   13  C   UNK N   1      -2.682   2.851   0.956  0.00  0.00     0.044 C 
BRANCH  12  14
HETATM   14  P   UNK N   1      -4.136   0.652   0.024  0.00  0.00     0.258 P 
HETATM   15  O   UNK N   1      -5.479   1.329   0.405  0.00  0.00    -0.652 OA
BRANCH  14  16
HETATM   16  O   UNK N   1      -4.528  -0.302  -1.372  0.00  0.00    -0.328 OA
HETATM   17  H   UNK N   1      -5.100  -0.379  -2.152  0.00  0.00     0.220 HD
ENDBRANCH  14  16
BRANCH  14  18
HETATM   18  O   UNK N   1      -3.835  -0.457   1.326  0.00  0.00    -0.328 OA
HETATM   19  H   UNK N   1      -4.288  -0.912   2.053  0.00  0.00     0.220 HD
ENDBRANCH  14  18
ENDBRANCH  12  14
ENDBRANCH  10  12
ENDBRANCH   9  10
ENDBRANCH   5   9
BRANCH   4  20
HETATM   20  C   UNK N   1       1.217   2.477   0.131  0.00  0.00     0.221 C 
BRANCH  20  21
HETATM   21  O   UNK N   1       2.286   3.171  -0.450  0.00  0.00    -0.292 OA
BRANCH  21  22
HETATM   22  P   UNK N   1       2.154   4.845   0.030  0.00  0.00     0.391 P 
HETATM   23  O   UNK N   1       0.754   5.116   0.648  0.00  0.00    -0.632 OA
BRANCH  22  24
HETATM   24  O   UNK N   1       2.294   5.886  -1.351  0.00  0.00    -0.307 OA
HETATM   25  H   UNK N   1       2.837   6.109  -2.123  0.00  0.00     0.222 HD
ENDBRANCH  22  24
BRANCH  22  26
HETATM   26  O   UNK N   1       3.340   5.259   1.228  0.00  0.00    -0.307 OA
HETATM   27  H   UNK N   1       3.872   4.801   1.898  0.00  0.00     0.222 HD
ENDBRANCH  22  26
ENDBRANCH  21  22
ENDBRANCH  20  21
ENDBRANCH   4  20
BRANCH   6  28
HETATM   28  O   UNK N   1      -0.358  -2.179   0.401  0.00  0.00    -0.358 OA
HETATM   29  H   UNK N   1      -1.239  -1.883   0.520  0.00  0.00     0.217 HD
ENDBRANCH   6  28
TORSDOF 12
