REMARK  6 active torsions:
REMARK  status: ('A' for Active; 'I' for Inactive)
REMARK    1  A    between atoms: C_2  and  C_3 
REMARK    2  A    between atoms: C_3  and  C_4 
REMARK    3  A    between atoms: C_4  and  C_5 
REMARK    4  A    between atoms: C_5  and  C_6 
REMARK    5  A    between atoms: C_6  and  O_7 
REMARK    6  A    between atoms: C_6  and  C_8 
ROOT
HETATM    1  C   UNK N   1       3.890   0.820  -0.000  0.00  0.00     0.036 C 
ENDROOT
BRANCH   1   2
HETATM    2  C   UNK N   1       2.733   1.802   0.000  0.00  0.00     0.003 C 
BRANCH   2   3
HETATM    3  C   UNK N   1       1.429   1.035  -0.000  0.00  0.00    -0.000 C 
BRANCH   3   4
HETATM    4  C   UNK N   1       0.271   2.008   0.000  0.00  0.00    -0.005 C 
HETATM    5  C   UNK N   1      -1.031   1.236  -0.000  0.00  0.00     0.005 C 
ENDBRANCH   3   4
ENDBRANCH   2   3
ENDBRANCH   1   2
BRANCH   1   6
HETATM    6  C   UNK N   1       5.239   1.523   0.000  0.00  0.00     0.140 C 
BRANCH   6   7
HETATM    7  O   UNK N   1       5.300   2.923  -0.000  0.00  0.00    -0.392 OA
HETATM    8  H   UNK N   1       6.161   3.371  -0.000  0.00  0.00     0.210 HD
ENDBRANCH   6   7
BRANCH   6   9
HETATM    9  C   UNK N   1       6.512   0.741  -0.000  0.00  0.00    -0.006 C 
HETATM   10  C   UNK N   1       7.696   1.348  -0.000  0.00  0.00     0.009 C 
ENDBRANCH   6   9
ENDBRANCH   1   6
TORSDOF 6
