REMARK  9 active torsions:
REMARK  status: ('A' for Active; 'I' for Inactive)
REMARK    1  A    between atoms: O_1  and  C_2 
REMARK    2  A    between atoms: C_2  and  C_4 
REMARK    3  A    between atoms: C_4  and  N_5 
REMARK    4  A    between atoms: N_5  and  C_6 
REMARK    5  A    between atoms: N_5  and  C_10 
REMARK    6  A    between atoms: C_6  and  C_7 
REMARK    7  A    between atoms: C_7  and  O_8 
REMARK    8  A    between atoms: C_10  and  C_11 
REMARK    9  A    between atoms: C_11  and  O_12 
ROOT
HETATM    1  N   UNK N   1       0.565  -2.882  -0.038  0.00  0.00     0.118 N 
ENDROOT
BRANCH   1   2
HETATM    2  C   UNK N   1       0.845  -4.300  -0.265  0.00  0.00     0.382 C 
BRANCH   2   3
HETATM    3  C   UNK N   1       2.179  -4.757   0.260  0.00  0.00     0.169 C 
HETATM    4  O   UNK N   1       2.930  -3.984   0.834  0.00  0.00    -0.649 OA
BRANCH   3   5
HETATM    5  O   UNK N   1       2.549  -6.039   0.088  0.00  0.00    -0.775 OA
HETATM    6  H   UNK N   1       1.905  -6.709  -0.032  0.00  0.00     0.167 HD
ENDBRANCH   3   5
ENDBRANCH   2   3
ENDBRANCH   1   2
BRANCH   1   7
HETATM    7  C   UNK N   1      -0.838  -2.726  -0.414  0.00  0.00     0.382 C 
BRANCH   7   8
HETATM    8  C   UNK N   1      -1.481  -1.491   0.153  0.00  0.00     0.169 C 
HETATM    9  O   UNK N   1      -0.858  -0.730   0.875  0.00  0.00    -0.649 OA
BRANCH   8  10
HETATM   10  O   UNK N   1      -2.768  -1.228  -0.138  0.00  0.00    -0.775 OA
HETATM   11  H   UNK N   1      -3.057  -0.360  -0.340  0.00  0.00     0.167 HD
ENDBRANCH   8  10
ENDBRANCH   7   8
ENDBRANCH   1   7
BRANCH   1  12
HETATM   12  C   UNK N   1       1.354  -2.124  -1.007  0.00  0.00     0.382 C 
BRANCH  12  13
HETATM   13  C   UNK N   1       2.264  -1.156  -0.316  0.00  0.00     0.169 C 
HETATM   14  O   UNK N   1       3.472  -1.306  -0.382  0.00  0.00    -0.649 OA
BRANCH  13  15
HETATM   15  O   UNK N   1       1.758  -0.102   0.351  0.00  0.00    -0.775 OA
HETATM   16  H   UNK N   1       2.217   0.570   0.815  0.00  0.00     0.167 HD
ENDBRANCH  13  15
ENDBRANCH  12  13
ENDBRANCH   1  12
TORSDOF 9
