REMARK  14 active torsions:
REMARK  status: ('A' for Active; 'I' for Inactive)
REMARK    1  A    between atoms: C_9  and  C_5 
REMARK    2  A    between atoms: C_11  and  C_5 
REMARK    3  A    between atoms: C_12  and  C_6 
REMARK    4  A    between atoms: O_37  and  C_6 
REMARK    5  A    between atoms: O_31  and  C_10 
REMARK    6  A    between atoms: C_18  and  C_11 
REMARK    7  A    between atoms: C_11  and  N_20 
REMARK    8  A    between atoms: C_14  and  O_32 
REMARK    9  A    between atoms: C_15  and  O_33 
REMARK   10  A    between atoms: N_21  and  C_16 
REMARK   11  A    between atoms: O_34  and  C_18 
REMARK   12  A    between atoms: C_19  and  N_30 
REMARK   13  A    between atoms: N_28  and  S_39 
REMARK   14  A    between atoms: S_39  and  O_37 
ROOT
HETATM    1  C   UNK N   1       0.674  -1.865   0.163  0.00  0.00     0.180 C 
HETATM    2  C   UNK N   1       2.145  -2.154  -0.127  0.00  0.00     0.182 C 
HETATM    3  C   UNK N   1       2.711  -0.749  -0.268  0.00  0.00     0.198 C 
HETATM    4  C   UNK N   1       1.463   0.124  -0.209  0.00  0.00     0.262 C 
HETATM    5  O   UNK N   1       0.618  -0.554   0.704  0.00  0.00    -0.353 OA
ENDROOT
BRANCH   1   6
HETATM    6  C   UNK N   1      -0.007  -2.967   0.984  0.00  0.00     0.226 C 
BRANCH   6   7
HETATM    7  O   UNK N   1      -1.420  -2.836   0.970  0.00  0.00    -0.257 OA
BRANCH   7   8
HETATM    8  S   UNK N   1      -2.373  -3.368  -0.451  0.00  0.00     0.363 S 
HETATM    9  O   UNK N   1      -2.263  -2.508  -1.723  0.00  0.00    -0.175 OA
HETATM   10  O   UNK N   1      -1.039  -3.836  -1.056  0.00  0.00    -0.175 OA
BRANCH   8  11
HETATM   11  N   UNK N   1      -2.393  -1.630  -0.106  0.00  0.00    -0.243 N 
HETATM   12  C   UNK N   1      -3.422  -0.999   0.375  0.00  0.00     0.149 C 
ATOM     13  HN  UNK N   1      -1.546  -1.093  -0.297  1.00  0.00     0.182 HD
BRANCH  12  14
HETATM   14  C   UNK N   1      -4.736  -1.690   0.647  0.00  0.00     0.154 C 
BRANCH  14  15
HETATM   15  C   UNK N   1      -5.308  -2.228  -0.668  0.00  0.00     0.071 C 
BRANCH  15  16
HETATM   16  C   UNK N   1      -6.565  -2.997  -0.465  0.00  0.00    -0.056 A 
HETATM   17  C   UNK N   1      -7.795  -2.336  -0.383  0.00  0.00     0.010 A 
HETATM   18  C   UNK N   1      -8.966  -3.071  -0.172  0.00  0.00     0.037 A 
HETATM   19  C   UNK N   1      -8.905  -4.462  -0.040  0.00  0.00     0.065 A 
HETATM   20  C   UNK N   1      -7.676  -5.121  -0.129  0.00  0.00     0.037 A 
HETATM   21  C   UNK N   1      -6.507  -4.389  -0.344  0.00  0.00     0.010 A 
BRANCH  19  22
HETATM   22  O   UNK N   1     -10.027  -5.166   0.174  0.00  0.00    -0.361 OA
HETATM   23  H   UNK N   1     -10.845  -4.733   0.323  0.00  0.00     0.217 HD
ENDBRANCH  19  22
ENDBRANCH  15  16
ENDBRANCH  14  15
BRANCH  14  24
HETATM   24  N   UNK N   1      -4.542  -2.766   1.610  0.00  0.00    -0.419 N 
HETATM   25  H   UNK N   1      -5.126  -3.260   2.284  0.00  0.00     0.150 HD
HETATM   26  H   UNK N   1      -3.582  -3.111   1.610  0.00  0.00     0.150 HD
ENDBRANCH  14  24
ENDBRANCH  12  14
BRANCH  12  27
HETATM   27  O   UNK N   1      -3.312   0.315   0.648  0.00  0.00    -0.347 OA
HETATM   28  H   UNK N   1      -2.482   0.706   0.838  0.00  0.00     0.219 HD
ENDBRANCH  12  27
ENDBRANCH   8  11
ENDBRANCH   7   8
ENDBRANCH   6   7
ENDBRANCH   1   6
BRANCH   2  29
HETATM   29  O   UNK N   1       2.762  -2.794   0.956  0.00  0.00    -0.390 OA
HETATM   30  H   UNK N   1       2.591  -3.385   1.705  0.00  0.00     0.210 HD
ENDBRANCH   2  29
BRANCH   3  31
HETATM   31  O   UNK N   1       3.437  -0.573  -1.448  0.00  0.00    -0.388 OA
HETATM   32  H   UNK N   1       3.794  -0.949  -2.268  0.00  0.00     0.210 HD
ENDBRANCH   3  31
BRANCH   4  33
HETATM   33  N   UNK N   1       1.696   1.537   0.130  0.00  0.00    -0.297 N 
HETATM   34  C   UNK N   1       0.717   2.467   0.289  0.00  0.00     0.188 A 
HETATM   35  N   UNK N   1       1.236   3.714   0.473  0.00  0.00    -0.346 N 
HETATM   36  C   UNK N   1       2.568   3.534   0.410  0.00  0.00     0.122 A 
ATOM     37  HN  UNK N   1       0.730   4.587   0.624  1.00  0.00     0.167 HD
HETATM   38  C   UNK N   1       3.594   4.465   0.471  0.00  0.00     0.131 A 
HETATM   39  C   UNK N   1       2.845   2.230   0.219  0.00  0.00     0.142 A 
HETATM   40  N   UNK N   1       4.877   4.014   0.342  0.00  0.00    -0.337 N 
HETATM   41  C   UNK N   1       5.140   2.680   0.155  0.00  0.00     0.183 A 
ATOM     42  HN  UNK N   1       5.651   4.678   0.386  1.00  0.00     0.168 HD
HETATM   43  N   UNK N   1       4.116   1.776   0.081  0.00  0.00    -0.336 N 
ATOM     44  HN  UNK N   1       4.303   0.785  -0.074  1.00  0.00     0.168 HD
BRANCH  38  45
HETATM   45  N   UNK N   1       3.329   5.840   0.628  0.00  0.00    -0.383 N 
HETATM   46  H   UNK N   1       4.069   6.481   0.737  0.00  0.00     0.157 HD
HETATM   47  H   UNK N   1       2.399   6.163   0.628  0.00  0.00     0.157 HD
ENDBRANCH  38  45
ENDBRANCH   4  33
TORSDOF 14
