REMARK WARNING: 32 MAX_TORS EXCEEDED!!!
REMARK  34 active torsions:
REMARK  status: ('A' for Active; 'I' for Inactive)
REMARK    1  A    between atoms: C_5  and  C_4 
REMARK    2  A    between atoms: C_15  and  C_4 
REMARK    3  A    between atoms: N_29  and  C_5 
REMARK    4  A    between atoms: C_7  and  C_6 
REMARK    5  A    between atoms: N_27  and  C_6 
REMARK    6  A    between atoms: S_59  and  C_7 
REMARK    7  A    between atoms: C_14  and  C_8 
REMARK    8  A    between atoms: O_51  and  C_8 
REMARK    9  A    between atoms: C_13  and  C_9 
REMARK   10  A    between atoms: S_59  and  C_9 
REMARK   11  A    between atoms: C_25  and  C_10 
REMARK   12  A    between atoms: O_52  and  C_10 
REMARK   13  A    between atoms: C_24  and  C_13 
REMARK   14  A    between atoms: N_27  and  C_15 
REMARK   15  A    between atoms: O_38  and  C_15 
REMARK   16  A    between atoms: C_17  and  O_39 
REMARK   17  A    between atoms: C_18  and  O_54 
REMARK   18  A    between atoms: C_22  and  C_19 
REMARK   19  A    between atoms: C_25  and  C_19 
REMARK   20  A    between atoms: C_19  and  O_40 
REMARK   21  A    between atoms: N_26  and  C_20 
REMARK   22  A    between atoms: N_29  and  C_22 
REMARK   23  A    between atoms: O_41  and  C_22 
REMARK   24  A    between atoms: C_23  and  N_37 
REMARK   25  A    between atoms: O_43  and  C_24 
REMARK   26  A    between atoms: P_56  and  O_44 
REMARK   27  A    between atoms: P_56  and  O_45 
REMARK   28  A    between atoms: P_57  and  O_47 
REMARK   29  A    between atoms: P_58  and  O_49 
REMARK   30  A    between atoms: P_57  and  O_51 
REMARK   31  A    between atoms: P_58  and  O_52 
REMARK   32  A    between atoms: P_56  and  O_54 
REMARK   33  A    between atoms: P_57  and  O_55 
REMARK   34  A    between atoms: P_58  and  O_55 
ROOT
HETATM    1  O   UNK N   1      -4.040  17.050   1.544  0.00  0.00    -0.195 OA
ENDROOT
BRANCH   1   2
HETATM    2  P   UNK N   1      -5.461  16.851   0.485  0.00  0.00     0.401 P 
HETATM    3  O   UNK N   1      -4.826  17.845  -0.520  0.00  0.00    -0.631 OA
BRANCH   2   4
HETATM    4  O   UNK N   1      -4.538  15.381   0.508  0.00  0.00    -0.307 OA
HETATM    5  H   UNK N   1      -4.991  14.524   0.521  0.00  0.00     0.222 HD
ENDBRANCH   2   4
BRANCH   2   6
HETATM    6  O   UNK N   1      -5.578  15.837  -0.935  0.00  0.00    -0.294 OA
BRANCH   6   7
HETATM    7  C   UNK N   1      -6.643  16.315  -1.726  0.00  0.00     0.215 C 
BRANCH   7   8
HETATM    8  C   UNK N   1      -7.981  15.680  -1.359  0.00  0.00     0.180 C 
HETATM    9  C   UNK N   1      -8.683  16.356  -0.169  0.00  0.00     0.197 C 
HETATM   10  C   UNK N   1      -9.612  15.240   0.178  0.00  0.00     0.199 C 
HETATM   11  C   UNK N   1      -8.586  14.105   0.139  0.00  0.00     0.262 C 
HETATM   12  O   UNK N   1      -7.832  14.302  -1.043  0.00  0.00    -0.353 OA
BRANCH   9  13
HETATM   13  O   UNK N   1      -9.358  17.553  -0.498  0.00  0.00    -0.286 OA
BRANCH  13  14
HETATM   14  P   UNK N   1      -8.432  18.935   0.074  0.00  0.00     0.391 P 
HETATM   15  O   UNK N   1      -9.437  20.104   0.237  0.00  0.00    -0.632 OA
BRANCH  14  16
HETATM   16  O   UNK N   1      -7.738  18.703   1.652  0.00  0.00    -0.307 OA
HETATM   17  H   UNK N   1      -7.656  18.303   2.531  0.00  0.00     0.222 HD
ENDBRANCH  14  16
BRANCH  14  18
HETATM   18  O   UNK N   1      -7.251  19.470  -1.080  0.00  0.00    -0.307 OA
HETATM   19  H   UNK N   1      -6.662  19.048  -1.725  0.00  0.00     0.222 HD
ENDBRANCH  14  18
ENDBRANCH  13  14
ENDBRANCH   9  13
BRANCH  10  20
HETATM   20  O   UNK N   1     -10.198  15.405   1.436  0.00  0.00    -0.388 OA
HETATM   21  H   UNK N   1     -10.302  15.815   2.309  0.00  0.00     0.210 HD
ENDBRANCH  10  20
BRANCH  11  22
HETATM   22  N   UNK N   1      -9.140  12.750   0.203  0.00  0.00    -0.297 N 
HETATM   23  C   UNK N   1      -8.388  11.619   0.219  0.00  0.00     0.188 A 
HETATM   24  N   UNK N   1      -9.161  10.504   0.342  0.00  0.00    -0.346 N 
HETATM   25  C   UNK N   1     -10.417  10.978   0.401  0.00  0.00     0.122 A 
ATOM     26  HN  UNK N   1      -8.856   9.532   0.380  1.00  0.00     0.167 HD
HETATM   27  C   UNK N   1     -11.615  10.298   0.548  0.00  0.00     0.131 A 
HETATM   28  C   UNK N   1     -10.409  12.322   0.312  0.00  0.00     0.142 A 
HETATM   29  N   UNK N   1     -12.767  11.030   0.589  0.00  0.00    -0.337 N 
HETATM   30  C   UNK N   1     -12.737  12.400   0.489  0.00  0.00     0.183 A 
ATOM     31  HN  UNK N   1     -13.662  10.553   0.694  1.00  0.00     0.168 HD
HETATM   32  N   UNK N   1     -11.545  13.058   0.355  0.00  0.00    -0.336 N 
ATOM     33  HN  UNK N   1     -11.513  14.075   0.289  1.00  0.00     0.168 HD
BRANCH  27  34
HETATM   34  N   UNK N   1     -11.649   8.894   0.666  0.00  0.00    -0.383 N 
HETATM   35  H   UNK N   1     -12.511   8.424   0.748  0.00  0.00     0.157 HD
HETATM   36  H   UNK N   1     -10.809   8.381   0.666  0.00  0.00     0.157 HD
ENDBRANCH  27  34
ENDBRANCH  11  22
ENDBRANCH   7   8
ENDBRANCH   6   7
ENDBRANCH   2   6
ENDBRANCH   1   2
BRANCH   1  37
HETATM   37  P   UNK N   1      -2.503  17.402   0.734  0.00  0.00     0.401 P 
HETATM   38  O   UNK N   1      -1.459  17.584   1.872  0.00  0.00    -0.631 OA
BRANCH  37  39
HETATM   39  O   UNK N   1      -2.524  18.937  -0.081  0.00  0.00    -0.307 OA
HETATM   40  H   UNK N   1      -1.788  19.376  -0.536  0.00  0.00     0.222 HD
ENDBRANCH  37  39
BRANCH  37  41
HETATM   41  O   UNK N   1      -1.964  16.118  -0.331  0.00  0.00    -0.296 OA
BRANCH  41  42
HETATM   42  C   UNK N   1      -1.143  15.314   0.461  0.00  0.00     0.192 C 
BRANCH  42  43
HETATM   43  C   UNK N   1      -1.273  13.804   0.214  0.00  0.00     0.008 C 
HETATM   44  C   UNK N   1      -2.613  13.430  -0.400  0.00  0.00     0.020 C 
HETATM   45  C   UNK N   1      -1.214  13.155   1.589  0.00  0.00     0.020 C 
BRANCH  43  46
HETATM   46  C   UNK N   1      -0.132  13.270  -0.689  0.00  0.00     0.202 C 
BRANCH  46  47
HETATM   47  C   UNK N   1       1.220  13.753  -0.251  0.00  0.00     0.141 C 
BRANCH  47  48
HETATM   48  N   UNK N   1       1.590  13.619   0.981  0.00  0.00    -0.372 N 
ATOM     49  HN  UNK N   1       0.950  13.144   1.618  1.00  0.00     0.161 HD
BRANCH  48  50
HETATM   50  C   UNK N   1       2.844  14.093   1.520  0.00  0.00     0.129 C 
BRANCH  50  51
HETATM   51  C   UNK N   1       3.011  15.608   1.368  0.00  0.00     0.103 C 
BRANCH  51  52
HETATM   52  C   UNK N   1       3.726  16.102   0.117  0.00  0.00     0.112 C 
BRANCH  52  53
HETATM   53  N   UNK N   1       4.522  15.372  -0.602  0.00  0.00    -0.374 N 
ATOM     54  HN  UNK N   1       4.948  15.802  -1.424  1.00  0.00     0.161 HD
BRANCH  53  55
HETATM   55  C   UNK N   1       4.849  13.990  -0.321  0.00  0.00     0.131 C 
BRANCH  55  56
HETATM   56  C   UNK N   1       6.214  13.844   0.340  0.00  0.00     0.093 C 
BRANCH  56  57
HETATM   57  S   UNK N   1       6.589  15.159   1.552  0.00  0.00    -0.167 SA
BRANCH  57  58
HETATM   58  C   UNK N   1       7.066  16.299   0.202  0.00  0.00     0.088 C 
BRANCH  58  59
HETATM   59  C   UNK N   1       8.548  16.274  -0.138  0.00  0.00     0.089 C 
HETATM   60  C   UNK N   1       9.316  16.976   0.970  0.00  0.00     0.022 C 
BRANCH  59  61
HETATM   61  C   UNK N   1       9.051  14.872  -0.391  0.00  0.00     0.144 C 
HETATM   62  O   UNK N   1       9.934  14.391   0.303  0.00  0.00    -0.650 OA
BRANCH  61  63
HETATM   63  O   UNK N   1       8.519  14.138  -1.388  0.00  0.00    -0.776 OA
HETATM   64  H   UNK N   1       7.892  14.203  -2.082  0.00  0.00     0.167 HD
ENDBRANCH  61  63
ENDBRANCH  59  61
ENDBRANCH  58  59
ENDBRANCH  57  58
ENDBRANCH  56  57
ENDBRANCH  55  56
ENDBRANCH  53  55
ENDBRANCH  52  53
BRANCH  52  65
HETATM   65  O   UNK N   1       3.534  17.384  -0.242  0.00  0.00    -0.350 OA
HETATM   66  H   UNK N   1       4.240  17.947  -0.493  0.00  0.00     0.219 HD
ENDBRANCH  52  65
ENDBRANCH  51  52
ENDBRANCH  50  51
ENDBRANCH  48  50
ENDBRANCH  47  48
BRANCH  47  67
HETATM   67  O   UNK N   1       2.006  14.362  -1.159  0.00  0.00    -0.348 OA
HETATM   68  H   UNK N   1       2.646  14.100  -1.790  0.00  0.00     0.219 HD
ENDBRANCH  47  67
ENDBRANCH  46  47
BRANCH  46  69
HETATM   69  O   UNK N   1      -0.140  11.871  -0.701  0.00  0.00    -0.387 OA
HETATM   70  H   UNK N   1      -0.982  11.391  -0.708  0.00  0.00     0.210 HD
ENDBRANCH  46  69
ENDBRANCH  43  46
ENDBRANCH  42  43
ENDBRANCH  41  42
ENDBRANCH  37  41
ENDBRANCH   1  37
TORSDOF 34
