REMARK  29 active torsions:
REMARK  status: ('A' for Active; 'I' for Inactive)
REMARK    1  A    between atoms: C_1  and  N_38 
REMARK    2  A    between atoms: C_3  and  O_6 
REMARK    3  A    between atoms: C_4  and  C_32 
REMARK    4  A    between atoms: C_5  and  O_33 
REMARK    5  A    between atoms: N_9  and  C_7 
REMARK    6  A    between atoms: C_7  and  C_8 
REMARK    7  A    between atoms: C_8  and  S_51 
REMARK       I    between atoms: C_10  and  N_9 
REMARK    8  A    between atoms: C_13  and  C_10 
REMARK    9  A    between atoms: C_12  and  N_14 
REMARK   10  A    between atoms: C_13  and  C_12 
REMARK       I    between atoms: C_16  and  N_14 
REMARK   11  A    between atoms: C_16  and  C_21 
REMARK   12  A    between atoms: C_19  and  C_17 
REMARK   13  A    between atoms: C_17  and  O_23 
REMARK   14  A    between atoms: C_21  and  C_19 
REMARK   15  A    between atoms: C_21  and  O_22 
REMARK   16  A    between atoms: O_23  and  P_30 
REMARK   17  A    between atoms: P_30  and  O_24 
REMARK   18  A    between atoms: O_24  and  P_31 
REMARK   19  A    between atoms: P_31  and  O_25 
REMARK   20  A    between atoms: C_32  and  O_25 
REMARK   21  A    between atoms: P_30  and  O_27 
REMARK   22  A    between atoms: P_31  and  O_29 
REMARK   23  A    between atoms: O_33  and  P_36 
REMARK   24  A    between atoms: P_36  and  O_34 
REMARK   25  A    between atoms: P_36  and  O_35 
REMARK   26  A    between atoms: N_50  and  C_46 
REMARK   27  A    between atoms: S_51  and  C_54 
REMARK   28  A    between atoms: C_54  and  C_52 
REMARK   29  A    between atoms: C_52  and  C_56 
ROOT
HETATM    1  O   UNK N   1      19.902   1.191   0.665  0.00  0.00    -0.631 OA
HETATM    2  P   UNK N   1      20.847   0.035   0.239  0.00  0.00     0.401 P 
ENDROOT
BRANCH   2   3
HETATM    3  O   UNK N   1      20.768  -1.441   1.146  0.00  0.00    -0.195 OA
BRANCH   3   4
HETATM    4  P   UNK N   1      19.134  -2.055   1.135  0.00  0.00     0.401 P 
HETATM    5  O   UNK N   1      18.984  -2.487   2.617  0.00  0.00    -0.631 OA
BRANCH   4   6
HETATM    6  O   UNK N   1      17.763  -0.972   0.969  0.00  0.00    -0.296 OA
BRANCH   6   7
HETATM    7  C   UNK N   1      17.428  -0.805  -0.388  0.00  0.00     0.192 C 
BRANCH   7   8
HETATM    8  C   UNK N   1      15.960  -0.309  -0.553  0.00  0.00     0.009 C 
HETATM    9  C   UNK N   1      15.452   0.351   0.729  0.00  0.00     0.020 C 
HETATM   10  C   UNK N   1      15.965   0.762  -1.628  0.00  0.00     0.020 C 
BRANCH   8  11
HETATM   11  C   UNK N   1      14.972  -1.416  -1.013  0.00  0.00     0.219 C 
BRANCH  11  12
HETATM   12  C   UNK N   1      15.042  -2.700  -0.232  0.00  0.00     0.247 C 
HETATM   13  N   UNK N   1      16.175  -3.440  -0.320  0.00  0.00    -0.358 N 
HETATM   14  H   UNK N   1      16.875  -3.081  -0.913  0.00  0.00     0.162 HD
HETATM   15  O   UNK N   1      14.089  -3.075   0.435  0.00  0.00    -0.271 OA
BRANCH  13  16
HETATM   16  C   UNK N   1      16.494  -4.690   0.344  0.00  0.00     0.132 C 
BRANCH  16  17
HETATM   17  C   UNK N   1      15.362  -5.431   1.032  0.00  0.00     0.122 C 
BRANCH  17  18
HETATM   18  C   UNK N   1      14.826  -6.525   0.155  0.00  0.00     0.219 C 
HETATM   19  N   UNK N   1      15.620  -7.513  -0.338  0.00  0.00    -0.360 N 
HETATM   20  H   UNK N   1      15.208  -8.205  -0.904  0.00  0.00     0.162 HD
HETATM   21  O   UNK N   1      13.635  -6.536  -0.100  0.00  0.00    -0.274 OA
BRANCH  19  22
HETATM   22  C   UNK N   1      17.037  -7.598  -0.073  0.00  0.00     0.133 C 
BRANCH  22  23
HETATM   23  C   UNK N   1      17.825  -7.673  -1.374  0.00  0.00     0.102 C 
BRANCH  23  24
HETATM   24  S   UNK N   1      18.833  -6.173  -1.611  0.00  0.00    -0.090 SA
BRANCH  24  25
HETATM   25  C   UNK N   1      20.120  -6.648  -0.446  0.00  0.00     0.193 C 
HETATM   26  O   UNK N   1      19.828  -6.922   0.708  0.00  0.00    -0.285 OA
BRANCH  25  27
HETATM   27  C   UNK N   1      21.558  -6.558  -0.852  0.00  0.00     0.168 C 
BRANCH  27  28
HETATM   28  C   UNK N   1      22.329  -7.816  -0.584  0.00  0.00     0.130 C 
HETATM   29  C   UNK N   1      22.498  -8.325   0.810  0.00  0.00     0.091 C 
HETATM   30  O   UNK N   1      22.880  -8.394  -1.505  0.00  0.00    -0.298 OA
ENDBRANCH  27  28
ENDBRANCH  25  27
ENDBRANCH  24  25
ENDBRANCH  23  24
ENDBRANCH  22  23
ENDBRANCH  19  22
ENDBRANCH  17  18
ENDBRANCH  16  17
ENDBRANCH  13  16
ENDBRANCH  11  12
BRANCH  11  31
HETATM   31  O   UNK N   1      13.659  -0.924  -1.049  0.00  0.00    -0.385 OA
HETATM   32  H   UNK N   1      13.500   0.033  -1.074  0.00  0.00     0.210 HD
ENDBRANCH  11  31
ENDBRANCH   8  11
ENDBRANCH   7   8
ENDBRANCH   6   7
ENDBRANCH   4   6
BRANCH   4  33
HETATM   33  O   UNK N   1      19.029  -3.578   0.321  0.00  0.00    -0.307 OA
HETATM   34  H   UNK N   1      18.260  -3.953  -0.135  0.00  0.00     0.222 HD
ENDBRANCH   4  33
ENDBRANCH   3   4
ENDBRANCH   2   3
BRANCH   2  35
HETATM   35  O   UNK N   1      22.131   0.439  -0.868  0.00  0.00    -0.294 OA
BRANCH  35  36
HETATM   36  C   UNK N   1      22.540  -0.767  -1.451  0.00  0.00     0.215 C 
BRANCH  36  37
HETATM   37  C   UNK N   1      24.069  -0.985  -1.358  0.00  0.00     0.180 C 
HETATM   38  O   UNK N   1      24.733   0.211  -0.983  0.00  0.00    -0.353 OA
HETATM   39  C   UNK N   1      25.271  -0.002   0.308  0.00  0.00     0.262 C 
HETATM   40  C   UNK N   1      24.621  -1.257   0.871  0.00  0.00     0.199 C 
HETATM   41  C   UNK N   1      24.481  -2.071  -0.369  0.00  0.00     0.197 C 
BRANCH  39  42
HETATM   42  N   UNK N   1      26.742  -0.007   0.230  0.00  0.00    -0.297 N 
HETATM   43  C   UNK N   1      27.622  -0.994  -0.025  0.00  0.00     0.142 A 
HETATM   44  C   UNK N   1      28.869  -0.481  -0.057  0.00  0.00     0.122 A 
HETATM   45  N   UNK N   1      27.380  -2.306  -0.238  0.00  0.00    -0.336 N 
HETATM   46  C   UNK N   1      29.956  -1.303  -0.314  0.00  0.00     0.131 A 
HETATM   47  N   UNK N   1      28.826   0.841   0.172  0.00  0.00    -0.346 N 
HETATM   48  N   UNK N   1      29.721  -2.632  -0.519  0.00  0.00    -0.337 N 
HETATM   49  C   UNK N   1      28.444  -3.134  -0.480  0.00  0.00     0.183 A 
ATOM     50  HN  UNK N   1      30.503  -3.260  -0.703  1.00  0.00     0.168 HD
HETATM   51  C   UNK N   1      27.501   1.112   0.344  0.00  0.00     0.188 A 
ATOM     52  HN  UNK N   1      29.608   1.495   0.209  1.00  0.00     0.167 HD
ATOM     53  HN  UNK N   1      26.427  -2.671  -0.219  1.00  0.00     0.168 HD
BRANCH  46  54
HETATM   54  N   UNK N   1      31.267  -0.789  -0.373  0.00  0.00    -0.383 N 
HETATM   55  H   UNK N   1      32.036  -1.402  -0.413  0.00  0.00     0.157 HD
HETATM   56  H   UNK N   1      31.413   0.185  -0.373  0.00  0.00     0.157 HD
ENDBRANCH  46  54
ENDBRANCH  39  42
BRANCH  40  57
HETATM   57  O   UNK N   1      25.380  -1.882   1.862  0.00  0.00    -0.388 OA
HETATM   58  H   UNK N   1      25.267  -2.556   2.551  0.00  0.00     0.210 HD
ENDBRANCH  40  57
BRANCH  41  59
HETATM   59  O   UNK N   1      23.516  -3.077  -0.250  0.00  0.00    -0.286 OA
BRANCH  59  60
HETATM   60  P   UNK N   1      24.340  -4.572   0.122  0.00  0.00     0.391 P 
HETATM   61  O   UNK N   1      24.438  -5.417  -1.177  0.00  0.00    -0.632 OA
BRANCH  60  62
HETATM   62  O   UNK N   1      23.401  -5.481   1.258  0.00  0.00    -0.307 OA
HETATM   63  H   UNK N   1      22.697  -5.280   1.894  0.00  0.00     0.222 HD
ENDBRANCH  60  62
BRANCH  60  64
HETATM   64  O   UNK N   1      25.946  -4.393   0.746  0.00  0.00    -0.307 OA
HETATM   65  H   UNK N   1      26.482  -5.122   1.095  0.00  0.00     0.222 HD
ENDBRANCH  60  64
ENDBRANCH  59  60
ENDBRANCH  41  59
ENDBRANCH  36  37
ENDBRANCH  35  36
ENDBRANCH   2  35
BRANCH   2  66
HETATM   66  O   UNK N   1      21.931   0.552   1.485  0.00  0.00    -0.307 OA
HETATM   67  H   UNK N   1      22.486   0.170   2.183  0.00  0.00     0.222 HD
ENDBRANCH   2  66
TORSDOF 29
