REMARK WARNING: 32 MAX_TORS EXCEEDED!!!
REMARK  36 active torsions:
REMARK  status: ('A' for Active; 'I' for Inactive)
REMARK    1  A    between atoms: C_7  and  C_1 
REMARK    2  A    between atoms: O_37  and  C_1 
REMARK    3  A    between atoms: C_8  and  C_2 
REMARK    4  A    between atoms: O_38  and  C_2 
REMARK    5  A    between atoms: C_9  and  C_3 
REMARK    6  A    between atoms: O_39  and  C_3 
REMARK    7  A    between atoms: C_10  and  C_4 
REMARK    8  A    between atoms: O_40  and  C_4 
REMARK    9  A    between atoms: C_11  and  C_5 
REMARK   10  A    between atoms: O_41  and  C_5 
REMARK   11  A    between atoms: C_12  and  C_6 
REMARK   12  A    between atoms: O_42  and  C_6 
REMARK   13  A    between atoms: C_13  and  O_43 
REMARK   14  A    between atoms: C_14  and  O_44 
REMARK   15  A    between atoms: C_15  and  O_45 
REMARK   16  A    between atoms: C_16  and  O_46 
REMARK   17  A    between atoms: C_17  and  O_47 
REMARK   18  A    between atoms: C_18  and  O_48 
REMARK   19  A    between atoms: C_19  and  O_49 
REMARK   20  A    between atoms: C_20  and  O_50 
REMARK   21  A    between atoms: C_21  and  O_51 
REMARK   22  A    between atoms: C_22  and  O_52 
REMARK   23  A    between atoms: C_23  and  O_53 
REMARK   24  A    between atoms: C_24  and  O_54 
REMARK   25  A    between atoms: C_25  and  O_55 
REMARK   26  A    between atoms: C_26  and  O_63 
REMARK   27  A    between atoms: C_27  and  O_64 
REMARK   28  A    between atoms: C_28  and  S_65 
REMARK   29  A    between atoms: C_29  and  S_66 
REMARK   30  A    between atoms: C_30  and  S_67 
REMARK   31  A    between atoms: C_31  and  O_56 
REMARK   32  A    between atoms: C_32  and  O_64 
REMARK   33  A    between atoms: C_33  and  O_63 
REMARK   34  A    between atoms: C_34  and  S_66 
REMARK   35  A    between atoms: C_35  and  S_65 
REMARK   36  A    between atoms: C_36  and  S_67 
ROOT
HETATM    1  S   UNK N   1       7.865  -8.246  -0.448  0.00  0.00    -0.124 SA
ENDROOT
BRANCH   1   2
HETATM    2  C   UNK N   1       8.385  -8.536   1.321  0.00  0.00     0.112 C 
HETATM    3  C   UNK N   1       9.805  -7.994   1.348  0.00  0.00     0.164 C 
HETATM    4  O   UNK N   1      10.489  -8.588   0.260  0.00  0.00    -0.350 OA
HETATM    5  C   UNK N   1      10.468 -10.012   0.146  0.00  0.00     0.292 C 
HETATM    6  C   UNK N   1       9.827 -10.690   1.368  0.00  0.00     0.203 C 
HETATM    7  C   UNK N   1       8.510 -10.018   1.807  0.00  0.00     0.168 C 
BRANCH   3   8
HETATM    8  C   UNK N   1       9.851  -6.480   1.144  0.00  0.00     0.197 C 
BRANCH   8   9
HETATM    9  O   UNK N   1       9.288  -5.817   2.235  0.00  0.00    -0.398 OA
HETATM   10  H   UNK N   1       9.491  -5.247   2.993  0.00  0.00     0.209 HD
ENDBRANCH   8   9
ENDBRANCH   3   8
BRANCH   5  11
HETATM   11  O   UNK N   1      11.789 -10.525   0.069  0.00  0.00    -0.348 OA
BRANCH  11  12
HETATM   12  C   UNK N   1      12.690  -9.831  -0.790  0.00  0.00     0.187 C 
HETATM   13  C   UNK N   1      14.031 -10.600  -0.747  0.00  0.00     0.178 C 
HETATM   14  O   UNK N   1      15.056 -10.004  -1.545  0.00  0.00    -0.363 OA
HETATM   15  C   UNK N   1      15.093  -8.579  -1.505  0.00  0.00     0.215 C 
HETATM   16  C   UNK N   1      14.373  -7.928  -0.338  0.00  0.00     0.188 C 
HETATM   17  C   UNK N   1      12.929  -8.339  -0.375  0.00  0.00     0.181 C 
BRANCH  13  18
HETATM   18  C   UNK N   1      13.802 -12.031  -1.229  0.00  0.00     0.198 C 
BRANCH  18  19
HETATM   19  O   UNK N   1      14.946 -12.805  -1.026  0.00  0.00    -0.398 OA
HETATM   20  H   UNK N   1      14.877 -13.762  -0.885  0.00  0.00     0.209 HD
ENDBRANCH  18  19
ENDBRANCH  13  18
BRANCH  15  21
HETATM   21  S   UNK N   1      16.775  -7.884  -1.537  0.00  0.00    -0.124 SA
BRANCH  21  22
HETATM   22  C   UNK N   1      17.973  -8.982  -0.645  0.00  0.00     0.112 C 
HETATM   23  C   UNK N   1      18.823  -8.191   0.384  0.00  0.00     0.164 C 
HETATM   24  O   UNK N   1      20.009  -8.917   0.667  0.00  0.00    -0.350 OA
HETATM   25  C   UNK N   1      19.731 -10.157   1.296  0.00  0.00     0.288 C 
HETATM   26  C   UNK N   1      18.795 -11.043   0.445  0.00  0.00     0.203 C 
HETATM   27  C   UNK N   1      17.521 -10.285   0.066  0.00  0.00     0.168 C 
BRANCH  23  28
HETATM   28  C   UNK N   1      19.233  -6.819  -0.144  0.00  0.00     0.197 C 
BRANCH  28  29
HETATM   29  O   UNK N   1      19.826  -6.069   0.875  0.00  0.00    -0.398 OA
HETATM   30  H   UNK N   1      20.482  -6.165   1.582  0.00  0.00     0.209 HD
ENDBRANCH  28  29
ENDBRANCH  23  28
BRANCH  25  31
HETATM   31  O   UNK N   1      20.938 -10.837   1.467  0.00  0.00    -0.369 OA
HETATM   32  H   UNK N   1      20.949 -11.799   1.586  0.00  0.00     0.212 HD
ENDBRANCH  25  31
BRANCH  26  33
HETATM   33  O   UNK N   1      18.478 -12.215   1.138  0.00  0.00    -0.388 OA
HETATM   34  H   UNK N   1      17.664 -12.431   1.618  0.00  0.00     0.210 HD
ENDBRANCH  26  33
BRANCH  27  35
HETATM   35  O   UNK N   1      16.785 -10.021   1.226  0.00  0.00    -0.392 OA
HETATM   36  H   UNK N   1      16.688  -9.488   2.030  0.00  0.00     0.210 HD
ENDBRANCH  27  35
ENDBRANCH  21  22
ENDBRANCH  15  21
BRANCH  16  37
HETATM   37  O   UNK N   1      14.943  -8.317   0.874  0.00  0.00    -0.389 OA
HETATM   38  H   UNK N   1      14.907  -8.796   1.717  0.00  0.00     0.210 HD
ENDBRANCH  16  37
BRANCH  17  39
HETATM   39  O   UNK N   1      12.243  -7.510  -1.274  0.00  0.00    -0.390 OA
HETATM   40  H   UNK N   1      12.502  -6.812  -1.896  0.00  0.00     0.210 HD
ENDBRANCH  17  39
ENDBRANCH  11  12
ENDBRANCH   5  11
BRANCH   6  41
HETATM   41  O   UNK N   1       9.681 -12.068   1.187  0.00  0.00    -0.388 OA
HETATM   42  H   UNK N   1       8.802 -12.459   1.062  0.00  0.00     0.210 HD
ENDBRANCH   6  41
BRANCH   7  43
HETATM   43  O   UNK N   1       7.404 -10.805   1.513  0.00  0.00    -0.392 OA
HETATM   44  H   UNK N   1       6.542 -10.411   1.308  0.00  0.00     0.210 HD
ENDBRANCH   7  43
ENDBRANCH   1   2
BRANCH   1  45
HETATM   45  C   UNK N   1       6.247  -9.001  -0.527  0.00  0.00     0.215 C 
HETATM   46  C   UNK N   1       5.411  -8.629   0.706  0.00  0.00     0.188 C 
HETATM   47  C   UNK N   1       4.051  -9.208   0.483  0.00  0.00     0.181 C 
HETATM   48  C   UNK N   1       4.161 -10.771   0.280  0.00  0.00     0.187 C 
HETATM   49  C   UNK N   1       5.156 -11.060  -0.883  0.00  0.00     0.178 C 
HETATM   50  O   UNK N   1       6.394 -10.396  -0.698  0.00  0.00    -0.363 OA
BRANCH  46  51
HETATM   51  O   UNK N   1       5.320  -7.237   0.834  0.00  0.00    -0.389 OA
HETATM   52  H   UNK N   1       6.124  -6.701   0.922  0.00  0.00     0.210 HD
ENDBRANCH  46  51
BRANCH  47  53
HETATM   53  O   UNK N   1       3.565  -8.567  -0.652  0.00  0.00    -0.390 OA
HETATM   54  H   UNK N   1       3.782  -8.049  -1.443  0.00  0.00     0.210 HD
ENDBRANCH  47  53
BRANCH  48  55
HETATM   55  O   UNK N   1       2.947 -11.534   0.096  0.00  0.00    -0.348 OA
BRANCH  55  56
HETATM   56  C   UNK N   1       1.801 -10.747  -0.140  0.00  0.00     0.292 C 
HETATM   57  C   UNK N   1       0.468 -11.491  -0.016  0.00  0.00     0.203 C 
HETATM   58  C   UNK N   1      -0.624 -10.381  -0.056  0.00  0.00     0.168 C 
HETATM   59  C   UNK N   1      -0.447  -9.434  -1.280  0.00  0.00     0.112 C 
HETATM   60  C   UNK N   1       1.023  -9.074  -1.512  0.00  0.00     0.164 C 
HETATM   61  O   UNK N   1       1.853 -10.213  -1.452  0.00  0.00    -0.350 OA
BRANCH  57  62
HETATM   62  O   UNK N   1       0.320 -12.396  -1.073  0.00  0.00    -0.388 OA
HETATM   63  H   UNK N   1      -0.275 -12.620  -1.806  0.00  0.00     0.210 HD
ENDBRANCH  57  62
BRANCH  58  64
HETATM   64  O   UNK N   1      -1.903 -10.942  -0.044  0.00  0.00    -0.392 OA
HETATM   65  H   UNK N   1      -2.684 -10.367  -0.036  0.00  0.00     0.210 HD
ENDBRANCH  58  64
BRANCH  59  66
HETATM   66  S   UNK N   1      -1.421  -7.856  -1.167  0.00  0.00    -0.124 SA
BRANCH  66  67
HETATM   67  C   UNK N   1      -0.945  -7.086   0.479  0.00  0.00     0.215 C 
HETATM   68  C   UNK N   1      -1.716  -5.775   0.750  0.00  0.00     0.188 C 
HETATM   69  C   UNK N   1      -1.165  -4.617  -0.097  0.00  0.00     0.181 C 
HETATM   70  C   UNK N   1       0.333  -4.481   0.185  0.00  0.00     0.180 C 
HETATM   71  C   UNK N   1       1.018  -5.836  -0.082  0.00  0.00     0.178 C 
HETATM   72  O   UNK N   1       0.451  -6.882   0.704  0.00  0.00    -0.363 OA
BRANCH  68  73
HETATM   73  O   UNK N   1      -3.084  -5.947   0.526  0.00  0.00    -0.389 OA
HETATM   74  H   UNK N   1      -3.662  -5.185   0.370  0.00  0.00     0.210 HD
ENDBRANCH  68  73
BRANCH  69  75
HETATM   75  O   UNK N   1      -1.373  -4.855  -1.460  0.00  0.00    -0.390 OA
HETATM   76  H   UNK N   1      -1.588  -4.812  -2.405  0.00  0.00     0.210 HD
ENDBRANCH  69  75
BRANCH  70  77
HETATM   77  O   UNK N   1       0.532  -4.097   1.517  0.00  0.00    -0.390 OA
HETATM   78  H   UNK N   1       0.832  -4.084   2.439  0.00  0.00     0.210 HD
ENDBRANCH  70  77
BRANCH  71  79
HETATM   79  C   UNK N   1       2.508  -5.747   0.261  0.00  0.00     0.198 C 
BRANCH  79  80
HETATM   80  O   UNK N   1       3.153  -4.782  -0.516  0.00  0.00    -0.398 OA
HETATM   81  H   UNK N   1       3.957  -4.835  -1.056  0.00  0.00     0.209 HD
ENDBRANCH  79  80
ENDBRANCH  71  79
ENDBRANCH  66  67
ENDBRANCH  59  66
BRANCH  60  82
HETATM   82  C   UNK N   1       1.268  -8.344  -2.831  0.00  0.00     0.197 C 
BRANCH  82  83
HETATM   83  O   UNK N   1       1.055  -9.192  -3.918  0.00  0.00    -0.398 OA
HETATM   84  H   UNK N   1       0.470  -9.359  -4.674  0.00  0.00     0.209 HD
ENDBRANCH  82  83
ENDBRANCH  60  82
ENDBRANCH  55  56
ENDBRANCH  48  55
BRANCH  49  85
HETATM   85  C   UNK N   1       5.497 -12.550  -0.947  0.00  0.00     0.198 C 
BRANCH  85  86
HETATM   86  O   UNK N   1       4.386 -13.327  -1.276  0.00  0.00    -0.398 OA
HETATM   87  H   UNK N   1       3.532 -12.928  -1.505  0.00  0.00     0.209 HD
ENDBRANCH  85  86
ENDBRANCH  49  85
ENDBRANCH   1  45
TORSDOF 36
