REMARK  0 active torsions:
REMARK  status: ('A' for Active; 'I' for Inactive)
ROOT
HETATM    1  C   UNK N   1       1.889   1.176   0.000  0.00  0.00     0.193 A 
HETATM    2  C   UNK N   1       1.889  -0.351   0.000  0.00  0.00     0.193 A 
HETATM    3  O   UNK N   1       0.692  -1.083   0.000  0.00  0.00    -0.387 OA
HETATM    4  C   UNK N   1      -0.506  -0.350   0.000  0.00  0.00     0.193 A 
HETATM    5  C   UNK N   1      -0.506   1.175   0.000  0.00  0.00     0.193 A 
HETATM    6  O   UNK N   1       0.692   1.908   0.000  0.00  0.00    -0.387 OA
ENDROOT
TORSDOF 0
