REMARK  13 active torsions:
REMARK  status: ('A' for Active; 'I' for Inactive)
REMARK    1  A    between atoms: C_23  and  C_18 
REMARK    2  A    between atoms: C_29  and  C_18 
REMARK    3  A    between atoms: C_22  and  C_19 
REMARK    4  A    between atoms: N_37  and  C_19 
REMARK    5  A    between atoms: C_26  and  C_20 
REMARK    6  A    between atoms: O_39  and  C_21 
REMARK    7  A    between atoms: C_25  and  C_24 
REMARK    8  A    between atoms: C_32  and  C_27 
REMARK    9  A    between atoms: C_28  and  N_35 
REMARK   10  A    between atoms: C_30  and  C_29 
REMARK   11  A    between atoms: C_29  and  N_33 
REMARK   12  A    between atoms: C_30  and  O_40 
REMARK   13  A    between atoms: O_42  and  C_32 
ROOT
HETATM    1  C   UNK N   1       1.997   3.924   1.232  0.00  0.00     0.135 C 
HETATM    2  N   UNK N   1       1.955   3.163   0.191  0.00  0.00    -0.359 N 
ATOM      3  HN  UNK N   1       1.354   2.344   0.286  1.00  0.00     0.162 HD
ENDROOT
BRANCH   1   4
HETATM    4  C   UNK N   1       2.642   5.287   1.262  0.00  0.00     0.162 C 
BRANCH   4   5
HETATM    5  C   UNK N   1       4.086   5.279   0.714  0.00  0.00     0.072 C 
BRANCH   5   6
HETATM    6  C   UNK N   1       4.748   6.608   0.459  0.00  0.00    -0.055 A 
HETATM    7  C   UNK N   1       6.139   6.698   0.396  0.00  0.00     0.008 A 
HETATM    8  C   UNK N   1       6.748   7.927   0.110  0.00  0.00     0.020 A 
HETATM    9  C   UNK N   1       5.975   9.081  -0.130  0.00  0.00     0.051 A 
HETATM   10  C   UNK N   1       4.564   8.975  -0.087  0.00  0.00     0.019 A 
HETATM   11  C   UNK N   1       3.988   7.746   0.202  0.00  0.00     0.022 A 
BRANCH   9  12
HETATM   12  C   UNK N   1       6.671  10.363  -0.420  0.00  0.00     0.177 C 
HETATM   13  O   UNK N   1       7.891  10.397  -0.459  0.00  0.00    -0.646 OA
BRANCH  12  14
HETATM   14  O   UNK N   1       5.979  11.499  -0.634  0.00  0.00    -0.773 OA
HETATM   15  H   UNK N   1       6.423  12.311  -0.782  0.00  0.00     0.167 HD
ENDBRANCH  12  14
ENDBRANCH   9  12
BRANCH  10  16
HETATM   16  C   UNK N   1       3.665  10.116  -0.340  0.00  0.00     0.271 C 
HETATM   17  O   UNK N   1       2.450   9.982  -0.303  0.00  0.00    -0.301 OA
ENDBRANCH  10  16
ENDBRANCH   5   6
ENDBRANCH   4   5
BRANCH   4  18
HETATM   18  N   UNK N   1       1.815   6.340   0.675  0.00  0.00    -0.362 N 
HETATM   19  C   UNK N   1       0.690   6.279   0.042  0.00  0.00     0.107 C 
HETATM   20  C   UNK N   1       0.053   7.548  -0.403  0.00  0.00     0.097 C 
ATOM     21  HN  UNK N   1       2.190   7.282   0.782  1.00  0.00     0.162 HD
BRANCH  19  22
HETATM   22  O   UNK N   1       0.072   5.113  -0.220  0.00  0.00    -0.350 OA
HETATM   23  H   UNK N   1      -0.847   5.079  -0.402  0.00  0.00     0.219 HD
ENDBRANCH  19  22
ENDBRANCH   4  18
ENDBRANCH   1   4
BRANCH   1  24
HETATM   24  O   UNK N   1       1.377   3.497   2.349  0.00  0.00    -0.348 OA
HETATM   25  H   UNK N   1       0.904   3.722   3.126  0.00  0.00     0.219 HD
ENDBRANCH   1  24
BRANCH   2  26
HETATM   26  C   UNK N   1       2.626   3.279  -1.097  0.00  0.00     0.175 C 
HETATM   27  C   UNK N   1       1.976   2.234  -2.013  0.00  0.00     0.035 C 
HETATM   28  C   UNK N   1       2.356   0.772  -1.709  0.00  0.00     0.004 C 
HETATM   29  C   UNK N   1       2.445   0.422  -0.216  0.00  0.00     0.020 C 
HETATM   30  C   UNK N   1       3.603   1.096   0.560  0.00  0.00     0.126 C 
HETATM   31  N   UNK N   1       4.540   1.846  -0.284  0.00  0.00    -0.346 N 
HETATM   32  C   UNK N   1       4.107   2.926  -1.009  0.00  0.00     0.242 C 
HETATM   33  O   UNK N   1       4.918   3.594  -1.650  0.00  0.00    -0.271 OA
BRANCH  31  34
HETATM   34  C   UNK N   1       5.928   1.408  -0.340  0.00  0.00     0.164 C 
BRANCH  34  35
HETATM   35  C   UNK N   1       5.958  -0.091  -0.408  0.00  0.00    -0.040 A 
HETATM   36  C   UNK N   1       5.064  -0.730  -1.269  0.00  0.00     0.009 A 
HETATM   37  C   UNK N   1       4.819  -2.085  -1.148  0.00  0.00     0.013 A 
HETATM   38  C   UNK N   1       5.509  -2.848  -0.205  0.00  0.00    -0.026 A 
HETATM   39  C   UNK N   1       6.477  -2.231   0.610  0.00  0.00     0.013 A 
HETATM   40  C   UNK N   1       6.670  -0.842   0.536  0.00  0.00     0.009 A 
BRANCH  38  41
HETATM   41  C   UNK N   1       5.199  -4.283  -0.103  0.00  0.00    -0.026 A 
HETATM   42  C   UNK N   1       6.159  -5.198   0.346  0.00  0.00     0.012 A 
HETATM   43  C   UNK N   1       5.867  -6.565   0.364  0.00  0.00     0.001 A 
HETATM   44  C   UNK N   1       4.603  -7.020  -0.026  0.00  0.00     0.000 A 
HETATM   45  C   UNK N   1       3.630  -6.110  -0.442  0.00  0.00     0.001 A 
HETATM   46  C   UNK N   1       3.933  -4.751  -0.500  0.00  0.00     0.012 A 
ENDBRANCH  38  41
ENDBRANCH  34  35
ENDBRANCH  31  34
ENDBRANCH   2  26
TORSDOF 13
