REMARK  7 active torsions:
REMARK  status: ('A' for Active; 'I' for Inactive)
REMARK    1  A    between atoms: C_5  and  C_4 
REMARK    2  A    between atoms: C_6  and  C_4 
REMARK    3  A    between atoms: C_9  and  C_6 
REMARK    4  A    between atoms: C_6  and  N_11 
REMARK    5  A    between atoms: C_10  and  C_7 
REMARK    6  A    between atoms: O_14  and  C_8 
REMARK    7  A    between atoms: O_17  and  C_9 
ROOT
HETATM    1  C   UNK N   1       0.799   0.436   0.359  0.00  0.00     0.029 A 
HETATM    2  C   UNK N   1      -0.155   1.337  -0.096  0.00  0.00     0.094 A 
HETATM    3  C   UNK N   1       0.266  -0.796   0.061  0.00  0.00     0.169 A 
HETATM    4  N   UNK N   1      -0.922  -0.639  -0.543  0.00  0.00    -0.239 N 
ATOM      5  HN  UNK N   1      -1.536  -1.383  -0.875  1.00  0.00     0.197 HD
HETATM    6  O   UNK N   1      -1.144   0.645  -0.628  0.00  0.00    -0.239 OA
ENDROOT
BRANCH   1   7
HETATM    7  C   UNK N   1       2.133   0.729   0.979  0.00  0.00     0.081 C 
BRANCH   7   8
HETATM    8  C   UNK N   1       3.269   0.365   0.017  0.00  0.00     0.177 C 
BRANCH   8   9
HETATM    9  C   UNK N   1       4.537   1.072   0.402  0.00  0.00     0.163 C 
HETATM   10  O   UNK N   1       4.571   2.292   0.422  0.00  0.00    -0.648 OA
BRANCH   9  11
HETATM   11  O   UNK N   1       5.652   0.371   0.691  0.00  0.00    -0.775 OA
HETATM   12  H   UNK N   1       5.618  -0.543   0.892  0.00  0.00     0.167 HD
ENDBRANCH   9  11
ENDBRANCH   8   9
BRANCH   8  13
HETATM   13  N   UNK N   1       3.475  -1.074   0.015  0.00  0.00    -0.417 N 
HETATM   14  H   UNK N   1       2.673  -1.705   0.014  0.00  0.00     0.150 HD
HETATM   15  H   UNK N   1       4.422  -1.454   0.015  0.00  0.00     0.150 HD
ENDBRANCH   8  13
ENDBRANCH   7   8
ENDBRANCH   1   7
BRANCH   2  16
HETATM   16  C   UNK N   1      -0.150   2.849  -0.050  0.00  0.00     0.001 C 
HETATM   17  C   UNK N   1      -0.077   3.390  -1.463  0.00  0.00     0.021 C 
HETATM   18  C   UNK N   1      -1.439   3.329   0.588  0.00  0.00     0.021 C 
HETATM   19  C   UNK N   1       1.006   3.431   0.745  0.00  0.00     0.021 C 
ENDBRANCH   2  16
BRANCH   3  20
HETATM   20  O   UNK N   1       0.824  -1.992   0.315  0.00  0.00    -0.344 OA
ATOM     21  HO  UNK N   1       0.455  -2.843   0.109  1.00  0.00     0.219 HD
ENDBRANCH   3  20
TORSDOF 7
