REMARK  14 active torsions:
REMARK  status: ('A' for Active; 'I' for Inactive)
REMARK    1  A    between atoms: C_13  and  C_7 
REMARK    2  A    between atoms: O_34  and  C_7 
REMARK    3  A    between atoms: C_18  and  C_10 
REMARK    4  A    between atoms: N_20  and  C_11 
REMARK    5  A    between atoms: C_12  and  O_36 
REMARK    6  A    between atoms: C_14  and  N_27 
REMARK    7  A    between atoms: N_19  and  C_16 
REMARK    8  A    between atoms: O_36  and  C_18 
REMARK    9  A    between atoms: P_38  and  O_29 
REMARK   10  A    between atoms: P_38  and  O_30 
REMARK   11  A    between atoms: P_39  and  O_32 
REMARK   12  A    between atoms: P_39  and  O_34 
REMARK   13  A    between atoms: P_38  and  O_37 
REMARK   14  A    between atoms: P_39  and  O_37 
ROOT
HETATM    1  C   UNK N   1      -0.538   0.454   0.319  0.00  0.00     0.089 C 
HETATM    2  C   UNK N   1      -0.768  -0.967  -0.047  0.00  0.00     0.167 C 
HETATM    3  C   UNK N   1       0.355  -1.231  -1.075  0.00  0.00     0.178 C 
HETATM    4  C   UNK N   1       0.147   1.006  -0.903  0.00  0.00     0.233 C 
HETATM    5  O   UNK N   1       1.009  -0.008  -1.367  0.00  0.00    -0.356 OA
ENDROOT
BRANCH   4   6
HETATM    6  N   UNK N   1       0.866   2.219  -0.508  0.00  0.00    -0.300 N 
HETATM    7  C   UNK N   1       0.285   3.334   0.012  0.00  0.00     0.188 A 
HETATM    8  N   UNK N   1       1.212   4.276   0.338  0.00  0.00    -0.346 N 
HETATM    9  C   UNK N   1       2.387   3.714   0.002  0.00  0.00     0.122 A 
ATOM     10  HN  UNK N   1       1.053   5.198   0.744  1.00  0.00     0.167 HD
HETATM   11  C   UNK N   1       3.673   4.206   0.134  0.00  0.00     0.131 A 
HETATM   12  C   UNK N   1       2.178   2.486  -0.515  0.00  0.00     0.142 A 
HETATM   13  N   UNK N   1       4.707   3.415  -0.284  0.00  0.00    -0.337 N 
HETATM   14  C   UNK N   1       4.472   2.172  -0.820  0.00  0.00     0.183 A 
ATOM     15  HN  UNK N   1       5.665   3.753  -0.196  1.00  0.00     0.168 HD
HETATM   16  N   UNK N   1       3.193   1.694  -0.935  0.00  0.00    -0.336 N 
ATOM     17  HN  UNK N   1       3.011   0.770  -1.326  1.00  0.00     0.168 HD
BRANCH  11  18
HETATM   18  N   UNK N   1       3.918   5.476   0.694  0.00  0.00    -0.383 N 
HETATM   19  H   UNK N   1       4.772   5.771   1.085  0.00  0.00     0.157 HD
HETATM   20  H   UNK N   1       3.174   6.121   0.694  0.00  0.00     0.157 HD
ENDBRANCH  11  18
ENDBRANCH   4   6
BRANCH   2  21
HETATM   21  O   UNK N   1      -0.688  -1.725   1.112  0.00  0.00    -0.309 OA
BRANCH  21  22
HETATM   22  C   UNK N   1      -0.943  -3.056   1.244  0.00  0.00     0.296 C 
HETATM   23  O   UNK N   1      -0.359  -3.657   2.128  0.00  0.00    -0.259 OA
BRANCH  22  24
HETATM   24  C   UNK N   1      -2.014  -3.752   0.463  0.00  0.00     0.065 A 
HETATM   25  C   UNK N   1      -3.094  -2.968   0.027  0.00  0.00     0.020 A 
HETATM   26  C   UNK N   1      -4.190  -3.527  -0.624  0.00  0.00     0.001 A 
HETATM   27  C   UNK N   1      -4.236  -4.896  -0.847  0.00  0.00     0.002 A 
HETATM   28  C   UNK N   1      -3.180  -5.703  -0.431  0.00  0.00     0.030 A 
HETATM   29  C   UNK N   1      -2.061  -5.167   0.219  0.00  0.00     0.044 A 
BRANCH  29  30
HETATM   30  N   UNK N   1      -1.028  -6.090   0.555  0.00  0.00    -0.393 N 
HETATM   31  C   UNK N   1       0.359  -5.768   0.762  0.00  0.00     0.146 C 
HETATM   32  H   UNK N   1      -1.288  -7.034   0.656  0.00  0.00     0.159 HD
ENDBRANCH  29  30
ENDBRANCH  22  24
ENDBRANCH  21  22
ENDBRANCH   2  21
BRANCH   3  33
HETATM   33  C   UNK N   1       1.369  -2.309  -0.679  0.00  0.00     0.215 C 
BRANCH  33  34
HETATM   34  O   UNK N   1       2.207  -1.920   0.372  0.00  0.00    -0.294 OA
BRANCH  34  35
HETATM   35  P   UNK N   1       3.812  -1.994  -0.306  0.00  0.00     0.401 P 
HETATM   36  O   UNK N   1       3.806  -0.654   0.472  0.00  0.00    -0.631 OA
BRANCH  35  37
HETATM   37  O   UNK N   1       5.229  -2.061   0.696  0.00  0.00    -0.307 OA
HETATM   38  H   UNK N   1       5.593  -2.765   1.255  0.00  0.00     0.222 HD
ENDBRANCH  35  37
BRANCH  35  39
HETATM   39  O   UNK N   1       3.666  -3.323   0.815  0.00  0.00    -0.195 OA
BRANCH  39  40
HETATM   40  P   UNK N   1       3.957  -4.778  -0.110  0.00  0.00     0.399 P 
HETATM   41  O   UNK N   1       2.753  -4.999  -1.064  0.00  0.00    -0.631 OA
BRANCH  40  42
HETATM   42  O   UNK N   1       4.031  -6.165   0.930  0.00  0.00    -0.307 OA
HETATM   43  H   UNK N   1       3.380  -6.589   1.511  0.00  0.00     0.222 HD
ENDBRANCH  40  42
BRANCH  40  44
HETATM   44  O   UNK N   1       5.390  -4.674  -1.086  0.00  0.00    -0.307 OA
HETATM   45  H   UNK N   1       5.840  -5.337  -1.632  0.00  0.00     0.222 HD
ENDBRANCH  40  44
ENDBRANCH  39  40
ENDBRANCH  35  39
ENDBRANCH  34  35
ENDBRANCH  33  34
ENDBRANCH   3  33
TORSDOF 14
