REMARK  21 active torsions:
REMARK  status: ('A' for Active; 'I' for Inactive)
REMARK    1  A    between atoms: C_21  and  C_19 
REMARK    2  A    between atoms: C_31  and  C_19 
REMARK    3  A    between atoms: C_22  and  C_20 
REMARK    4  A    between atoms: C_42  and  C_20 
REMARK    5  A    between atoms: N_49  and  C_21 
REMARK    6  A    between atoms: N_50  and  C_22 
REMARK    7  A    between atoms: C_30  and  C_23 
REMARK    8  A    between atoms: C_36  and  C_23 
REMARK    9  A    between atoms: C_37  and  C_27 
REMARK   10  A    between atoms: N_49  and  C_27 
REMARK   11  A    between atoms: C_32  and  C_28 
REMARK   12  A    between atoms: O_58  and  C_28 
REMARK   13  A    between atoms: C_44  and  C_33 
REMARK   14  A    between atoms: C_37  and  C_36 
REMARK   15  A    between atoms: C_36  and  N_47 
REMARK   16  A    between atoms: C_37  and  O_51 
REMARK   17  A    between atoms: O_56  and  C_40 
REMARK   18  A    between atoms: O_57  and  C_41 
REMARK       I    between atoms: N_49  and  C_42 
REMARK   19  A    between atoms: O_58  and  C_43 
REMARK   20  A    between atoms: N_47  and  C_44 
REMARK   21  A    between atoms: C_44  and  O_53 
ROOT
HETATM    1  C   UNK N   1       1.423   0.131   0.013  0.00  0.00     0.118 C 
ENDROOT
BRANCH   1   2
HETATM    2  C   UNK N   1       2.027   1.471   0.446  0.00  0.00     0.066 C 
BRANCH   2   3
HETATM    3  C   UNK N   1       3.524   1.561   0.379  0.00  0.00    -0.056 A 
HETATM    4  C   UNK N   1       4.113   2.830   0.376  0.00  0.00     0.007 A 
HETATM    5  C   UNK N   1       5.500   2.964   0.275  0.00  0.00     0.001 A 
HETATM    6  C   UNK N   1       6.307   1.827   0.175  0.00  0.00     0.000 A 
HETATM    7  C   UNK N   1       5.726   0.556   0.177  0.00  0.00     0.001 A 
HETATM    8  C   UNK N   1       4.338   0.423   0.275  0.00  0.00     0.007 A 
ENDBRANCH   2   3
ENDBRANCH   1   2
BRANCH   1   9
HETATM    9  C   UNK N   1      -0.027   0.391  -0.406  0.00  0.00     0.159 C 
BRANCH   9  10
HETATM   10  C   UNK N   1      -0.877   0.524   0.887  0.00  0.00     0.159 C 
BRANCH  10  11
HETATM   11  N   UNK N   1      -2.242   0.869   0.644  0.00  0.00    -0.350 N 
HETATM   12  C   UNK N   1      -2.530   2.181   0.404  0.00  0.00     0.221 C 
HETATM   13  O   UNK N   1      -1.634   3.014   0.405  0.00  0.00    -0.273 OA
BRANCH  11  14
HETATM   14  C   UNK N   1      -3.250  -0.181   0.750  0.00  0.00     0.126 C 
BRANCH  14  15
HETATM   15  C   UNK N   1      -2.909  -1.278  -0.261  0.00  0.00     0.024 C 
BRANCH  15  16
HETATM   16  C   UNK N   1      -3.314  -2.738  -0.060  0.00  0.00    -0.010 C 
HETATM   17  C   UNK N   1      -3.784  -3.144   1.354  0.00  0.00     0.007 C 
HETATM   18  C   UNK N   1      -4.129  -4.663   1.444  0.00  0.00     0.035 C 
HETATM   19  C   UNK N   1      -3.506  -5.468   0.288  0.00  0.00     0.153 C 
HETATM   20  C   UNK N   1      -2.109  -5.005   0.088  0.00  0.00     0.153 C 
HETATM   21  O   UNK N   1      -3.351  -6.825   0.526  0.00  0.00    -0.359 OA
HETATM   22  C   UNK N   1      -2.109  -3.598  -0.522  0.00  0.00     0.039 C 
HETATM   23  O   UNK N   1      -1.564  -5.982  -0.731  0.00  0.00    -0.359 OA
HETATM   24  C   UNK N   1      -2.248  -7.152  -0.308  0.00  0.00     0.339 C 
ENDBRANCH  15  16
ENDBRANCH  14  15
ENDBRANCH  11  14
BRANCH  12  25
HETATM   25  C   UNK N   1      -3.908   2.656   0.169  0.00  0.00     0.123 C 
BRANCH  25  26
HETATM   26  C   UNK N   1      -4.463   2.128  -1.140  0.00  0.00     0.145 C 
BRANCH  26  27
HETATM   27  N   UNK N   1      -5.698   1.449  -0.845  0.00  0.00    -0.279 N 
HETATM   28  C   UNK N   1      -6.740   1.991  -0.177  0.00  0.00     0.261 A 
HETATM   29  C   UNK N   1      -7.767   0.979   0.009  0.00  0.00     0.048 A 
HETATM   30  O   UNK N   1      -6.780   3.142   0.229  0.00  0.00    -0.267 OA
HETATM   31  C   UNK N   1      -8.992   1.022   0.659  0.00  0.00     0.018 A 
HETATM   32  C   UNK N   1      -7.296  -0.169  -0.590  0.00  0.00     0.048 A 
HETATM   33  C   UNK N   1      -9.754  -0.158   0.689  0.00  0.00     0.001 A 
HETATM   34  C   UNK N   1      -9.273  -1.339   0.076  0.00  0.00     0.001 A 
HETATM   35  C   UNK N   1      -8.025  -1.352  -0.575  0.00  0.00     0.018 A 
HETATM   36  C   UNK N   1      -5.984   0.163  -1.138  0.00  0.00     0.261 A 
HETATM   37  O   UNK N   1      -5.247  -0.589  -1.753  0.00  0.00    -0.267 OA
ENDBRANCH  26  27
ENDBRANCH  25  26
ENDBRANCH  12  25
ENDBRANCH  10  11
ENDBRANCH   9  10
BRANCH   9  38
HETATM   38  O   UNK N   1      -0.461  -0.701  -1.156  0.00  0.00    -0.392 OA
HETATM   39  H   UNK N   1      -1.271  -0.819  -1.678  0.00  0.00     0.210 HD
ENDBRANCH   9  38
ENDBRANCH   1   9
BRANCH   1  40
HETATM   40  N   UNK N   1       1.313  -0.760   1.154  0.00  0.00    -0.363 N 
ATOM     41  HN  UNK N   1       1.314  -0.315   2.072  1.00  0.00     0.162 HD
BRANCH  40  42
HETATM   42  C   UNK N   1       1.215  -2.044   1.149  0.00  0.00     0.146 C 
BRANCH  42  43
HETATM   43  C   UNK N   1       1.756  -2.905   0.087  0.00  0.00     0.020 C 
HETATM   44  C   UNK N   1       2.998  -2.489  -0.372  0.00  0.00     0.055 C 
HETATM   45  C   UNK N   1       4.058  -3.372  -0.452  0.00  0.00     0.105 C 
HETATM   46  C   UNK N   1       3.838  -4.736  -0.128  0.00  0.00     0.135 C 
HETATM   47  C   UNK N   1       2.536  -5.195   0.135  0.00  0.00     0.105 C 
HETATM   48  C   UNK N   1       1.506  -4.267   0.257  0.00  0.00     0.055 C 
BRANCH  45  49
HETATM   49  O   UNK N   1       5.276  -2.836  -0.708  0.00  0.00    -0.353 OA
HETATM   50  C   UNK N   1       6.472  -3.384  -0.316  0.00  0.00     0.210 C 
ENDBRANCH  45  49
BRANCH  46  51
HETATM   51  O   UNK N   1       4.866  -5.583   0.031  0.00  0.00    -0.341 OA
BRANCH  51  52
HETATM   52  C   UNK N   1       5.524  -6.219  -0.980  0.00  0.00     0.214 C 
BRANCH  52  53
HETATM   53  C   UNK N   1       5.686  -7.625  -0.544  0.00  0.00    -0.034 A 
HETATM   54  C   UNK N   1       6.947  -8.108  -0.182  0.00  0.00     0.009 A 
HETATM   55  C   UNK N   1       7.082  -9.420   0.281  0.00  0.00     0.001 A 
HETATM   56  C   UNK N   1       5.956 -10.244   0.387  0.00  0.00     0.000 A 
HETATM   57  C   UNK N   1       4.695  -9.756   0.034  0.00  0.00     0.001 A 
HETATM   58  C   UNK N   1       4.560  -8.446  -0.425  0.00  0.00     0.009 A 
ENDBRANCH  52  53
ENDBRANCH  51  52
ENDBRANCH  46  51
BRANCH  47  59
HETATM   59  O   UNK N   1       2.317  -6.513   0.366  0.00  0.00    -0.353 OA
HETATM   60  C   UNK N   1       1.067  -7.046   0.590  0.00  0.00     0.210 C 
ENDBRANCH  47  59
ENDBRANCH  42  43
BRANCH  42  61
HETATM   61  O   UNK N   1       0.779  -2.642   2.276  0.00  0.00    -0.346 OA
HETATM   62  H   UNK N   1       0.267  -2.588   3.058  0.00  0.00     0.219 HD
ENDBRANCH  42  61
ENDBRANCH  40  42
ENDBRANCH   1  40
TORSDOF 21
