REMARK  1 active torsions:
REMARK  status: ('A' for Active; 'I' for Inactive)
REMARK    1  A    between atoms: S_1  and  C_2 
ROOT
HETATM    1  C   UNK N   1       0.739   1.619  -0.000  0.00  0.00     0.066 A 
HETATM    2  C   UNK N   1       1.946   0.917  -0.000  0.00  0.00     0.037 A 
HETATM    3  C   UNK N   1       1.925  -0.477  -0.000  0.00  0.00     0.004 A 
HETATM    4  C   UNK N   1       0.703  -1.151  -0.000  0.00  0.00     0.017 A 
HETATM    5  C   UNK N   1      -0.484  -0.415  -0.000  0.00  0.00     0.089 A 
HETATM    6  N   UNK N   1      -0.444   0.945  -0.000  0.00  0.00    -0.361 N 
ATOM      7  HN  UNK N   1      -1.319   1.470  -0.000  1.00  0.00     0.165 HD
ENDROOT
BRANCH   1   8
HETATM    8  S   UNK N   1       0.751   3.402   0.000  0.00  0.00    -0.126 SA
HETATM    9  H   UNK N   1       1.933   4.074   0.000  0.00  0.00     0.108 HD
ENDBRANCH   1   8
TORSDOF 1
