REMARK  1 active torsions:
REMARK  status: ('A' for Active; 'I' for Inactive)
REMARK    1  A    between atoms: N_11  and  C_6 
ROOT
HETATM    1  C   UNK N   1       1.444  -0.030   0.000  0.00  0.00     0.017 A 
HETATM    2  C   UNK N   1       2.614   0.755   0.000  0.00  0.00     0.037 A 
HETATM    3  C   UNK N   1       1.271   2.805   0.000  0.00  0.00     0.067 A 
HETATM    4  C   UNK N   1      -1.071   0.187  -0.000  0.00  0.00     0.120 A 
HETATM    5  C   UNK N   1       0.226   0.641   0.000  0.00  0.00     0.009 A 
HETATM    6  C   UNK N   1       2.534   2.176   0.000  0.00  0.00     0.105 A 
HETATM    7  C   UNK N   1       0.148   1.997  -0.000  0.00  0.00     0.062 A 
HETATM    8  N   UNK N   1      -1.879   1.278  -0.000  0.00  0.00    -0.311 N 
HETATM    9  N   UNK N   1      -1.134   2.379  -0.000  0.00  0.00    -0.300 N 
ATOM     10  HN  UNK N   1      -1.477   3.340  -0.000  1.00  0.00     0.187 HD
HETATM   11  H   UNK N   1      -2.864   1.257  -0.000  0.00  0.00     0.186 HD
ENDROOT
BRANCH   6  12
HETATM   12  N   UNK N   1       3.712   2.968   0.000  0.00  0.00    -0.116 N 
HETATM   13  O   UNK N   1       3.634   4.159   0.000  0.00  0.00    -0.532 OA
HETATM   14  O   UNK N   1       4.787   2.448  -0.000  0.00  0.00    -0.532 OA
ENDBRANCH   6  12
TORSDOF 1
