REMARK  3 active torsions:
REMARK  status: ('A' for Active; 'I' for Inactive)
REMARK    1  A    between atoms: C_6  and  C_7 
REMARK    2  A    between atoms: C_7  and  N_8 
REMARK    3  A    between atoms: C_9  and  N_10 
ROOT
HETATM    1  C   UNK N   1       3.577  -0.693  -0.000  0.00  0.00     0.089 C 
HETATM    2  C   UNK N   1       2.165  -0.229  -0.000  0.00  0.00     0.078 A 
HETATM    3  N   UNK N   1       1.156  -1.136  -0.000  0.00  0.00    -0.355 N 
ATOM      4  HN  UNK N   1       1.375  -2.132  -0.000  1.00  0.00     0.166 HD
HETATM    5  C   UNK N   1      -0.140  -0.734   0.000  0.00  0.00     0.102 A 
HETATM    6  C   UNK N   1      -0.464   0.622   0.000  0.00  0.00     0.018 A 
HETATM    7  C   UNK N   1       0.604   1.552   0.000  0.00  0.00     0.109 A 
HETATM    8  N   UNK N   1       1.886   1.100  -0.000  0.00  0.00    -0.332 N 
ATOM      9  HN  UNK N   1       2.653   1.772  -0.000  1.00  0.00     0.168 HD
ENDROOT
BRANCH   6  10
HETATM   10  C   UNK N   1      -1.935   0.968   0.000  0.00  0.00     0.155 C 
BRANCH  10  11
HETATM   11  N   UNK N   1      -2.222   2.393  -0.000  0.00  0.00    -0.426 N 
HETATM   12  H   UNK N   1      -1.457   3.067  -0.000  0.00  0.00     0.150 HD
HETATM   13  H   UNK N   1      -3.189   2.718  -0.000  0.00  0.00     0.150 HD
ENDBRANCH  10  11
ENDBRANCH   6  10
BRANCH   7  14
HETATM   14  N   UNK N   1       0.375   2.944   0.000  0.00  0.00    -0.385 N 
HETATM   15  H   UNK N   1       1.136   3.568   0.000  0.00  0.00     0.157 HD
HETATM   16  H   UNK N   1      -0.546   3.291   0.000  0.00  0.00     0.157 HD
ENDBRANCH   7  14
TORSDOF 3
