REMARK  14 active torsions:
REMARK  status: ('A' for Active; 'I' for Inactive)
REMARK    1  A    between atoms: C_7  and  C_3 
REMARK    2  A    between atoms: O_21  and  C_3 
REMARK    3  A    between atoms: C_8  and  C_4 
REMARK    4  A    between atoms: O_22  and  C_4 
REMARK    5  A    between atoms: O_23  and  C_5 
REMARK    6  A    between atoms: O_24  and  C_6 
REMARK    7  A    between atoms: C_9  and  N_17 
REMARK    8  A    between atoms: C_10  and  N_19 
REMARK    9  A    between atoms: C_11  and  O_25 
REMARK   10  A    between atoms: C_12  and  O_26 
REMARK   11  A    between atoms: C_13  and  O_27 
REMARK   12  A    between atoms: C_14  and  O_31 
REMARK   13  A    between atoms: C_15  and  O_28 
REMARK   14  A    between atoms: C_16  and  O_31 
ROOT
HETATM    1  O   UNK N   1      -0.779  -3.156   0.756  0.00  0.00    -0.348 OA
ENDROOT
BRANCH   1   2
HETATM    2  C   UNK N   1       0.324  -4.073   0.714  0.00  0.00     0.186 C 
HETATM    3  C   UNK N   1       1.619  -3.775  -0.101  0.00  0.00     0.179 C 
HETATM    4  O   UNK N   1       2.634  -4.675   0.307  0.00  0.00    -0.349 OA
HETATM    5  C   UNK N   1       2.338  -6.017   0.004  0.00  0.00     0.282 C 
HETATM    6  C   UNK N   1       1.038  -6.484   0.708  0.00  0.00     0.169 C 
HETATM    7  C   UNK N   1      -0.121  -5.513   0.370  0.00  0.00     0.177 C 
BRANCH   3   8
HETATM    8  C   UNK N   1       2.216  -2.410   0.174  0.00  0.00     0.198 C 
BRANCH   8   9
HETATM    9  O   UNK N   1       3.314  -2.190  -0.661  0.00  0.00    -0.398 OA
HETATM   10  H   UNK N   1       3.828  -2.774  -1.240  0.00  0.00     0.209 HD
ENDBRANCH   8   9
ENDBRANCH   3   8
BRANCH   5  11
HETATM   11  O   UNK N   1       3.408  -6.780   0.481  0.00  0.00    -0.369 OA
HETATM   12  H   UNK N   1       3.321  -7.688   0.812  0.00  0.00     0.212 HD
ENDBRANCH   5  11
BRANCH   6  13
HETATM   13  N   UNK N   1       0.626  -7.868   0.454  0.00  0.00    -0.363 N 
HETATM   14  C   UNK N   1       1.180  -8.781  -0.287  0.00  0.00     0.107 C 
HETATM   15  C   UNK N   1       0.557 -10.130  -0.354  0.00  0.00     0.097 C 
ATOM     16  HN  UNK N   1      -0.226  -8.160   0.933  1.00  0.00     0.162 HD
BRANCH  14  17
HETATM   17  O   UNK N   1       2.303  -8.559  -0.993  0.00  0.00    -0.350 OA
HETATM   18  H   UNK N   1       2.828  -9.160  -1.485  0.00  0.00     0.219 HD
ENDBRANCH  14  17
ENDBRANCH   6  13
BRANCH   7  19
HETATM   19  O   UNK N   1      -1.250  -5.856   1.119  0.00  0.00    -0.391 OA
HETATM   20  H   UNK N   1      -1.848  -5.297   1.640  0.00  0.00     0.210 HD
ENDBRANCH   7  19
ENDBRANCH   1   2
BRANCH   1  21
HETATM   21  C   UNK N   1      -1.167  -2.336  -0.339  0.00  0.00     0.286 C 
HETATM   22  C   UNK N   1      -2.384  -1.467   0.172  0.00  0.00     0.169 C 
HETATM   23  C   UNK N   1      -2.473  -0.200  -0.696  0.00  0.00     0.177 C 
HETATM   24  C   UNK N   1      -1.177   0.630  -0.546  0.00  0.00     0.180 C 
HETATM   25  C   UNK N   1       0.044  -0.274  -0.230  0.00  0.00     0.179 C 
HETATM   26  O   UNK N   1      -0.090  -1.543  -0.852  0.00  0.00    -0.349 OA
BRANCH  22  27
HETATM   27  N   UNK N   1      -3.604  -2.259   0.122  0.00  0.00    -0.363 N 
HETATM   28  C   UNK N   1      -4.701  -1.938   0.725  0.00  0.00     0.107 C 
HETATM   29  C   UNK N   1      -5.902  -2.803   0.573  0.00  0.00     0.097 C 
ATOM     30  HN  UNK N   1      -3.592  -3.122  -0.422  1.00  0.00     0.162 HD
BRANCH  28  31
HETATM   31  O   UNK N   1      -4.774  -0.843   1.511  0.00  0.00    -0.350 OA
HETATM   32  H   UNK N   1      -4.141  -0.419   2.056  0.00  0.00     0.219 HD
ENDBRANCH  28  31
ENDBRANCH  22  27
BRANCH  23  33
HETATM   33  O   UNK N   1      -3.584   0.596  -0.399  0.00  0.00    -0.391 OA
HETATM   34  H   UNK N   1      -3.491   1.539  -0.193  0.00  0.00     0.210 HD
ENDBRANCH  23  33
BRANCH  24  35
HETATM   35  O   UNK N   1      -1.307   1.611   0.446  0.00  0.00    -0.390 OA
HETATM   36  H   UNK N   1      -0.764   2.028   1.132  0.00  0.00     0.210 HD
ENDBRANCH  24  35
BRANCH  25  37
HETATM   37  C   UNK N   1       0.332  -0.445   1.277  0.00  0.00     0.198 C 
BRANCH  37  38
HETATM   38  O   UNK N   1       0.907   0.709   1.813  0.00  0.00    -0.398 OA
HETATM   39  H   UNK N   1       1.801   0.763   2.186  0.00  0.00     0.209 HD
ENDBRANCH  37  38
ENDBRANCH  25  37
ENDBRANCH   1  21
TORSDOF 14
