REMARK  4 active torsions:
REMARK  status: ('A' for Active; 'I' for Inactive)
REMARK    1  A    between atoms: C_2  and  N_1 
REMARK    2  A    between atoms: C_2  and  C_3 
REMARK    3  A    between atoms: C_2  and  C_5 
REMARK    4  A    between atoms: C_5  and  O_6 
ROOT
HETATM    1  C   UNK N   1       1.416   0.664   0.000  0.00  0.00     0.196 C 
ENDROOT
BRANCH   1   2
HETATM    2  N   UNK N   1       2.825   0.312  -0.000  0.00  0.00    -0.415 N 
HETATM    3  H   UNK N   1       3.106  -0.668  -0.000  0.00  0.00     0.151 HD
HETATM    4  H   UNK N   1       3.534   1.046  -0.000  0.00  0.00     0.151 HD
ENDBRANCH   1   2
BRANCH   1   5
HETATM    5  C   UNK N   1       1.104   2.135  -0.000  0.00  0.00    -0.002 C 
HETATM    6  C   UNK N   1      -0.141   2.606  -0.000  0.00  0.00     0.009 C 
ENDBRANCH   1   5
BRANCH   1   7
HETATM    7  C   UNK N   1       0.431  -0.474   0.000  0.00  0.00     0.166 C 
HETATM    8  O   UNK N   1      -0.772  -0.258   0.000  0.00  0.00    -0.648 OA
BRANCH   7   9
HETATM    9  O   UNK N   1       0.877  -1.745   0.000  0.00  0.00    -0.775 OA
HETATM   10  H   UNK N   1       0.266  -2.455   0.000  0.00  0.00     0.167 HD
ENDBRANCH   7   9
ENDBRANCH   1   7
TORSDOF 4
