REMARK  9 active torsions:
REMARK  status: ('A' for Active; 'I' for Inactive)
REMARK    1  A    between atoms: C_17  and  C_10 
REMARK    2  A    between atoms: C_11  and  N_24 
REMARK    3  A    between atoms: C_18  and  C_12 
REMARK    4  A    between atoms: C_15  and  C_14 
REMARK    5  A    between atoms: C_20  and  O_37 
REMARK    6  A    between atoms: O_40  and  C_20 
REMARK    7  A    between atoms: O_41  and  C_21 
REMARK    8  A    between atoms: O_43  and  C_23 
REMARK    9  A    between atoms: C_23  and  O_44 
ROOT
HETATM    1  C   UNK N   1      -1.227  -1.619   0.000  0.00  0.00     0.097 A 
HETATM    2  C   UNK N   1      -2.656  -3.869   0.000  0.00  0.00     0.114 A 
HETATM    3  C   UNK N   1       0.917  -4.507  -0.000  0.00  0.00     0.198 A 
HETATM    4  C   UNK N   1      -0.253  -6.447   0.000  0.00  0.00     0.198 A 
HETATM    5  C   UNK N   1      -0.817  -7.997   0.000  0.00  0.00     0.198 A 
HETATM    6  C   UNK N   1      -0.512  -2.032   0.000  0.00  0.00     0.107 A 
HETATM    7  C   UNK N   1      -2.541  -3.457  -0.000  0.00  0.00     0.149 A 
HETATM    8  C   UNK N   1       0.202  -4.694   0.000  0.00  0.00     0.173 A 
HETATM    9  C   UNK N   1      -1.665  -6.590   0.000  0.00  0.00     0.179 A 
HETATM   10  C   UNK N   1      -1.099  -8.773   0.000  0.00  0.00     0.180 A 
HETATM   11  C   UNK N   1      -1.827  -3.269  -0.000  0.00  0.00     0.144 A 
HETATM   12  C   UNK N   1      -0.512  -4.507   0.000  0.00  0.00     0.180 A 
HETATM   13  C   UNK N   1      -1.595  -5.958  -0.000  0.00  0.00     0.181 A 
HETATM   14  C   UNK N   1      -2.794  -9.691  -0.000  0.00  0.00     0.183 A 
HETATM   15  C   UNK N   1      -2.263 -10.323  -0.000  0.00  0.00     0.204 A 
HETATM   16  C   UNK N   1      -3.290  -6.277   0.000  0.00  0.00     0.205 A 
HETATM   17  C   UNK N   1      -2.511  -8.316  -0.000  0.00  0.00     0.187 A 
HETATM   18  C   UNK N   1      -1.227  -4.094  -0.000  0.00  0.00     0.182 A 
HETATM   19  C   UNK N   1      -3.008  -6.101  -0.000  0.00  0.00     0.190 A 
HETATM   20  C   UNK N   1      -0.851 -10.180   0.000  0.00  0.00     0.288 A 
HETATM   21  C   UNK N   1      -2.760  -6.909   0.000  0.00  0.00     0.292 A 
HETATM   22  C   UNK N   1      -4.068  -3.951  -0.000  0.00  0.00     0.205 A 
HETATM   23  C   UNK N   1      -3.256  -4.094   0.000  0.00  0.00     0.256 A 
HETATM   24  N   UNK N   1      -0.512  -2.857   0.000  0.00  0.00    -0.365 N 
ATOM     25  HN  UNK N   1       0.310  -3.460   0.000  1.00  0.00     0.161 HD
HETATM   26  O   UNK N   1       0.917  -5.932  -0.000  0.00  0.00    -0.398 OA
HETATM   27  O   UNK N   1       0.278  -6.479  -0.000  0.00  0.00    -0.398 OA
HETATM   28  O   UNK N   1      -0.604  -7.854  -0.000  0.00  0.00    -0.398 OA
HETATM   29  O   UNK N   1       0.202  -1.619  -0.000  0.00  0.00    -0.350 OA
HETATM   30  O   UNK N   1      -2.541  -2.632   0.000  0.00  0.00    -0.393 OA
HETATM   31  O   UNK N   1       0.202  -3.869   0.000  0.00  0.00    -0.391 OA
HETATM   32  O   UNK N   1      -1.113  -5.332  -0.000  0.00  0.00    -0.390 OA
HETATM   33  O   UNK N   1      -1.913  -5.183   0.000  0.00  0.00    -0.390 OA
HETATM   34  O   UNK N   1      -3.606  -9.234   0.000  0.00  0.00    -0.390 OA
HETATM   35  O   UNK N   1      -1.945 -11.098   0.000  0.00  0.00    -0.388 OA
HETATM   36  O   UNK N   1      -4.102  -6.420  -0.000  0.00  0.00    -0.388 OA
HETATM   37  O   UNK N   1      -4.599  -4.583   0.000  0.00  0.00    -0.646 OA
HETATM   38  O   UNK N   1      -4.351  -3.176  -0.000  0.00  0.00    -0.772 OA
HETATM   39  O   UNK N   1      -0.569  -9.405  -0.000  0.00  0.00    -0.349 OA
HETATM   40  O   UNK N   1      -1.947  -6.765  -0.000  0.00  0.00    -0.348 OA
HETATM   41  O   UNK N   1      -3.042  -7.684   0.000  0.00  0.00    -0.348 OA
HETATM   42  O   UNK N   1      -1.941  -4.507  -0.000  0.00  0.00    -0.336 OA
HETATM   43  O   UNK N   1      -2.938  -4.870  -0.000  0.00  0.00    -0.336 OA
HETATM   44  H   UNK N   1       0.076  -6.417  -0.000  0.00  0.00     0.209 HD
HETATM   45  H   UNK N   1       0.711  -7.347  -0.000  0.00  0.00     0.209 HD
HETATM   46  H   UNK N   1       0.267  -8.280  -0.000  0.00  0.00     0.209 HD
HETATM   47  H   UNK N   1       1.013  -2.088  -0.000  0.00  0.00     0.219 HD
HETATM   48  H   UNK N   1      -1.701  -2.147   0.000  0.00  0.00     0.210 HD
HETATM   49  H   UNK N   1       1.042  -3.384  -0.000  0.00  0.00     0.210 HD
HETATM   50  H   UNK N   1      -2.077  -5.230  -0.000  0.00  0.00     0.210 HD
HETATM   51  H   UNK N   1      -1.320  -4.416   0.000  0.00  0.00     0.210 HD
HETATM   52  H   UNK N   1      -3.617  -8.264   0.000  0.00  0.00     0.210 HD
HETATM   53  H   UNK N   1      -2.539 -11.866   0.000  0.00  0.00     0.210 HD
HETATM   54  H   UNK N   1      -4.726  -5.677  -0.000  0.00  0.00     0.210 HD
HETATM   55  H   UNK N   1      -3.748  -2.458  -0.000  0.00  0.00     0.167 HD
ENDROOT
BRANCH  20  56
HETATM   56  O   UNK N   1      -0.321 -10.812  -0.000  0.00  0.00    -0.369 OA
HETATM   57  H   UNK N   1      -0.652 -11.723  -0.000  0.00  0.00     0.212 HD
ENDBRANCH  20  56
TORSDOF 9
