REMARK  5 active torsions:
REMARK  status: ('A' for Active; 'I' for Inactive)
REMARK    1  A    between atoms: C_5  and  C_3 
REMARK    2  A    between atoms: C_7  and  C_3 
REMARK    3  A    between atoms: C_9  and  C_7 
REMARK    4  A    between atoms: C_7  and  N_10 
REMARK    5  A    between atoms: O_13  and  C_9 
ROOT
HETATM    1  C   UNK N   1       0.676   1.063   0.048  0.00  0.00     0.014 A 
HETATM    2  C   UNK N   1      -0.262   0.034  -0.021  0.00  0.00     0.001 A 
HETATM    3  C   UNK N   1       4.048  -0.108   0.103  0.00  0.00     0.096 A 
HETATM    4  C   UNK N   1       3.237   1.026   0.124  0.00  0.00    -0.028 A 
HETATM    5  C   UNK N   1       1.944   0.554   0.057  0.00  0.00     0.001 A 
HETATM    6  C   UNK N   1       2.008  -0.778  -0.003  0.00  0.00     0.070 A 
HETATM    7  N   UNK N   1       3.277  -1.221   0.021  0.00  0.00    -0.363 N 
HETATM    8 Se   UNK N   1       0.449  -1.676  -0.086  0.00  0.00     0.000 Se
HETATM    9  H   UNK N   1       3.582  -2.156  -0.013  0.00  0.00     0.165 HD
ENDROOT
BRANCH   4  10
HETATM   10  C   UNK N   1       3.791   2.421   0.217  0.00  0.00     0.076 C 
BRANCH  10  11
HETATM   11  C   UNK N   1       2.875   3.607  -0.100  0.00  0.00     0.177 C 
BRANCH  11  12
HETATM   12  C   UNK N   1       3.670   4.888  -0.057  0.00  0.00     0.163 C 
HETATM   13  O   UNK N   1       3.121   5.952  -0.294  0.00  0.00    -0.648 OA
BRANCH  12  14
HETATM   14  O   UNK N   1       4.987   4.876   0.240  0.00  0.00    -0.775 OA
HETATM   15  H   UNK N   1       5.436   4.081   0.447  0.00  0.00     0.167 HD
ENDBRANCH  12  14
ENDBRANCH  11  12
BRANCH  11  16
HETATM   16  N   UNK N   1       1.796   3.689   0.871  0.00  0.00    -0.417 N 
HETATM   17  H   UNK N   1       1.468   4.374   1.552  0.00  0.00     0.150 HD
HETATM   18  H   UNK N   1       1.220   2.848   0.871  0.00  0.00     0.150 HD
ENDBRANCH  11  16
ENDBRANCH  10  11
ENDBRANCH   4  10
TORSDOF 5
