REMARK  4 active torsions:
REMARK  status: ('A' for Active; 'I' for Inactive)
REMARK    1  A    between atoms: N_1  and  C_2 
REMARK    2  A    between atoms: C_2  and  C_3 
REMARK    3  A    between atoms: C_3  and  C_4 
REMARK    4  A    between atoms: C_4  and  O_5 
ROOT
HETATM    1  C   UNK N   1       1.687   0.722  -0.000  0.00  0.00     0.129 C 
ENDROOT
BRANCH   1   2
HETATM    2  C   UNK N   1       0.909   2.025   0.000  0.00  0.00     0.121 C 
BRANCH   2   3
HETATM    3  N   UNK N   1       1.845   3.132  -0.000  0.00  0.00    -0.430 N 
HETATM    4  H   UNK N   1       2.849   2.951  -0.000  0.00  0.00     0.149 HD
HETATM    5  H   UNK N   1       1.500   4.092  -0.000  0.00  0.00     0.149 HD
ENDBRANCH   2   3
ENDBRANCH   1   2
BRANCH   1   6
HETATM    6  C   UNK N   1       0.801  -0.485  -0.000  0.00  0.00     0.140 C 
HETATM    7  O   UNK N   1      -0.417  -0.375   0.000  0.00  0.00    -0.650 OA
BRANCH   6   8
HETATM    8  O   UNK N   1       1.358  -1.708  -0.000  0.00  0.00    -0.776 OA
HETATM    9  H   UNK N   1       0.814  -2.471  -0.000  0.00  0.00     0.167 HD
ENDBRANCH   6   8
ENDBRANCH   1   6
TORSDOF 4
