REMARK  2 active torsions:
REMARK  status: ('A' for Active; 'I' for Inactive)
REMARK    1  A    between atoms: N_1  and  C_2 
REMARK    2  A    between atoms: C_2  and  C_3 
ROOT
HETATM    1  C   UNK N   1       0.692  -0.797  -0.000  0.00  0.00    -0.033 A 
HETATM    2  C   UNK N   1      -0.535  -0.127  -0.000  0.00  0.00     0.012 A 
HETATM    3  C   UNK N   1      -0.575   1.270  -0.000  0.00  0.00     0.043 A 
HETATM    4  C   UNK N   1       0.615   2.003   0.000  0.00  0.00     0.116 A 
HETATM    5  F   UNK N   1       0.575   3.356   0.000  0.00  0.00    -0.206 F 
HETATM    6  C   UNK N   1       1.846   1.341   0.000  0.00  0.00     0.043 A 
HETATM    7  C   UNK N   1       1.885  -0.056   0.000  0.00  0.00     0.012 A 
ENDROOT
BRANCH   1   8
HETATM    8  C   UNK N   1       0.696  -2.295  -0.000  0.00  0.00     0.268 C 
BRANCH   8   9
HETATM    9  N   UNK N   1       2.047  -2.836   0.000  0.00  0.00    -0.075 N 
HETATM   10  H   UNK N   1       2.192  -3.846   0.000  0.00  0.00     0.274 HD
HETATM   11  H   UNK N   1       2.848  -2.205   0.000  0.00  0.00     0.274 HD
HETATM   12  H   UNK N   1       2.994  -3.215   0.000  0.00  0.00     0.274 HD
ENDBRANCH   8   9
ENDBRANCH   1   8
TORSDOF 2
