REMARK  9 active torsions:
REMARK  status: ('A' for Active; 'I' for Inactive)
REMARK    1  A    between atoms: N_1  and  C_2 
REMARK    2  A    between atoms: C_2  and  C_3 
REMARK    3  A    between atoms: C_3  and  C_4 
REMARK       I    between atoms: C_4  and  N_6 
REMARK    4  A    between atoms: N_6  and  C_7 
REMARK    5  A    between atoms: C_7  and  C_8 
REMARK    6  A    between atoms: C_8  and  C_9 
REMARK    7  A    between atoms: C_9  and  N_10 
REMARK    8  A    between atoms: C_9  and  C_11 
REMARK    9  A    between atoms: C_11  and  O_12 
ROOT
HETATM    1  C   UNK N   1       5.688   2.926   0.000  0.00  0.00     0.125 C 
ENDROOT
BRANCH   1   2
HETATM    2  N   UNK N   1       4.514   2.099   0.000  0.00  0.00    -0.361 N 
HETATM    3  C   UNK N   1       3.258   2.594   0.000  0.00  0.00     0.219 C 
HETATM    4  O   UNK N   1       3.062   3.800   0.000  0.00  0.00    -0.274 OA
HETATM    5  H   UNK N   1       4.631   1.121  -0.000  0.00  0.00     0.162 HD
BRANCH   3   6
HETATM    6  C   UNK N   1       2.121   1.619  -0.000  0.00  0.00     0.121 C 
BRANCH   6   7
HETATM    7  C   UNK N   1       0.755   2.274  -0.000  0.00  0.00     0.120 C 
BRANCH   7   8
HETATM    8  N   UNK N   1      -0.260   1.237  -0.000  0.00  0.00    -0.430 N 
HETATM    9  H   UNK N   1      -1.248   1.490  -0.000  0.00  0.00     0.149 HD
HETATM   10  H   UNK N   1       0.015   0.254  -0.000  0.00  0.00     0.149 HD
ENDBRANCH   7   8
ENDBRANCH   6   7
ENDBRANCH   3   6
ENDBRANCH   1   2
BRANCH   1  11
HETATM   11  C   UNK N   1       6.879   1.993  -0.000  0.00  0.00     0.055 C 
BRANCH  11  12
HETATM   12  C   UNK N   1       8.225   2.697   0.000  0.00  0.00     0.174 C 
BRANCH  12  13
HETATM   13  N   UNK N   1       8.297   4.151  -0.000  0.00  0.00    -0.418 N 
HETATM   14  H   UNK N   1       9.204   4.617  -0.000  0.00  0.00     0.150 HD
HETATM   15  H   UNK N   1       7.440   4.704  -0.000  0.00  0.00     0.150 HD
ENDBRANCH  12  13
BRANCH  12  16
HETATM   16  C   UNK N   1       9.498   1.913   0.000  0.00  0.00     0.163 C 
HETATM   17  O   UNK N   1       9.462   0.692  -0.000  0.00  0.00    -0.648 OA
BRANCH  16  18
HETATM   18  O   UNK N   1      10.685   2.545  -0.000  0.00  0.00    -0.775 OA
HETATM   19  H   UNK N   1      11.480   2.049  -0.000  0.00  0.00     0.167 HD
ENDBRANCH  16  18
ENDBRANCH  12  16
ENDBRANCH  11  12
ENDBRANCH   1  11
TORSDOF 9
