REMARK  4 active torsions:
REMARK  status: ('A' for Active; 'I' for Inactive)
REMARK    1  A    between atoms: C_5  and  C_2 
REMARK    2  A    between atoms: N_16  and  C_2 
REMARK    3  A    between atoms: C_5  and  O_17 
REMARK    4  A    between atoms: N_9  and  C_7 
ROOT
HETATM    1  C   UNK N   1       4.547   0.877   0.028  0.00  0.00     0.183 A 
HETATM    2  C   UNK N   1       0.260   1.933   0.335  0.00  0.00     0.185 A 
HETATM    3  C   UNK N   1       2.313   2.434   0.014  0.00  0.00     0.122 A 
HETATM    4  C   UNK N   1       3.546   3.032  -0.190  0.00  0.00     0.131 A 
HETATM    5  C   UNK N   1       2.231   1.105   0.220  0.00  0.00     0.140 A 
HETATM    6  N   UNK N   1       4.654   2.233  -0.179  0.00  0.00    -0.337 N 
ATOM      7  HN  UNK N   1       5.574   2.647  -0.327  1.00  0.00     0.168 HD
HETATM    8  N   UNK N   1       3.321   0.300   0.237  0.00  0.00    -0.336 N 
ATOM      9  HN  UNK N   1       3.232  -0.703   0.400  1.00  0.00     0.168 HD
HETATM   10  N   UNK N   1       1.087   2.983   0.071  0.00  0.00    -0.346 N 
ATOM     11  HN  UNK N   1       0.833   3.963  -0.054  1.00  0.00     0.167 HD
HETATM   12  N   UNK N   1       0.952   0.768   0.426  0.00  0.00    -0.325 N 
ENDROOT
BRANCH  12  13
HETATM   13  C   UNK N   1       0.421  -0.551   0.767  0.00  0.00     0.162 C 
BRANCH  13  14
HETATM   14  C   UNK N   1      -0.662  -1.031  -0.196  0.00  0.00     0.132 C 
HETATM   15  C   UNK N   1      -1.190  -2.361   0.301  0.00  0.00     0.041 C 
BRANCH  14  16
HETATM   16  O   UNK N   1      -1.719  -0.120  -0.236  0.00  0.00    -0.394 OA
HETATM   17  H   UNK N   1      -1.537   0.833  -0.264  0.00  0.00     0.210 HD
ENDBRANCH  14  16
ENDBRANCH  13  14
ENDBRANCH  12  13
BRANCH   4  18
HETATM   18  N   UNK N   1       3.663   4.424  -0.383  0.00  0.00    -0.383 N 
HETATM   19  H   UNK N   1       4.545   4.839  -0.518  0.00  0.00     0.157 HD
HETATM   20  H   UNK N   1       2.855   4.986  -0.383  0.00  0.00     0.157 HD
ENDBRANCH   4  18
TORSDOF 4
