REMARK  4 active torsions:
REMARK  status: ('A' for Active; 'I' for Inactive)
REMARK    1  A    between atoms: C_2  and  C_4 
REMARK    2  A    between atoms: C_4  and  C_5 
REMARK    3  A    between atoms: C_5  and  C_7 
REMARK    4  A    between atoms: C_7  and  O_8 
ROOT
HETATM    1  C   UNK N   1       2.150   1.044  -0.000  0.00  0.00     0.222 C 
HETATM    2  O   UNK N   1       2.189   2.266  -0.000  0.00  0.00    -0.286 OA
ENDROOT
BRANCH   1   3
HETATM    3  C   UNK N   1       0.838   0.297   0.000  0.00  0.00     0.094 C 
BRANCH   3   4
HETATM    4  C   UNK N   1      -0.477   1.082  -0.000  0.00  0.00    -0.015 C 
HETATM    5  C   UNK N   1      -1.762   0.281   0.000  0.00  0.00     0.010 C 
HETATM    6  C   UNK N   1      -0.582   2.597   0.000  0.00  0.00     0.010 C 
ENDBRANCH   3   4
ENDBRANCH   1   3
BRANCH   1   7
HETATM    7  C   UNK N   1       3.410   0.275   0.000  0.00  0.00     0.213 C 
HETATM    8  O   UNK N   1       3.382  -0.947   0.000  0.00  0.00    -0.644 OA
BRANCH   7   9
HETATM    9  O   UNK N   1       4.597   0.911  -0.000  0.00  0.00    -0.771 OA
HETATM   10  H   UNK N   1       5.393   0.417  -0.000  0.00  0.00     0.167 HD
ENDBRANCH   7   9
ENDBRANCH   1   7
TORSDOF 4
