REMARK  8 active torsions:
REMARK  status: ('A' for Active; 'I' for Inactive)
REMARK    1  A    between atoms: C_2  and  N_1 
REMARK    2  A    between atoms: C_2  and  C_3 
REMARK    3  A    between atoms: C_2  and  C_12 
REMARK    4  A    between atoms: C_3  and  C_4 
REMARK    5  A    between atoms: C_4  and  C_5 
REMARK    6  A    between atoms: C_5  and  N_6 
REMARK       I    between atoms: N_6  and  C_7 
REMARK       I    between atoms: C_7  and  N_10 
REMARK    7  A    between atoms: N_10  and  O_11 
REMARK    8  A    between atoms: C_12  and  O_13 
ROOT
HETATM    1  C   UNK N   1       4.866   3.621  -0.074  0.00  0.00     0.138 C 
ENDROOT
BRANCH   1   2
HETATM    2  C   UNK N   1       5.676   2.341   0.095  0.00  0.00     0.023 C 
BRANCH   2   3
HETATM    3  C   UNK N   1       7.035   2.718   0.672  0.00  0.00     0.037 C 
BRANCH   3   4
HETATM    4  C   UNK N   1       8.164   2.532  -0.333  0.00  0.00     0.173 C 
BRANCH   4   5
HETATM    5  N   UNK N   1       9.082   3.656  -0.225  0.00  0.00    -0.418 N 
HETATM    6  H   UNK N   1      10.086   3.492  -0.149  0.00  0.00     0.150 HD
HETATM    7  H   UNK N   1       8.720   4.609  -0.225  0.00  0.00     0.150 HD
ENDBRANCH   4   5
BRANCH   4   8
HETATM    8  C   UNK N   1       8.893   1.240  -0.075  0.00  0.00     0.163 C 
HETATM    9  O   UNK N   1       8.294   0.179  -0.147  0.00  0.00    -0.648 OA
BRANCH   8  10
HETATM   10  O   UNK N   1      10.207   1.242   0.228  0.00  0.00    -0.775 OA
HETATM   11  H   UNK N   1      10.665   0.451   0.439  0.00  0.00     0.167 HD
ENDBRANCH   8  10
ENDBRANCH   4   8
ENDBRANCH   3   4
ENDBRANCH   2   3
ENDBRANCH   1   2
BRANCH   1  12
HETATM   12  N   UNK N   1       3.416   3.483  -0.099  0.00  0.00    -0.225 N 
HETATM   13  C   UNK N   1       2.621   2.302  -0.033  0.00  0.00     0.691 C 
HETATM   14  N   UNK N   1       3.160   1.136   0.020  0.00  0.00    -0.233 N 
HETATM   15  N   UNK N   1       1.209   2.426  -0.040  0.00  0.00    -0.099 N 
HETATM   16  H   UNK N   1       2.592   0.332   0.060  0.00  0.00     0.174 HD
ATOM     17  HN  UNK N   1       4.175   1.043   0.020  1.00  0.00     0.174 HD
HETATM   18  H   UNK N   1       0.803   3.322  -0.084  0.00  0.00     0.213 HD
HETATM   19  H   UNK N   1       2.913   4.326  -0.172  0.00  0.00     0.177 HD
BRANCH  15  20
HETATM   20  O   UNK N   1       0.416   1.348   0.011  0.00  0.00    -0.276 OA
HETATM   21  H   UNK N   1      -0.548   1.455   0.048  0.00  0.00     0.245 HD
ENDBRANCH  15  20
ENDBRANCH   1  12
TORSDOF 8
