REMARK  10 active torsions:
REMARK  status: ('A' for Active; 'I' for Inactive)
REMARK    1  A    between atoms: C_2  and  C_3 
REMARK    2  A    between atoms: C_4  and  C_5 
REMARK    3  A    between atoms: C_5  and  C_7 
REMARK    4  A    between atoms: C_11  and  O_12 
REMARK    5  A    between atoms: C_20  and  S_23 
REMARK    6  A    between atoms: S_23  and  N_26 
REMARK    7  A    between atoms: N_26  and  C_27 
REMARK    8  A    between atoms: C_30  and  S_33 
REMARK    9  A    between atoms: S_33  and  N_36 
REMARK   10  A    between atoms: N_36  and  C_37 
ROOT
HETATM    1  C   UNK N   1      -2.033  -0.155  -0.038  0.00  0.00     0.068 A 
HETATM    2  C   UNK N   1      -1.070  -1.201   0.037  0.00  0.00     0.058 A 
HETATM    3  C   UNK N   1       0.152  -0.519   0.089  0.00  0.00     0.015 A 
HETATM    4  C   UNK N   1      -0.148   0.814   0.049  0.00  0.00     0.088 A 
HETATM    5  O   UNK N   1      -1.422   1.009  -0.021  0.00  0.00    -0.313 OA
HETATM    6  C   UNK N   1       0.810   1.802   0.026  0.00  0.00     0.063 A 
HETATM    7  C   UNK N   1       2.146   1.424   0.050  0.00  0.00     0.082 A 
HETATM    8  C   UNK N   1       2.497   0.050   0.107  0.00  0.00     0.026 A 
HETATM    9  C   UNK N   1       1.485  -0.944   0.140  0.00  0.00     0.017 A 
ENDROOT
BRANCH   7  10
HETATM   10  S   UNK N   1       3.342   2.722  -0.211  0.00  0.00     0.263 S 
HETATM   11  O   UNK N   1       3.719   2.830  -1.695  0.00  0.00    -0.200 OA
HETATM   12  O   UNK N   1       2.722   4.108   0.022  0.00  0.00    -0.200 OA
BRANCH  10  13
HETATM   13  N   UNK N   1       4.868   2.793   0.633  0.00  0.00    -0.281 N 
HETATM   14  H   UNK N   1       5.028   3.521   1.277  0.00  0.00     0.179 HD
BRANCH  13  15
HETATM   15  C   UNK N   1       5.878   1.835   0.413  0.00  0.00     0.042 A 
HETATM   16  C   UNK N   1       7.193   2.164   0.727  0.00  0.00     0.031 A 
HETATM   17  C   UNK N   1       8.210   1.247   0.490  0.00  0.00     0.027 A 
HETATM   18  C   UNK N   1       7.922  -0.015  -0.048  0.00  0.00     0.080 A 
HETATM   19  C   UNK N   1       6.604  -0.352  -0.365  0.00  0.00     0.027 A 
HETATM   20  C   UNK N   1       5.584   0.579  -0.142  0.00  0.00     0.031 A 
BRANCH  18  21
HETATM   21  S   UNK N   1       9.283  -1.155  -0.283  0.00  0.00     0.264 S 
HETATM   22  O   UNK N   1       9.381  -1.251   1.245  0.00  0.00    -0.200 OA
HETATM   23  O   UNK N   1      10.650  -0.460  -0.357  0.00  0.00    -0.200 OA
BRANCH  21  24
HETATM   24  N   UNK N   1       9.591  -2.883  -0.371  0.00  0.00    -0.260 N 
HETATM   25  H   UNK N   1      10.519  -3.165  -0.540  0.00  0.00     0.181 HD
BRANCH  24  26
HETATM   26  C   UNK N   1       8.627  -3.905  -0.220  0.00  0.00     0.158 A 
HETATM   27  N   UNK N   1       8.958  -5.211  -0.105  0.00  0.00    -0.345 N 
HETATM   28  C   UNK N   1       7.850  -6.021   0.028  0.00  0.00     0.097 A 
ATOM     29  HN  UNK N   1       9.917  -5.558  -0.116  1.00  0.00     0.167 HD
HETATM   30  C   UNK N   1       6.611  -5.348   0.014  0.00  0.00     0.070 A 
HETATM   31  S   UNK N   1       6.993  -3.741  -0.161  0.00  0.00    -0.064 SA
ENDBRANCH  24  26
ENDBRANCH  21  24
ENDBRANCH  18  21
ENDBRANCH  13  15
ENDBRANCH  10  13
ENDBRANCH   7  10
BRANCH   2  32
HETATM   32  C   UNK N   1      -1.192  -2.719   0.028  0.00  0.00     0.195 C 
HETATM   33  O   UNK N   1      -0.158  -3.370   0.015  0.00  0.00    -0.287 OA
BRANCH  32  34
HETATM   34  C   UNK N   1      -2.485  -3.484   0.031  0.00  0.00     0.018 A 
HETATM   35  C   UNK N   1      -2.497  -4.892  -0.028  0.00  0.00     0.037 A 
HETATM   36  C   UNK N   1      -3.718  -5.594  -0.024  0.00  0.00     0.046 A 
HETATM   37 Br   UNK N   1      -3.715  -7.503  -0.104  0.00  0.00    -0.048 Br
HETATM   38  C   UNK N   1      -4.932  -4.891   0.037  0.00  0.00     0.100 A 
HETATM   39  C   UNK N   1      -4.915  -3.499   0.101  0.00  0.00     0.046 A 
HETATM   40 Br   UNK N   1      -6.525  -2.473   0.182  0.00  0.00    -0.048 Br
HETATM   41  C   UNK N   1      -3.702  -2.829   0.102  0.00  0.00     0.037 A 
BRANCH  38  42
HETATM   42  O   UNK N   1      -6.105  -5.549   0.037  0.00  0.00    -0.358 OA
HETATM   43  H   UNK N   1      -6.910  -5.071   0.037  0.00  0.00     0.217 HD
ENDBRANCH  38  42
ENDBRANCH  32  34
ENDBRANCH   2  32
BRANCH   1  44
HETATM   44  C   UNK N   1      -3.519  -0.195  -0.172  0.00  0.00     0.061 C 
HETATM   45  C   UNK N   1      -4.137   1.189  -0.258  0.00  0.00     0.012 C 
ENDBRANCH   1  44
TORSDOF 10
