REMARK  8 active torsions:
REMARK  status: ('A' for Active; 'I' for Inactive)
REMARK    1  A    between atoms: C_2  and  C_1 
REMARK    2  A    between atoms: C_3  and  C_1 
REMARK    3  A    between atoms: C_4  and  C_2 
REMARK    4  A    between atoms: C_2  and  O_7 
REMARK    5  A    between atoms: C_5  and  C_3 
REMARK    6  A    between atoms: C_3  and  O_8 
REMARK    7  A    between atoms: C_6  and  C_4 
REMARK    8  A    between atoms: C_4  and  O_9 
ROOT
HETATM    1  C   UNK N   1       1.448   0.449   0.545  0.00  0.00     0.160 C 
ENDROOT
BRANCH   1   2
HETATM    2  C   UNK N   1       2.210   0.415  -0.794  0.00  0.00     0.077 C 
BRANCH   2   3
HETATM    3  C   UNK N   1       3.696   0.817  -0.715  0.00  0.00     0.221 C 
BRANCH   3   4
HETATM    4  C   UNK N   1       4.566  -0.171   0.026  0.00  0.00     0.203 C 
HETATM    5  O   UNK N   1       5.763   0.046   0.136  0.00  0.00    -0.646 OA
HETATM    6  O   UNK N   1       4.051  -1.302   0.546  0.00  0.00    -0.646 OA
ENDBRANCH   3   4
BRANCH   3   7
HETATM    7  O   UNK N   1       3.821   2.081  -0.136  0.00  0.00    -0.385 OA
HETATM    8  H   UNK N   1       4.626   2.445   0.266  0.00  0.00     0.210 HD
ENDBRANCH   3   7
ENDBRANCH   2   3
ENDBRANCH   1   2
BRANCH   1   9
HETATM    9  C   UNK N   1       0.041  -0.171   0.430  0.00  0.00     0.247 C 
BRANCH   9  10
HETATM   10  C   UNK N   1      -0.938   0.606  -0.419  0.00  0.00     0.205 C 
HETATM   11  O   UNK N   1      -2.085   0.204  -0.534  0.00  0.00    -0.646 OA
HETATM   12  O   UNK N   1      -0.575   1.751  -1.030  0.00  0.00    -0.646 OA
ENDBRANCH   9  10
BRANCH   9  13
HETATM   13  O   UNK N   1       0.145  -1.475  -0.064  0.00  0.00    -0.382 OA
HETATM   14  H   UNK N   1      -0.602  -1.990  -0.407  0.00  0.00     0.210 HD
ENDBRANCH   9  13
ENDBRANCH   1   9
BRANCH   1  15
HETATM   15  O   UNK N   1       1.354   1.760   1.019  0.00  0.00    -0.392 OA
HETATM   16  H   UNK N   1       2.110   2.272   1.348  0.00  0.00     0.210 HD
ENDBRANCH   1  15
TORSDOF 8
