REMARK  7 active torsions:
REMARK  status: ('A' for Active; 'I' for Inactive)
REMARK    1  A    between atoms: N_1  and  C_2 
REMARK    2  A    between atoms: C_2  and  C_3 
REMARK    3  A    between atoms: C_6  and  N_7 
REMARK       I    between atoms: N_7  and  C_8 
REMARK    4  A    between atoms: C_8  and  C_10 
REMARK    5  A    between atoms: C_12  and  N_13 
REMARK       I    between atoms: N_13  and  C_14 
REMARK    6  A    between atoms: C_24  and  C_29 
REMARK    7  A    between atoms: C_29  and  N_30 
ROOT
HETATM    1  C   UNK N   1       0.344  -1.250  -0.000  0.00  0.00     0.035 A 
HETATM    2  C   UNK N   1       0.507   0.134   0.000  0.00  0.00     0.048 A 
HETATM    3  C   UNK N   1       1.778   0.730   0.000  0.00  0.00     0.061 A 
HETATM    4  C   UNK N   1       2.931  -0.129   0.000  0.00  0.00     0.002 A 
HETATM    5  C   UNK N   1       4.251   0.337   0.000  0.00  0.00     0.029 A 
HETATM    6  C   UNK N   1       5.345  -0.549   0.000  0.00  0.00     0.008 A 
HETATM    7  C   UNK N   1       5.115  -1.926  -0.000  0.00  0.00     0.016 A 
HETATM    8  C   UNK N   1       3.817  -2.416  -0.000  0.00  0.00     0.013 A 
HETATM    9  C   UNK N   1       2.736  -1.537  -0.000  0.00  0.00    -0.023 A 
HETATM   10  C   UNK N   1       1.464  -2.071  -0.000  0.00  0.00     0.029 A 
ENDROOT
BRANCH   1  11
HETATM   11  C   UNK N   1      -0.984  -1.881  -0.000  0.00  0.00     0.256 C 
HETATM   12  N   UNK N   1      -1.037  -3.237  -0.000  0.00  0.00    -0.323 N 
HETATM   13  H   UNK N   1      -0.168  -3.699  -0.000  0.00  0.00     0.169 HD
HETATM   14  O   UNK N   1      -2.002  -1.202  -0.000  0.00  0.00    -0.267 OA
BRANCH  12  15
HETATM   15  C   UNK N   1      -2.177  -4.073  -0.000  0.00  0.00     0.035 A 
HETATM   16  C   UNK N   1      -3.487  -3.570   0.000  0.00  0.00     0.030 A 
HETATM   17  C   UNK N   1      -4.572  -4.455   0.000  0.00  0.00     0.011 A 
HETATM   18  C   UNK N   1      -4.353  -5.839   0.000  0.00  0.00    -0.041 A 
HETATM   19  C   UNK N   1      -3.042  -6.331   0.000  0.00  0.00     0.011 A 
HETATM   20  C   UNK N   1      -1.966  -5.451   0.000  0.00  0.00     0.030 A 
BRANCH  18  21
HETATM   21  C   UNK N   1      -5.528  -6.768   0.000  0.00  0.00     0.150 C 
BRANCH  21  22
HETATM   22  N   UNK N   1      -5.114  -8.165  -0.000  0.00  0.00    -0.426 N 
HETATM   23  H   UNK N   1      -5.816  -8.905  -0.000  0.00  0.00     0.150 HD
HETATM   24  H   UNK N   1      -4.122  -8.403  -0.000  0.00  0.00     0.150 HD
ENDBRANCH  21  22
ENDBRANCH  18  21
ENDBRANCH  12  15
ENDBRANCH   1  11
BRANCH   3  25
HETATM   25  N   UNK N   1       1.768   2.162   0.000  0.00  0.00    -0.191 N 
HETATM   26  C   UNK N   1       2.740   3.204   0.000  0.00  0.00     0.682 A 
HETATM   27  N   UNK N   1       2.301   4.492   0.000  0.00  0.00    -0.202 N 
HETATM   28  N   UNK N   1       4.072   2.954  -0.000  0.00  0.00    -0.202 N 
HETATM   29  C   UNK N   1       3.174   5.533   0.000  0.00  0.00     0.107 A 
ATOM     30  HN  UNK N   1       1.298   4.679   0.000  1.00  0.00     0.183 HD
HETATM   31  C   UNK N   1       4.543   5.289  -0.000  0.00  0.00     0.035 A 
HETATM   32  C   UNK N   1       4.978   3.967  -0.000  0.00  0.00     0.107 A 
ATOM     33  HN  UNK N   1       4.400   1.989  -0.000  1.00  0.00     0.183 HD
HETATM   34  H   UNK N   1       0.850   2.520   0.000  0.00  0.00     0.184 HD
ENDBRANCH   3  25
BRANCH   6  35
HETATM   35  C   UNK N   1       6.734  -0.047   0.000  0.00  0.00     0.102 C 
HETATM   36  N   UNK N   1       6.970   1.213   0.000  0.00  0.00    -0.385 N 
HETATM   37  H   UNK N   1       7.898   1.540   0.000  0.00  0.00     0.157 HD
ATOM     38  HN  UNK N   1       6.195   1.877   0.000  1.00  0.00     0.157 HD
BRANCH  35  39
HETATM   39  N   UNK N   1       7.817  -0.956   0.000  0.00  0.00    -0.385 N 
HETATM   40  H   UNK N   1       7.647  -1.925   0.000  0.00  0.00     0.157 HD
HETATM   41  H   UNK N   1       8.743  -0.619   0.000  0.00  0.00     0.157 HD
ENDBRANCH  35  39
ENDBRANCH   6  35
TORSDOF 7
