REMARK  5 active torsions:
REMARK  status: ('A' for Active; 'I' for Inactive)
REMARK    1  A    between atoms: C_4  and  C_3 
REMARK    2  A    between atoms: C_6  and  C_3 
REMARK    3  A    between atoms: C_5  and  C_7 
REMARK    4  A    between atoms: O_10  and  C_6 
REMARK    5  A    between atoms: O_12  and  C_7 
ROOT
HETATM    1  C   UNK N   1       1.400  -0.383   0.799  0.00  0.00     0.028 C 
HETATM    2  C   UNK N   1       1.754   1.095   0.869  0.00  0.00     0.038 C 
HETATM    3  C   UNK N   1       0.221  -0.458  -0.163  0.00  0.00     0.087 C 
HETATM    4  C   UNK N   1       0.868   1.736  -0.180  0.00  0.00     0.175 C 
HETATM    5  N   UNK N   1      -0.313   0.892  -0.258  0.00  0.00    -0.404 N 
HETATM    6  H   UNK N   1      -1.287   1.179  -0.355  0.00  0.00     0.154 HD
ENDROOT
BRANCH   3   7
HETATM    7  C   UNK N   1      -0.877  -1.402   0.322  0.00  0.00     0.134 C 
BRANCH   7   8
HETATM    8  C   UNK N   1      -0.577  -2.862   0.138  0.00  0.00     0.141 C 
HETATM    9  O   UNK N   1      -1.501  -3.654   0.049  0.00  0.00    -0.650 OA
BRANCH   8  10
HETATM   10  O   UNK N   1       0.692  -3.308   0.060  0.00  0.00    -0.776 OA
HETATM   11  H   UNK N   1       0.865  -4.228   0.005  0.00  0.00     0.167 HD
ENDBRANCH   8  10
ENDBRANCH   7   8
ENDBRANCH   3   7
BRANCH   4  12
HETATM   12  C   UNK N   1       0.521   3.161   0.149  0.00  0.00     0.163 C 
HETATM   13  O   UNK N   1      -0.650   3.496   0.296  0.00  0.00    -0.648 OA
BRANCH  12  14
HETATM   14  O   UNK N   1       1.490   4.086   0.252  0.00  0.00    -0.775 OA
HETATM   15  H   UNK N   1       2.387   3.823   0.323  0.00  0.00     0.167 HD
ENDBRANCH  12  14
ENDBRANCH   4  12
TORSDOF 5
