REMARK  8 active torsions:
REMARK  status: ('A' for Active; 'I' for Inactive)
REMARK    1  A    between atoms: C_6  and  C_2 
REMARK    2  A    between atoms: O_23  and  C_2 
REMARK    3  A    between atoms: C_7  and  O_18 
REMARK    4  A    between atoms: C_8  and  O_19 
REMARK    5  A    between atoms: C_10  and  N_17 
REMARK    6  A    between atoms: P_25  and  O_20 
REMARK    7  A    between atoms: P_25  and  O_21 
REMARK    8  A    between atoms: P_25  and  O_23 
ROOT
HETATM    1  C   UNK N   1       0.281   2.801  -0.328  0.00  0.00     0.180 C 
HETATM    2  C   UNK N   1      -1.086   2.412   0.240  0.00  0.00     0.182 C 
HETATM    3  C   UNK N   1      -1.079   0.881   0.104  0.00  0.00     0.198 C 
HETATM    4  C   UNK N   1       0.325   0.614  -0.457  0.00  0.00     0.261 C 
HETATM    5  O   UNK N   1       1.117   1.704  -0.041  0.00  0.00    -0.353 OA
ENDROOT
BRANCH   4   6
HETATM    6  N   UNK N   1       0.919  -0.671  -0.067  0.00  0.00    -0.308 N 
HETATM    7  C   UNK N   1       0.281  -1.857   0.120  0.00  0.00     0.187 A 
HETATM    8  N   UNK N   1       1.164  -2.863   0.377  0.00  0.00    -0.336 N 
HETATM    9  C   UNK N   1       2.366  -2.266   0.317  0.00  0.00     0.136 A 
ATOM     10  HN  UNK N   1       0.959  -3.844   0.570  1.00  0.00     0.168 HD
HETATM   11  C   UNK N   1       2.227  -0.955   0.045  0.00  0.00     0.097 A 
HETATM   12  N   UNK N   1       3.578  -2.852   0.468  0.00  0.00    -0.337 N 
HETATM   13  C   UNK N   1       3.343  -0.145  -0.099  0.00  0.00     0.122 A 
HETATM   14  N   UNK N   1       4.570  -0.726   0.056  0.00  0.00    -0.360 N 
HETATM   15  C   UNK N   1       4.691  -2.066   0.337  0.00  0.00     0.182 A 
ATOM     16  HN  UNK N   1       5.411  -0.156  -0.040  1.00  0.00     0.166 HD
ATOM     17  HN  UNK N   1       3.658  -3.848   0.673  1.00  0.00     0.168 HD
ENDBRANCH   4   6
BRANCH   3  18
HETATM   18  O   UNK N   1      -1.236   0.285   1.363  0.00  0.00    -0.388 OA
HETATM   19  H   UNK N   1      -1.648   0.173   2.234  0.00  0.00     0.210 HD
ENDBRANCH   3  18
BRANCH   2  20
HETATM   20  O   UNK N   1      -1.139   2.760   1.599  0.00  0.00    -0.390 OA
HETATM   21  H   UNK N   1      -0.949   2.911   2.538  0.00  0.00     0.210 HD
ENDBRANCH   2  20
BRANCH   1  22
HETATM   22  C   UNK N   1       0.808   4.104   0.273  0.00  0.00     0.215 C 
BRANCH  22  23
HETATM   23  O   UNK N   1       2.210   4.106   0.339  0.00  0.00    -0.294 OA
BRANCH  23  24
HETATM   24  P   UNK N   1       2.737   5.693  -0.151  0.00  0.00     0.390 P 
HETATM   25  O   UNK N   1       2.448   5.978   1.350  0.00  0.00    -0.632 OA
BRANCH  24  26
HETATM   26  O   UNK N   1       4.239   6.368   0.399  0.00  0.00    -0.307 OA
HETATM   27  H   UNK N   1       4.985   5.829   0.706  0.00  0.00     0.222 HD
ENDBRANCH  24  26
BRANCH  24  28
HETATM   28  O   UNK N   1       4.040   4.548  -0.236  0.00  0.00    -0.307 OA
HETATM   29  H   UNK N   1       3.849   3.598  -0.283  0.00  0.00     0.222 HD
ENDBRANCH  24  28
ENDBRANCH  23  24
ENDBRANCH  22  23
ENDBRANCH   1  22
TORSDOF 8
