REMARK  12 active torsions:
REMARK  status: ('A' for Active; 'I' for Inactive)
REMARK    1  A    between atoms: O_1  and  C_2 
REMARK    2  A    between atoms: C_2  and  C_4 
REMARK    3  A    between atoms: C_5  and  C_41 
REMARK    4  A    between atoms: C_7  and  O_8 
REMARK    5  A    between atoms: O_8  and  C_9 
REMARK    6  A    between atoms: C_10  and  N_11 
REMARK       I    between atoms: N_11  and  C_12 
REMARK    7  A    between atoms: C_12  and  C_14 
REMARK    8  A    between atoms: C_16  and  N_20 
REMARK    9  A    between atoms: C_24  and  N_25 
REMARK       I    between atoms: N_25  and  C_26 
REMARK   10  A    between atoms: C_26  and  C_28 
REMARK   11  A    between atoms: C_30  and  N_34 
REMARK   12  A    between atoms: C_41  and  O_42 
ROOT
HETATM    1  C   UNK N   1       1.564  -7.208  -0.565  0.00  0.00     0.102 A 
HETATM    2  C   UNK N   1       1.732  -8.438   0.106  0.00  0.00     0.071 A 
HETATM    3  C   UNK N   1       0.606  -9.118   0.517  0.00  0.00     0.062 A 
HETATM    4  C   UNK N   1      -0.688  -8.620   0.298  0.00  0.00     0.037 A 
HETATM    5  C   UNK N   1      -0.856  -7.395  -0.331  0.00  0.00     0.032 A 
HETATM    6  C   UNK N   1       0.265  -6.690  -0.754  0.00  0.00     0.042 A 
ENDROOT
BRANCH   1   7
HETATM    7  O   UNK N   1       2.644  -6.531  -1.015  0.00  0.00    -0.308 OA
BRANCH   7   8
HETATM    8  C   UNK N   1       2.833  -5.213  -0.782  0.00  0.00     0.077 A 
HETATM    9  C   UNK N   1       4.127  -4.712  -0.811  0.00  0.00     0.056 A 
HETATM   10  C   UNK N   1       4.423  -3.412  -0.376  0.00  0.00     0.057 A 
HETATM   11  C   UNK N   1       3.334  -2.578   0.077  0.00  0.00     0.054 A 
HETATM   12  C   UNK N   1       2.038  -3.102   0.050  0.00  0.00     0.022 A 
HETATM   13  C   UNK N   1       1.793  -4.392  -0.355  0.00  0.00     0.038 A 
BRANCH  10  14
HETATM   14  C   UNK N   1       5.875  -3.069  -0.371  0.00  0.00     0.177 C 
HETATM   15  O   UNK N   1       6.296  -2.039   0.117  0.00  0.00    -0.646 OA
BRANCH  14  16
HETATM   16  O   UNK N   1       6.764  -3.955  -0.867  0.00  0.00    -0.773 OA
HETATM   17  H   UNK N   1       6.540  -4.797  -1.212  0.00  0.00     0.167 HD
ENDBRANCH  14  16
ENDBRANCH  10  14
BRANCH  11  18
HETATM   18  C   UNK N   1       3.413  -1.185   0.595  0.00  0.00     0.177 C 
HETATM   19  O   UNK N   1       4.448  -0.549   0.596  0.00  0.00    -0.646 OA
BRANCH  18  20
HETATM   20  O   UNK N   1       2.294  -0.596   1.068  0.00  0.00    -0.773 OA
HETATM   21  H   UNK N   1       2.260   0.281   1.396  0.00  0.00     0.167 HD
ENDBRANCH  18  20
ENDBRANCH  11  18
ENDBRANCH   7   8
ENDBRANCH   1   7
BRANCH   2  22
HETATM   22  N   UNK N   1       2.990  -9.089   0.281  0.00  0.00    -0.320 N 
HETATM   23  C   UNK N   1       4.208  -8.512   0.450  0.00  0.00     0.256 C 
HETATM   24  O   UNK N   1       4.310  -7.319   0.687  0.00  0.00    -0.267 OA
HETATM   25  H   UNK N   1       2.973 -10.074   0.280  0.00  0.00     0.169 HD
BRANCH  23  26
HETATM   26  C   UNK N   1       5.427  -9.336   0.343  0.00  0.00     0.034 A 
HETATM   27  C   UNK N   1       6.681  -8.715   0.342  0.00  0.00     0.053 A 
HETATM   28  C   UNK N   1       7.853  -9.466   0.178  0.00  0.00     0.103 A 
HETATM   29  C   UNK N   1       7.760 -10.857   0.025  0.00  0.00     0.036 A 
HETATM   30  C   UNK N   1       6.510 -11.485   0.030  0.00  0.00     0.003 A 
HETATM   31  C   UNK N   1       5.346 -10.726   0.176  0.00  0.00     0.017 A 
BRANCH  28  32
HETATM   32  N   UNK N   1       9.118  -8.819   0.144  0.00  0.00    -0.116 N 
HETATM   33  O   UNK N   1      10.218  -9.522  -0.017  0.00  0.00    -0.532 OA
HETATM   34  O   UNK N   1       9.189  -7.630   0.237  0.00  0.00    -0.532 OA
ENDBRANCH  28  32
ENDBRANCH  23  26
ENDBRANCH   2  22
BRANCH   4  35
HETATM   35  N   UNK N   1      -1.799  -9.488   0.440  0.00  0.00    -0.323 N 
HETATM   36  C   UNK N   1      -1.664 -10.790   0.067  0.00  0.00     0.256 C 
HETATM   37  O   UNK N   1      -0.612 -11.179  -0.430  0.00  0.00    -0.267 OA
HETATM   38  H   UNK N   1      -2.652  -9.155   0.801  0.00  0.00     0.169 HD
BRANCH  36  39
HETATM   39  C   UNK N   1      -2.752 -11.751   0.156  0.00  0.00     0.034 A 
HETATM   40  C   UNK N   1      -2.449 -13.044  -0.249  0.00  0.00     0.053 A 
HETATM   41  C   UNK N   1      -3.394 -14.048  -0.250  0.00  0.00     0.103 A 
HETATM   42  C   UNK N   1      -4.702 -13.749   0.163  0.00  0.00     0.036 A 
HETATM   43  C   UNK N   1      -5.026 -12.445   0.580  0.00  0.00     0.003 A 
HETATM   44  C   UNK N   1      -4.048 -11.438   0.579  0.00  0.00     0.017 A 
BRANCH  41  45
HETATM   45  N   UNK N   1      -3.012 -15.350  -0.672  0.00  0.00    -0.116 N 
HETATM   46  O   UNK N   1      -3.896 -16.322  -0.710  0.00  0.00    -0.532 OA
HETATM   47  O   UNK N   1      -1.882 -15.570  -0.993  0.00  0.00    -0.532 OA
ENDBRANCH  41  45
ENDBRANCH  36  39
ENDBRANCH   4  35
TORSDOF 12
