REMARK  12 active torsions:
REMARK  status: ('A' for Active; 'I' for Inactive)
REMARK    1  A    between atoms: C_3  and  C_2 
REMARK    2  A    between atoms: C_5  and  C_4 
REMARK    3  A    between atoms: C_6  and  C_4 
REMARK    4  A    between atoms: C_8  and  C_5 
REMARK    5  A    between atoms: C_9  and  C_6 
REMARK    6  A    between atoms: C_7  and  C_11 
REMARK    7  A    between atoms: C_10  and  C_8 
REMARK    8  A    between atoms: C_12  and  C_9 
REMARK    9  A    between atoms: C_15  and  C_10 
REMARK   10  A    between atoms: C_16  and  C_11 
REMARK   11  A    between atoms: C_18  and  C_12 
REMARK   12  A    between atoms: O_21  and  C_18 
ROOT
HETATM    1  C   UNK N   1      -0.812   2.709  -0.023  0.00  0.00    -0.018 C 
HETATM    2  C   UNK N   1      -1.112   3.992  -0.129  0.00  0.00     0.047 C 
HETATM    3  C   UNK N   1      -2.040   1.851   0.130  0.00  0.00     0.020 C 
HETATM    4  C   UNK N   1      -3.224   2.802  -0.181  0.00  0.00     0.071 C 
HETATM    5  C   UNK N   1      -2.547   4.133  -0.144  0.00  0.00     0.154 C 
HETATM    6  O   UNK N   1      -3.111   5.205  -0.287  0.00  0.00    -0.293 OA
ENDROOT
BRANCH   3   7
HETATM    7  C   UNK N   1      -2.061   0.624  -0.786  0.00  0.00     0.009 C 
BRANCH   7   8
HETATM    8  C   UNK N   1      -1.775  -0.668  -0.025  0.00  0.00     0.001 C 
BRANCH   8   9
HETATM    9  C   UNK N   1      -0.337  -1.125  -0.195  0.00  0.00     0.000 C 
BRANCH   9  10
HETATM   10  C   UNK N   1       0.602  -0.227   0.582  0.00  0.00     0.000 C 
BRANCH  10  11
HETATM   11  C   UNK N   1       1.505   0.497  -0.390  0.00  0.00     0.001 C 
BRANCH  11  12
HETATM   12  C   UNK N   1       2.246   1.598   0.339  0.00  0.00     0.010 C 
BRANCH  12  13
HETATM   13  C   UNK N   1       3.517   1.948  -0.408  0.00  0.00     0.110 C 
BRANCH  13  14
HETATM   14  C   UNK N   1       4.592   0.961  -0.086  0.00  0.00     0.139 C 
HETATM   15  O   UNK N   1       5.617   1.336   0.457  0.00  0.00    -0.650 OA
BRANCH  14  16
HETATM   16  O   UNK N   1       4.434  -0.342  -0.392  0.00  0.00    -0.776 OA
HETATM   17  H   UNK N   1       3.594  -0.699  -0.605  0.00  0.00     0.167 HD
ENDBRANCH  14  16
ENDBRANCH  13  14
ENDBRANCH  12  13
ENDBRANCH  11  12
ENDBRANCH  10  11
ENDBRANCH   9  10
ENDBRANCH   8   9
ENDBRANCH   7   8
ENDBRANCH   3   7
BRANCH   4  18
HETATM   18  C   UNK N   1      -4.354   2.590   0.835  0.00  0.00     0.040 C 
BRANCH  18  19
HETATM   19  C   UNK N   1      -5.653   3.206   0.416  0.00  0.00    -0.030 C 
HETATM   20  C   UNK N   1      -5.816   4.524   0.396  0.00  0.00    -0.031 C 
BRANCH  20  21
HETATM   21  C   UNK N   1      -7.110   5.111  -0.041  0.00  0.00     0.022 C 
HETATM   22  C   UNK N   1      -6.990   6.620  -0.051  0.00  0.00     0.009 C 
ENDBRANCH  20  21
ENDBRANCH  18  19
ENDBRANCH   4  18
TORSDOF 12
