REMARK WARNING: 32 MAX_TORS EXCEEDED!!!
REMARK  34 active torsions:
REMARK  status: ('A' for Active; 'I' for Inactive)
REMARK    1  A    between atoms: C_5  and  C_4 
REMARK    2  A    between atoms: C_15  and  C_4 
REMARK    3  A    between atoms: N_31  and  C_5 
REMARK    4  A    between atoms: C_7  and  C_6 
REMARK    5  A    between atoms: N_29  and  C_6 
REMARK    6  A    between atoms: S_65  and  C_7 
REMARK    7  A    between atoms: C_16  and  C_8 
REMARK    8  A    between atoms: C_27  and  C_8 
REMARK    9  A    between atoms: C_17  and  C_9 
REMARK   10  A    between atoms: C_27  and  C_9 
REMARK   11  A    between atoms: C_14  and  C_10 
REMARK   12  A    between atoms: O_57  and  C_10 
REMARK   13  A    between atoms: C_26  and  C_11 
REMARK   14  A    between atoms: O_58  and  C_11 
REMARK   15  A    between atoms: N_29  and  C_15 
REMARK   16  A    between atoms: O_40  and  C_15 
REMARK   17  A    between atoms: S_65  and  C_17 
REMARK   18  A    between atoms: C_19  and  O_45 
REMARK   19  A    between atoms: C_20  and  O_60 
REMARK   20  A    between atoms: C_24  and  C_21 
REMARK   21  A    between atoms: C_26  and  C_21 
REMARK   22  A    between atoms: C_21  and  O_46 
REMARK   23  A    between atoms: N_28  and  C_22 
REMARK   24  A    between atoms: N_31  and  C_24 
REMARK   25  A    between atoms: O_47  and  C_24 
REMARK   26  A    between atoms: C_25  and  N_39 
REMARK   27  A    between atoms: C_27  and  O_49 
REMARK   28  A    between atoms: P_63  and  O_53 
REMARK   29  A    between atoms: P_64  and  O_55 
REMARK   30  A    between atoms: P_63  and  O_57 
REMARK   31  A    between atoms: P_64  and  O_58 
REMARK   32  A    between atoms: P_62  and  O_60 
REMARK   33  A    between atoms: P_63  and  O_61 
REMARK   34  A    between atoms: P_64  and  O_61 
ROOT
HETATM    1  O   UNK N   1      -4.995  -4.431   0.224  0.00  0.00    -0.631 OA
HETATM    2  P   UNK N   1      -3.666  -3.634   0.299  0.00  0.00     0.401 P 
ENDROOT
BRANCH   2   3
HETATM    3  O   UNK N   1      -2.417  -4.837   0.374  0.00  0.00    -0.307 OA
HETATM    4  H   UNK N   1      -2.651  -5.778   0.416  0.00  0.00     0.222 HD
ENDBRANCH   2   3
BRANCH   2   5
HETATM    5  O   UNK N   1      -3.581  -2.701  -1.173  0.00  0.00    -0.296 OA
BRANCH   5   6
HETATM    6  C   UNK N   1      -4.034  -1.400  -0.895  0.00  0.00     0.192 C 
BRANCH   6   7
HETATM    7  C   UNK N   1      -5.515  -1.188  -1.234  0.00  0.00     0.008 C 
HETATM    8  C   UNK N   1      -5.629   0.164  -1.926  0.00  0.00     0.020 C 
HETATM    9  C   UNK N   1      -5.993  -2.249  -2.227  0.00  0.00     0.020 C 
BRANCH   7  10
HETATM   10  C   UNK N   1      -6.367  -1.212   0.065  0.00  0.00     0.202 C 
BRANCH  10  11
HETATM   11  C   UNK N   1      -7.846  -1.205  -0.224  0.00  0.00     0.141 C 
BRANCH  11  12
HETATM   12  N   UNK N   1      -8.382  -0.221  -0.860  0.00  0.00    -0.372 N 
ATOM     13  HN  UNK N   1      -7.811   0.591  -1.094  1.00  0.00     0.161 HD
BRANCH  12  14
HETATM   14  C   UNK N   1      -9.769  -0.242  -1.248  0.00  0.00     0.129 C 
BRANCH  14  15
HETATM   15  C   UNK N   1     -10.596   0.658  -0.354  0.00  0.00     0.103 C 
BRANCH  15  16
HETATM   16  C   UNK N   1     -11.560  -0.191   0.401  0.00  0.00     0.112 C 
BRANCH  16  17
HETATM   17  N   UNK N   1     -12.817  -0.115   0.132  0.00  0.00    -0.374 N 
ATOM     18  HN  UNK N   1     -13.133   0.545  -0.578  1.00  0.00     0.161 HD
BRANCH  17  19
HETATM   19  C   UNK N   1     -13.792  -0.937   0.806  0.00  0.00     0.132 C 
BRANCH  19  20
HETATM   20  C   UNK N   1     -13.840  -2.316   0.172  0.00  0.00     0.102 C 
BRANCH  20  21
HETATM   21  S   UNK N   1     -13.603  -3.588   1.448  0.00  0.00    -0.091 SA
BRANCH  21  22
HETATM   22  C   UNK N   1     -12.086  -4.209   0.708  0.00  0.00     0.188 C 
HETATM   23  O   UNK N   1     -11.022  -4.030   1.277  0.00  0.00    -0.285 OA
BRANCH  22  24
HETATM   24  C   UNK N   1     -12.108  -4.933  -0.609  0.00  0.00     0.128 C 
BRANCH  24  25
HETATM   25  C   UNK N   1     -12.878  -6.256  -0.594  0.00  0.00     0.071 C 
HETATM   26  C   UNK N   1     -12.796  -6.847  -1.990  0.00  0.00     0.047 C 
BRANCH  25  27
HETATM   27  C   UNK N   1     -12.253  -7.218   0.424  0.00  0.00     0.150 C 
BRANCH  27  28
HETATM   28  C   UNK N   1     -12.927  -8.558   0.479  0.00  0.00     0.175 C 
HETATM   29  O   UNK N   1     -12.296  -9.565   0.207  0.00  0.00    -0.648 OA
HETATM   30  O   UNK N   1     -14.220  -8.655   0.842  0.00  0.00    -0.648 OA
ENDBRANCH  27  28
ENDBRANCH  25  27
BRANCH  25  31
HETATM   31  O   UNK N   1     -14.220  -6.023  -0.283  0.00  0.00    -0.389 OA
HETATM   32  H   UNK N   1     -14.546  -5.135  -0.067  0.00  0.00     0.210 HD
ENDBRANCH  25  31
ENDBRANCH  24  25
ENDBRANCH  22  24
ENDBRANCH  21  22
ENDBRANCH  20  21
ENDBRANCH  19  20
ENDBRANCH  17  19
ENDBRANCH  16  17
BRANCH  16  33
HETATM   33  O   UNK N   1     -11.105  -1.043   1.343  0.00  0.00    -0.350 OA
ATOM     34  HO  UNK N   1     -11.720  -1.584   1.825  1.00  0.00     0.219 HD
ENDBRANCH  16  33
ENDBRANCH  15  16
ENDBRANCH  14  15
ENDBRANCH  12  14
ENDBRANCH  11  12
BRANCH  11  35
HETATM   35  O   UNK N   1      -8.593  -2.265   0.156  0.00  0.00    -0.348 OA
ATOM     36  HO  UNK N   1      -9.525  -2.261  -0.026  1.00  0.00     0.219 HD
ENDBRANCH  11  35
ENDBRANCH  10  11
BRANCH  10  37
HETATM   37  O   UNK N   1      -6.036  -0.133   0.892  0.00  0.00    -0.387 OA
HETATM   38  H   UNK N   1      -5.274   0.042   1.466  0.00  0.00     0.210 HD
ENDBRANCH  10  37
ENDBRANCH   7  10
ENDBRANCH   6   7
ENDBRANCH   5   6
ENDBRANCH   2   5
BRANCH   2  39
HETATM   39  O   UNK N   1      -3.751  -2.680   1.756  0.00  0.00    -0.195 OA
BRANCH  39  40
HETATM   40  P   UNK N   1      -2.187  -1.945   2.006  0.00  0.00     0.401 P 
HETATM   41  O   UNK N   1      -1.160  -3.026   2.439  0.00  0.00    -0.631 OA
BRANCH  40  42
HETATM   42  O   UNK N   1      -2.311  -0.865   3.358  0.00  0.00    -0.307 OA
HETATM   43  H   UNK N   1      -1.823  -0.503   4.114  0.00  0.00     0.222 HD
ENDBRANCH  40  42
BRANCH  40  44
HETATM   44  O   UNK N   1      -1.583  -1.034   0.646  0.00  0.00    -0.294 OA
BRANCH  44  45
HETATM   45  C   UNK N   1      -0.917  -1.908  -0.229  0.00  0.00     0.215 C 
BRANCH  45  46
HETATM   46  C   UNK N   1       0.422  -1.309  -0.667  0.00  0.00     0.180 C 
HETATM   47  C   UNK N   1       1.603  -1.909   0.121  0.00  0.00     0.199 C 
HETATM   48  C   UNK N   1       2.495  -0.694   0.169  0.00  0.00     0.199 C 
HETATM   49  C   UNK N   1       1.436   0.355   0.469  0.00  0.00     0.262 C 
HETATM   50  O   UNK N   1       0.408   0.094  -0.455  0.00  0.00    -0.353 OA
BRANCH  47  51
HETATM   51  O   UNK N   1       2.269  -2.983  -0.516  0.00  0.00    -0.272 OA
BRANCH  51  52
HETATM   52  P   UNK N   1       1.232  -4.394  -0.625  0.00  0.00     0.422 P 
HETATM   53  O   UNK N   1       0.054  -4.254  -1.893  0.00  0.00    -0.617 OA
HETATM   54  O   UNK N   1       2.177  -5.832  -0.848  0.00  0.00    -0.617 OA
HETATM   55  O   UNK N   1       0.477  -4.579   0.718  0.00  0.00    -0.617 OA
ENDBRANCH  51  52
ENDBRANCH  47  51
BRANCH  48  56
HETATM   56  O   UNK N   1       3.476  -0.797   1.158  0.00  0.00    -0.388 OA
HETATM   57  H   UNK N   1       3.755  -1.422   1.845  0.00  0.00     0.210 HD
ENDBRANCH  48  56
BRANCH  49  58
HETATM   58  N   UNK N   1       1.857   1.757   0.368  0.00  0.00    -0.297 N 
HETATM   59  C   UNK N   1       0.993   2.804   0.452  0.00  0.00     0.188 A 
HETATM   60  N   UNK N   1       1.639   3.998   0.355  0.00  0.00    -0.346 N 
HETATM   61  C   UNK N   1       2.933   3.664   0.221  0.00  0.00     0.122 A 
ATOM     62  HN  UNK N   1       1.233   4.933   0.380  1.00  0.00     0.167 HD
HETATM   63  C   UNK N   1       4.046   4.479   0.113  0.00  0.00     0.131 A 
HETATM   64  C   UNK N   1       3.067   2.322   0.222  0.00  0.00     0.142 A 
HETATM   65  N   UNK N   1       5.269   3.880   0.013  0.00  0.00    -0.337 N 
HETATM   66  C   UNK N   1       5.387   2.510   0.017  0.00  0.00     0.183 A 
ATOM     67  HN  UNK N   1       6.107   4.457  -0.065  1.00  0.00     0.168 HD
HETATM   68  N   UNK N   1       4.275   1.717   0.123  0.00  0.00    -0.336 N 
ATOM     69  HN  UNK N   1       4.355   0.700   0.128  1.00  0.00     0.168 HD
BRANCH  63  70
HETATM   70  N   UNK N   1       3.929   5.884   0.120  0.00  0.00    -0.383 N 
HETATM   71  H   UNK N   1       4.738   6.445   0.125  0.00  0.00     0.157 HD
HETATM   72  H   UNK N   1       3.039   6.303   0.120  0.00  0.00     0.157 HD
ENDBRANCH  63  70
ENDBRANCH  49  58
ENDBRANCH  45  46
ENDBRANCH  44  45
ENDBRANCH  40  44
ENDBRANCH  39  40
ENDBRANCH   2  39
TORSDOF 34
