REMARK  16 active torsions:
REMARK  status: ('A' for Active; 'I' for Inactive)
REMARK    1  A    between atoms: C_6  and  C_4 
REMARK    2  A    between atoms: O_31  and  C_4 
REMARK    3  A    between atoms: C_5  and  O_20 
REMARK    4  A    between atoms: C_8  and  O_21 
REMARK    5  A    between atoms: C_9  and  O_22 
REMARK    6  A    between atoms: C_10  and  O_23 
REMARK    7  A    between atoms: C_11  and  O_24 
REMARK    8  A    between atoms: C_12  and  N_19 
REMARK    9  A    between atoms: C_13  and  O_33 
REMARK   10  A    between atoms: O_25  and  C_14 
REMARK   11  A    between atoms: P_35  and  O_26 
REMARK   12  A    between atoms: P_36  and  O_28 
REMARK   13  A    between atoms: P_35  and  O_31 
REMARK   14  A    between atoms: P_36  and  O_33 
REMARK   15  A    between atoms: P_35  and  O_34 
REMARK   16  A    between atoms: P_36  and  O_34 
ROOT
HETATM    1  O   UNK N   1       1.178   6.346   0.085  0.00  0.00    -0.294 OA
ENDROOT
BRANCH   1   2
HETATM    2  C   UNK N   1       0.449   6.530  -1.095  0.00  0.00     0.215 C 
BRANCH   2   3
HETATM    3  C   UNK N   1      -1.047   6.300  -0.884  0.00  0.00     0.180 C 
HETATM    4  C   UNK N   1      -1.814   7.425  -0.193  0.00  0.00     0.182 C 
HETATM    5  C   UNK N   1      -3.097   6.694   0.072  0.00  0.00     0.198 C 
HETATM    6  C   UNK N   1      -2.496   5.368   0.603  0.00  0.00     0.262 C 
HETATM    7  O   UNK N   1      -1.282   5.151  -0.113  0.00  0.00    -0.353 OA
BRANCH   4   8
HETATM    8  O   UNK N   1      -1.983   8.549  -1.007  0.00  0.00    -0.390 OA
HETATM    9  H   UNK N   1      -1.366   9.040  -1.572  0.00  0.00     0.210 HD
ENDBRANCH   4   8
BRANCH   5  10
HETATM   10  O   UNK N   1      -3.749   6.509  -1.157  0.00  0.00    -0.388 OA
HETATM   11  H   UNK N   1      -4.085   6.835  -2.007  0.00  0.00     0.210 HD
ENDBRANCH   5  10
BRANCH   6  12
HETATM   12  N   UNK N   1      -3.327   4.146   0.491  0.00  0.00    -0.293 N 
HETATM   13  C   UNK N   1      -2.646   2.965   0.597  0.00  0.00     0.101 A 
HETATM   14  C   UNK N   1      -3.275   1.746   0.398  0.00  0.00     0.065 A 
HETATM   15  C   UNK N   1      -4.625   1.745   0.096  0.00  0.00     0.102 A 
HETATM   16  N   UNK N   1      -5.228   0.643  -0.133  0.00  0.00    -0.385 N 
HETATM   17  N   UNK N   1      -5.307   2.916   0.048  0.00  0.00    -0.308 N 
HETATM   18  H   UNK N   1      -6.196   0.621  -0.310  0.00  0.00     0.157 HD
ATOM     19  HN  UNK N   1      -4.697  -0.228  -0.133  1.00  0.00     0.157 HD
HETATM   20  C   UNK N   1      -4.684   4.108   0.248  0.00  0.00     0.227 A 
ATOM     21  HN  UNK N   1      -6.309   2.903  -0.142  1.00  0.00     0.171 HD
BRANCH  20  22
HETATM   22  O   UNK N   1      -5.426   5.229   0.217  0.00  0.00    -0.332 OA
HETATM   23  H   UNK N   1      -5.007   6.067   0.195  0.00  0.00     0.221 HD
ENDBRANCH  20  22
ENDBRANCH   6  12
ENDBRANCH   2   3
ENDBRANCH   1   2
BRANCH   1  24
HETATM   24  P   UNK N   1       1.429   7.919   0.795  0.00  0.00     0.401 P 
HETATM   25  O   UNK N   1       0.696   8.974  -0.084  0.00  0.00    -0.631 OA
BRANCH  24  26
HETATM   26  O   UNK N   1       0.685   7.943   2.364  0.00  0.00    -0.307 OA
HETATM   27  H   UNK N   1       0.489   8.310   3.240  0.00  0.00     0.222 HD
ENDBRANCH  24  26
BRANCH  24  28
HETATM   28  O   UNK N   1       3.151   8.322   0.821  0.00  0.00    -0.195 OA
BRANCH  28  29
HETATM   29  P   UNK N   1       3.566   9.722   1.843  0.00  0.00     0.404 P 
HETATM   30  O   UNK N   1       2.291  10.148   2.620  0.00  0.00    -0.631 OA
BRANCH  29  31
HETATM   31  O   UNK N   1       3.301   8.398   2.938  0.00  0.00    -0.307 OA
HETATM   32  H   UNK N   1       2.587   8.156   3.548  0.00  0.00     0.222 HD
ENDBRANCH  29  31
BRANCH  29  33
HETATM   33  O   UNK N   1       2.578  10.473   0.600  0.00  0.00    -0.263 OA
BRANCH  33  34
HETATM   34  C   UNK N   1       3.258  10.923  -0.570  0.00  0.00     0.302 C 
HETATM   35  C   UNK N   1       3.828  12.350  -0.469  0.00  0.00     0.205 C 
HETATM   36  C   UNK N   1       5.145  12.337   0.299  0.00  0.00     0.182 C 
HETATM   37  C   UNK N   1       6.095  11.339  -0.379  0.00  0.00     0.173 C 
HETATM   38  C   UNK N   1       5.419   9.971  -0.466  0.00  0.00     0.205 C 
HETATM   39  O   UNK N   1       4.174   9.995  -1.147  0.00  0.00    -0.355 OA
BRANCH  35  40
HETATM   40  O   UNK N   1       2.901  13.206   0.133  0.00  0.00    -0.388 OA
HETATM   41  H   UNK N   1       3.095  14.060   0.550  0.00  0.00     0.210 HD
ENDBRANCH  35  40
BRANCH  36  42
HETATM   42  O   UNK N   1       5.713  13.612   0.314  0.00  0.00    -0.390 OA
HETATM   43  H   UNK N   1       6.678  13.714   0.324  0.00  0.00     0.210 HD
ENDBRANCH  36  42
BRANCH  37  44
HETATM   44  O   UNK N   1       6.434  11.768  -1.665  0.00  0.00    -0.391 OA
HETATM   45  H   UNK N   1       6.810  11.713  -2.557  0.00  0.00     0.210 HD
ENDBRANCH  37  44
ENDBRANCH  33  34
ENDBRANCH  29  33
ENDBRANCH  28  29
ENDBRANCH  24  28
ENDBRANCH   1  24
TORSDOF 16
