REMARK  4 active torsions:
REMARK  status: ('A' for Active; 'I' for Inactive)
REMARK    1  A    between atoms: O_1  and  P_2 
REMARK    2  A    between atoms: P_2  and  O_3 
REMARK    3  A    between atoms: P_2  and  C_5 
REMARK    4  A    between atoms: C_5  and  C_6 
ROOT
HETATM    1  P   UNK N   1       2.448  -1.242  -0.655  0.00  0.00     0.242 P 
HETATM    2  O   UNK N   1       2.592  -2.489   0.257  0.00  0.00    -0.653 OA
ENDROOT
BRANCH   1   3
HETATM    3  O   UNK N   1       4.123  -1.140  -0.211  0.00  0.00    -0.329 OA
HETATM    4  H   UNK N   1       4.640  -1.922   0.037  0.00  0.00     0.220 HD
ENDBRANCH   1   3
BRANCH   1   5
HETATM    5  O   UNK N   1       2.457   0.082   0.470  0.00  0.00    -0.329 OA
HETATM    6  H   UNK N   1       3.099   0.448   1.098  0.00  0.00     0.220 HD
ENDBRANCH   1   5
BRANCH   1   7
HETATM    7  C   UNK N   1       0.896  -1.397   0.373  0.00  0.00     0.194 C 
BRANCH   7   8
HETATM    8  C   UNK N   1      -0.228  -0.585  -0.192  0.00  0.00     0.242 C 
HETATM    9  O   UNK N   1      -0.250   0.623  -0.042  0.00  0.00    -0.306 OA
ENDBRANCH   7   8
ENDBRANCH   1   7
TORSDOF 4
