REMARK  5 active torsions:
REMARK  status: ('A' for Active; 'I' for Inactive)
REMARK    1  A    between atoms: C_3  and  C_1 
REMARK    2  A    between atoms: C_4  and  C_1 
REMARK    3  A    between atoms: C_5  and  C_4 
REMARK    4  A    between atoms: C_4  and  N_6 
REMARK    5  A    between atoms: O_8  and  C_5 
ROOT
HETATM    1  C   UNK N   1      -0.480   2.174   0.252  0.00  0.00     0.175 C 
ENDROOT
BRANCH   1   2
HETATM    2  C   UNK N   1       0.307   1.371  -0.782  0.00  0.00     0.069 C 
BRANCH   2   3
HETATM    3  C   UNK N   1       0.858   0.074  -0.195  0.00  0.00     0.147 A 
HETATM    4  C   UNK N   1       0.587  -1.142  -0.989  0.00  0.00     0.200 A 
HETATM    5  O   UNK N   1      -0.172  -0.819   0.152  0.00  0.00    -0.381 OA
ENDBRANCH   2   3
ENDBRANCH   1   2
BRANCH   1   6
HETATM    6  C   UNK N   1      -0.636   3.601  -0.201  0.00  0.00     0.163 C 
HETATM    7  O   UNK N   1      -1.746   4.088  -0.363  0.00  0.00    -0.648 OA
BRANCH   6   8
HETATM    8  O   UNK N   1       0.457   4.361  -0.401  0.00  0.00    -0.775 OA
HETATM    9  H   UNK N   1       1.296   3.967  -0.540  0.00  0.00     0.167 HD
ENDBRANCH   6   8
ENDBRANCH   1   6
BRANCH   1  10
HETATM   10  N   UNK N   1      -1.782   1.555   0.457  0.00  0.00    -0.417 N 
HETATM   11  H   UNK N   1      -2.614   2.128   0.600  0.00  0.00     0.150 HD
HETATM   12  H   UNK N   1      -1.864   0.539   0.457  0.00  0.00     0.150 HD
ENDBRANCH   1  10
TORSDOF 5
