REMARK  19 active torsions:
REMARK  status: ('A' for Active; 'I' for Inactive)
REMARK    1  A    between atoms: C_3  and  C_2 
REMARK    2  A    between atoms: C_4  and  C_3 
REMARK    3  A    between atoms: C_5  and  C_4 
REMARK    4  A    between atoms: C_6  and  C_5 
REMARK    5  A    between atoms: C_7  and  C_6 
REMARK    6  A    between atoms: C_13  and  C_7 
REMARK    7  A    between atoms: C_11  and  C_8 
REMARK    8  A    between atoms: O_21  and  C_8 
REMARK    9  A    between atoms: C_12  and  C_9 
REMARK   10  A    between atoms: O_29  and  C_9 
REMARK   11  A    between atoms: C_20  and  C_10 
REMARK   12  A    between atoms: O_22  and  C_10 
REMARK   13  A    between atoms: O_29  and  C_13 
REMARK   14  A    between atoms: C_14  and  O_24 
REMARK   15  A    between atoms: C_15  and  O_25 
REMARK   16  A    between atoms: C_16  and  O_26 
REMARK   17  A    between atoms: C_18  and  O_28 
REMARK   18  A    between atoms: C_19  and  O_32 
REMARK   19  A    between atoms: C_20  and  O_32 
ROOT
HETATM    1  C   UNK N   1      17.407   7.947   0.114  0.00  0.00     0.179 C 
HETATM    2  C   UNK N   1      17.518   9.341  -0.536  0.00  0.00     0.180 C 
HETATM    3  C   UNK N   1      16.334  10.203  -0.069  0.00  0.00     0.183 C 
HETATM    4  C   UNK N   1      15.006   9.476  -0.365  0.00  0.00     0.204 C 
HETATM    5  C   UNK N   1      15.068   8.078   0.314  0.00  0.00     0.295 C 
HETATM    6  O   UNK N   1      14.832   9.333  -1.745  0.00  0.00    -0.388 OA
HETATM    7  O   UNK N   1      16.170   7.370  -0.222  0.00  0.00    -0.348 OA
HETATM    8  H   UNK N   1      14.686   9.388  -2.702  0.00  0.00     0.210 HD
ENDROOT
BRANCH   3   9
HETATM    9  O   UNK N   1      16.362  11.449  -0.701  0.00  0.00    -0.390 OA
HETATM   10  H   UNK N   1      17.121  11.865  -1.139  0.00  0.00     0.210 HD
ENDBRANCH   3   9
BRANCH   5  11
HETATM   11  O   UNK N   1      13.983   7.212   0.065  0.00  0.00    -0.318 OA
BRANCH  11  12
HETATM   12  C   UNK N   1      12.647   7.631   0.250  0.00  0.00     0.217 C 
HETATM   13  C   UNK N   1      11.811   6.357   0.018  0.00  0.00     0.214 C 
HETATM   14  C   UNK N   1      10.533   6.970  -0.439  0.00  0.00     0.183 C 
HETATM   15  C   UNK N   1      11.094   8.035  -1.372  0.00  0.00     0.181 C 
HETATM   16  O   UNK N   1      12.247   8.570  -0.744  0.00  0.00    -0.341 OA
BRANCH  12  17
HETATM   17  C   UNK N   1      12.331   8.157   1.670  0.00  0.00     0.235 C 
BRANCH  17  18
HETATM   18  O   UNK N   1      12.830   9.439   1.895  0.00  0.00    -0.395 OA
HETATM   19  H   UNK N   1      13.776   9.584   2.052  0.00  0.00     0.209 HD
ENDBRANCH  17  18
ENDBRANCH  12  17
BRANCH  13  20
HETATM   20  O   UNK N   1      12.359   5.598  -1.030  0.00  0.00    -0.387 OA
HETATM   21  H   UNK N   1      12.094   5.009  -1.753  0.00  0.00     0.210 HD
ENDBRANCH  13  20
BRANCH  14  22
HETATM   22  O   UNK N   1       9.688   6.063  -1.085  0.00  0.00    -0.390 OA
HETATM   23  H   UNK N   1       8.849   6.256  -1.532  0.00  0.00     0.210 HD
ENDBRANCH  14  22
BRANCH  15  24
HETATM   24  C   UNK N   1      10.069   9.112  -1.715  0.00  0.00     0.213 C 
BRANCH  24  25
HETATM   25  O   UNK N   1      10.110  10.167  -0.823  0.00  0.00    -0.319 OA
BRANCH  25  26
HETATM   26  C   UNK N   1       9.231  10.314   0.193  0.00  0.00     0.258 C 
HETATM   27  O   UNK N   1       9.202  11.377   0.804  0.00  0.00    -0.265 OA
BRANCH  26  28
HETATM   28  C   UNK N   1       8.310   9.195   0.583  0.00  0.00     0.111 C 
BRANCH  28  29
HETATM   29  C   UNK N   1       7.207   9.602   1.539  0.00  0.00     0.010 C 
BRANCH  29  30
HETATM   30  C   UNK N   1       5.895   9.098   0.973  0.00  0.00     0.000 C 
BRANCH  30  31
HETATM   31  C   UNK N   1       5.592   9.821  -0.332  0.00  0.00     0.000 C 
BRANCH  31  32
HETATM   32  C   UNK N   1       4.508   9.110  -1.119  0.00  0.00    -0.000 C 
BRANCH  32  33
HETATM   33  C   UNK N   1       3.148   9.346  -0.490  0.00  0.00    -0.005 C 
HETATM   34  C   UNK N   1       2.769   8.158   0.370  0.00  0.00     0.005 C 
ENDBRANCH  32  33
ENDBRANCH  31  32
ENDBRANCH  30  31
ENDBRANCH  29  30
ENDBRANCH  28  29
ENDBRANCH  26  28
ENDBRANCH  25  26
ENDBRANCH  24  25
ENDBRANCH  15  24
ENDBRANCH  11  12
ENDBRANCH   5  11
BRANCH   2  35
HETATM   35  O   UNK N   1      18.725   9.952  -0.182  0.00  0.00    -0.390 OA
HETATM   36  H   UNK N   1      19.510   9.439   0.064  0.00  0.00     0.210 HD
ENDBRANCH   2  35
BRANCH   1  37
HETATM   37  C   UNK N   1      18.472   6.991  -0.419  0.00  0.00     0.198 C 
BRANCH  37  38
HETATM   38  O   UNK N   1      19.739   7.326   0.054  0.00  0.00    -0.398 OA
HETATM   39  H   UNK N   1      20.382   6.678   0.383  0.00  0.00     0.209 HD
ENDBRANCH  37  38
ENDBRANCH   1  37
TORSDOF 19
