REMARK  7 active torsions:
REMARK  status: ('A' for Active; 'I' for Inactive)
REMARK    1  A    between atoms: C_2  and  C_1 
REMARK    2  A    between atoms: C_3  and  C_2 
REMARK    3  A    between atoms: C_2  and  O_10 
REMARK    4  A    between atoms: O_6  and  C_3 
REMARK    5  A    between atoms: P_11  and  O_7 
REMARK    6  A    between atoms: P_11  and  O_8 
REMARK    7  A    between atoms: P_11  and  O_10 
ROOT
HETATM    1  C   UNK N   1       1.428  -0.699  -0.436  0.00  0.00     0.259 C 
ENDROOT
BRANCH   1   2
HETATM    2  C   UNK N   1       2.428  -0.009   0.497  0.00  0.00     0.265 C 
HETATM    3  F   UNK N   1       3.587  -0.758   0.615  0.00  0.00    -0.252 F 
ENDBRANCH   1   2
BRANCH   1   4
HETATM    4  C   UNK N   1       1.010  -2.065   0.080  0.00  0.00     0.173 C 
HETATM    5  O   UNK N   1      -0.168  -2.345   0.238  0.00  0.00    -0.648 OA
BRANCH   4   6
HETATM    6  O   UNK N   1       1.946  -2.997   0.338  0.00  0.00    -0.774 OA
HETATM    7  H   UNK N   1       1.710  -3.886   0.517  0.00  0.00     0.167 HD
ENDBRANCH   4   6
ENDBRANCH   1   4
BRANCH   1   8
HETATM    8  O   UNK N   1       0.341   0.155  -0.769  0.00  0.00    -0.278 OA
BRANCH   8   9
HETATM    9  P   UNK N   1      -0.599   0.596   0.648  0.00  0.00     0.391 P 
HETATM   10  O   UNK N   1      -1.655  -0.044  -0.293  0.00  0.00    -0.632 OA
BRANCH   9  11
HETATM   11  O   UNK N   1      -1.846   1.799   0.535  0.00  0.00    -0.307 OA
HETATM   12  H   UNK N   1      -1.612   2.738   0.472  0.00  0.00     0.222 HD
ENDBRANCH   9  11
BRANCH   9  13
HETATM   13  O   UNK N   1       0.030   2.048  -0.068  0.00  0.00    -0.307 OA
HETATM   14  H   UNK N   1       0.908   2.149  -0.468  0.00  0.00     0.222 HD
ENDBRANCH   9  13
ENDBRANCH   8   9
ENDBRANCH   1   8
TORSDOF 7
