REMARK  7 active torsions:
REMARK  status: ('A' for Active; 'I' for Inactive)
REMARK    1  A    between atoms: C_2  and  C_3 
REMARK    2  A    between atoms: C_3  and  O_4 
REMARK    3  A    between atoms: C_3  and  C_9 
REMARK    4  A    between atoms: O_4  and  P_5 
REMARK    5  A    between atoms: P_5  and  O_6 
REMARK    6  A    between atoms: P_5  and  O_7 
REMARK    7  A    between atoms: C_9  and  O_10 
ROOT
HETATM    1  C   UNK N   1       1.677   1.180  -0.179  0.00  0.00     0.230 C 
ENDROOT
BRANCH   1   2
HETATM    2  C   UNK N   1       1.265   2.582   0.267  0.00  0.00     0.039 C 
HETATM    3  C   UNK N   1       1.903   3.653  -0.601  0.00  0.00     0.008 C 
ENDBRANCH   1   2
BRANCH   1   4
HETATM    4  O   UNK N   1       0.923   0.235   0.534  0.00  0.00    -0.281 OA
BRANCH   4   5
HETATM    5  P   UNK N   1       0.411  -0.950  -0.637  0.00  0.00     0.391 P 
HETATM    6  O   UNK N   1       1.328  -1.777   0.305  0.00  0.00    -0.632 OA
BRANCH   5   7
HETATM    7  O   UNK N   1      -0.587  -2.288  -0.161  0.00  0.00    -0.307 OA
HETATM    8  H   UNK N   1      -1.514  -2.179   0.105  0.00  0.00     0.222 HD
ENDBRANCH   5   7
BRANCH   5   9
HETATM    9  O   UNK N   1      -0.978  -0.386   0.240  0.00  0.00    -0.307 OA
HETATM   10  H   UNK N   1      -1.093   0.443   0.729  0.00  0.00     0.222 HD
ENDBRANCH   5   9
ENDBRANCH   4   5
ENDBRANCH   1   4
BRANCH   1  11
HETATM   11  C   UNK N   1       3.151   0.907   0.012  0.00  0.00     0.170 C 
HETATM   12  O   UNK N   1       3.619  -0.160  -0.351  0.00  0.00    -0.648 OA
BRANCH  11  13
HETATM   13  O   UNK N   1       3.960   1.827   0.571  0.00  0.00    -0.774 OA
HETATM   14  H   UNK N   1       4.796   1.659   0.960  0.00  0.00     0.167 HD
ENDBRANCH  11  13
ENDBRANCH   1  11
TORSDOF 7
