REMARK  5 active torsions:
REMARK  status: ('A' for Active; 'I' for Inactive)
REMARK    1  A    between atoms: C_6  and  C_5 
REMARK    2  A    between atoms: O_13  and  C_5 
REMARK    3  A    between atoms: C_7  and  O_14 
REMARK    4  A    between atoms: C_8  and  O_15 
REMARK    5  A    between atoms: C_9  and  N_12 
ROOT
HETATM    1  C   UNK N   1       4.779   0.969  -0.382  0.00  0.00     0.179 C 
HETATM    2  C   UNK N   1       3.849   1.969   0.297  0.00  0.00     0.182 C 
HETATM    3  C   UNK N   1       2.537   1.302   0.030  0.00  0.00     0.198 C 
HETATM    4  C   UNK N   1       2.942  -0.132   0.404  0.00  0.00     0.263 C 
HETATM    5  O   UNK N   1       4.218  -0.321  -0.192  0.00  0.00    -0.353 OA
ENDROOT
BRANCH   4   6
HETATM    6  N   UNK N   1       2.034  -1.275   0.080  0.00  0.00    -0.280 N 
HETATM    7  C   UNK N   1       2.607  -2.469   0.410  0.00  0.00     0.098 A 
HETATM    8  C   UNK N   1       2.146  -3.768   0.307  0.00  0.00     0.019 A 
HETATM    9  C   UNK N   1       0.940  -4.227  -0.154  0.00  0.00     0.019 A 
HETATM   10  C   UNK N   1      -0.097  -3.468  -0.627  0.00  0.00     0.093 A 
HETATM   11  N   UNK N   1      -0.118  -2.125  -0.736  0.00  0.00    -0.319 N 
HETATM   12  C   UNK N   1       0.753  -1.105  -0.460  0.00  0.00     0.328 A 
HETATM   13  H   UNK N   1      -0.970  -1.796  -1.105  0.00  0.00     0.170 HD
HETATM   14  O   UNK N   1       0.348   0.016  -0.697  0.00  0.00    -0.246 OA
ENDBRANCH   4   6
BRANCH   3  15
HETATM   15  O   UNK N   1       1.520   1.821   0.838  0.00  0.00    -0.388 OA
HETATM   16  H   UNK N   1       1.480   2.612   1.398  0.00  0.00     0.210 HD
ENDBRANCH   3  15
BRANCH   2  17
HETATM   17  O   UNK N   1       3.934   3.254  -0.244  0.00  0.00    -0.390 OA
HETATM   18  H   UNK N   1       4.736   3.649  -0.619  0.00  0.00     0.210 HD
ENDBRANCH   2  17
BRANCH   1  19
HETATM   19  C   UNK N   1       6.189   1.018   0.203  0.00  0.00     0.198 C 
BRANCH  19  20
HETATM   20  O   UNK N   1       6.752   2.285   0.049  0.00  0.00    -0.398 OA
HETATM   21  H   UNK N   1       7.711   2.387  -0.058  0.00  0.00     0.209 HD
ENDBRANCH  19  20
ENDBRANCH   1  19
TORSDOF 5
