REMARK  9 active torsions:
REMARK  status: ('A' for Active; 'I' for Inactive)
REMARK       I    between atoms: N_1  and  C_2 
REMARK    1  A    between atoms: C_2  and  C_4 
REMARK    2  A    between atoms: C_10  and  N_8 
REMARK    3  A    between atoms: C_12  and  C_13 
REMARK    4  A    between atoms: C_13  and  O_14 
REMARK    5  A    between atoms: O_14  and  P_15 
REMARK    6  A    between atoms: P_15  and  O_16 
REMARK    7  A    between atoms: P_15  and  O_17 
REMARK    8  A    between atoms: C_19  and  O_20 
REMARK    9  A    between atoms: C_21  and  O_22 
ROOT
HETATM    1  C   UNK N   1       2.434   2.148   0.654  0.00  0.00     0.259 C 
HETATM    2  O   UNK N   1       3.266   1.283  -0.084  0.00  0.00    -0.353 OA
HETATM    3  C   UNK N   1       2.614   0.060   0.091  0.00  0.00     0.180 C 
HETATM    4  C   UNK N   1       1.177   0.343  -0.216  0.00  0.00     0.182 C 
HETATM    5  C   UNK N   1       0.985   1.584   0.603  0.00  0.00     0.198 C 
ENDROOT
BRANCH   1   6
HETATM    6  N   UNK N   1       2.670   3.569   0.340  0.00  0.00    -0.336 N 
HETATM    7  C   UNK N   1       3.959   4.020   0.300  0.00  0.00     0.093 A 
HETATM    8  C   UNK N   1       4.238   5.366   0.048  0.00  0.00     0.018 A 
HETATM    9  C   UNK N   1       3.184   6.260  -0.136  0.00  0.00     0.020 A 
HETATM   10  C   UNK N   1       1.866   5.800  -0.074  0.00  0.00     0.047 A 
HETATM   11  C   UNK N   1       1.639   4.443   0.165  0.00  0.00     0.110 A 
BRANCH  10  12
HETATM   12  C   UNK N   1       0.725   6.724  -0.233  0.00  0.00     0.250 C 
HETATM   13  N   UNK N   1       0.932   8.039  -0.442  0.00  0.00    -0.366 N 
HETATM   14  H   UNK N   1       1.840   8.388  -0.594  0.00  0.00     0.159 HD
HETATM   15  H   UNK N   1       0.167   8.658  -0.442  0.00  0.00     0.159 HD
HETATM   16  O   UNK N   1      -0.421   6.300  -0.164  0.00  0.00    -0.268 OA
ENDBRANCH  10  12
ENDBRANCH   1   6
BRANCH   5  17
HETATM   17  O   UNK N   1       0.035   2.385  -0.031  0.00  0.00    -0.388 OA
HETATM   18  H   UNK N   1       0.187   3.235  -0.472  0.00  0.00     0.210 HD
ENDBRANCH   5  17
BRANCH   3  19
HETATM   19  C   UNK N   1       3.206  -1.045  -0.756  0.00  0.00     0.215 C 
BRANCH  19  20
HETATM   20  O   UNK N   1       3.727  -2.004   0.117  0.00  0.00    -0.294 OA
BRANCH  20  21
HETATM   21  P   UNK N   1       5.001  -2.801  -0.752  0.00  0.00     0.390 P 
HETATM   22  O   UNK N   1       5.793  -2.026   0.337  0.00  0.00    -0.632 OA
BRANCH  21  23
HETATM   23  O   UNK N   1       5.905  -4.063   0.024  0.00  0.00    -0.307 OA
HETATM   24  H   UNK N   1       5.546  -4.853   0.458  0.00  0.00     0.222 HD
ENDBRANCH  21  23
BRANCH  21  25
HETATM   25  O   UNK N   1       3.941  -3.956  -0.005  0.00  0.00    -0.307 OA
HETATM   26  H   UNK N   1       3.086  -3.767   0.412  0.00  0.00     0.222 HD
ENDBRANCH  21  25
ENDBRANCH  20  21
ENDBRANCH  19  20
ENDBRANCH   3  19
BRANCH   4  27
HETATM   27  O   UNK N   1       0.336  -0.683   0.214  0.00  0.00    -0.390 OA
HETATM   28  H   UNK N   1      -0.575  -0.532   0.512  0.00  0.00     0.210 HD
ENDBRANCH   4  27
TORSDOF 9
