REMARK  18 active torsions:
REMARK  status: ('A' for Active; 'I' for Inactive)
REMARK    1  A    between atoms: C_2  and  C_1 
REMARK    2  A    between atoms: C_3  and  C_1 
REMARK    3  A    between atoms: N_18  and  C_2 
REMARK    4  A    between atoms: O_30  and  C_3 
REMARK    5  A    between atoms: C_6  and  C_4 
REMARK    6  A    between atoms: N_19  and  C_4 
REMARK    7  A    between atoms: C_7  and  C_5 
REMARK    8  A    between atoms: O_20  and  C_5 
REMARK    9  A    between atoms: C_9  and  C_6 
REMARK   10  A    between atoms: C_6  and  O_21 
REMARK   11  A    between atoms: C_9  and  C_7 
REMARK   12  A    between atoms: C_7  and  O_22 
REMARK   13  A    between atoms: C_9  and  O_23 
REMARK   14  A    between atoms: O_24  and  C_11 
REMARK   15  A    between atoms: O_25  and  C_12 
REMARK   16  A    between atoms: P_31  and  O_27 
REMARK   17  A    between atoms: P_31  and  O_28 
REMARK   18  A    between atoms: P_31  and  O_30 
ROOT
HETATM    1  C   UNK N   1      -1.216   0.133   0.348  0.00  0.00     0.135 A 
HETATM    2  C   UNK N   1       0.030   0.018  -0.184  0.00  0.00     0.146 A 
HETATM    3  C   UNK N   1      -1.719   1.393   0.647  0.00  0.00     0.174 A 
HETATM    4  C   UNK N   1       0.327   2.332  -0.158  0.00  0.00     0.224 A 
HETATM    5  C   UNK N   1      -0.766  -1.953   0.078  0.00  0.00     0.331 A 
HETATM    6  N   UNK N   1       0.818   1.088  -0.440  0.00  0.00    -0.306 N 
ATOM      7  HN  UNK N   1       1.753   0.969  -0.832  1.00  0.00     0.171 HD
HETATM    8  N   UNK N   1      -0.929   2.478   0.382  0.00  0.00    -0.301 N 
ATOM      9  HN  UNK N   1      -1.279   3.413   0.589  1.00  0.00     0.171 HD
HETATM   10  N   UNK N   1      -1.741  -1.101   0.516  0.00  0.00    -0.292 N 
HETATM   11  N   UNK N   1       0.339  -1.276  -0.350  0.00  0.00    -0.281 N 
HETATM   12  O   UNK N   1      -0.861  -3.168   0.096  0.00  0.00    -0.246 OA
ENDROOT
BRANCH  11  13
HETATM   13  C   UNK N   1       1.617  -1.815  -0.785  0.00  0.00     0.170 C 
BRANCH  13  14
HETATM   14  C   UNK N   1       2.342  -2.389   0.433  0.00  0.00     0.168 C 
BRANCH  14  15
HETATM   15  C   UNK N   1       3.745  -2.915   0.099  0.00  0.00     0.179 C 
BRANCH  15  16
HETATM   16  C   UNK N   1       4.728  -1.807  -0.336  0.00  0.00     0.173 C 
BRANCH  16  17
HETATM   17  C   UNK N   1       6.099  -2.410  -0.615  0.00  0.00     0.198 C 
BRANCH  17  18
HETATM   18  O   UNK N   1       7.010  -1.409  -0.952  0.00  0.00    -0.398 OA
HETATM   19  H   UNK N   1       7.930  -1.609  -1.186  0.00  0.00     0.209 HD
ENDBRANCH  17  18
ENDBRANCH  16  17
BRANCH  16  20
HETATM   20  O   UNK N   1       4.274  -1.165  -1.490  0.00  0.00    -0.391 OA
HETATM   21  H   UNK N   1       4.502  -0.669  -2.292  0.00  0.00     0.210 HD
ENDBRANCH  16  20
ENDBRANCH  15  16
BRANCH  15  22
HETATM   22  O   UNK N   1       4.252  -3.550   1.238  0.00  0.00    -0.390 OA
HETATM   23  H   UNK N   1       4.047  -4.075   2.027  0.00  0.00     0.210 HD
ENDBRANCH  15  22
ENDBRANCH  14  15
BRANCH  14  24
HETATM   24  O   UNK N   1       2.425  -1.416   1.435  0.00  0.00    -0.391 OA
HETATM   25  H   UNK N   1       3.038  -1.129   2.130  0.00  0.00     0.210 HD
ENDBRANCH  14  24
ENDBRANCH  13  14
ENDBRANCH  11  13
BRANCH  10  26
HETATM   26  C   UNK N   1      -3.030  -1.468   1.089  0.00  0.00     0.136 C 
BRANCH  26  27
HETATM   27  C   UNK N   1      -3.908  -2.175   0.059  0.00  0.00     0.047 C 
BRANCH  27  28
HETATM   28  C   UNK N   1      -4.307  -1.233  -1.074  0.00  0.00     0.182 C 
BRANCH  28  29
HETATM   29  O   UNK N   1      -4.630   0.029  -0.558  0.00  0.00    -0.297 OA
BRANCH  29  30
HETATM   30  P   UNK N   1      -6.363   0.172  -0.614  0.00  0.00     0.390 P 
HETATM   31  O   UNK N   1      -6.188  -0.375   0.829  0.00  0.00    -0.632 OA
BRANCH  30  32
HETATM   32  O   UNK N   1      -7.188   1.367   0.335  0.00  0.00    -0.307 OA
HETATM   33  H   UNK N   1      -6.840   2.101   0.866  0.00  0.00     0.222 HD
ENDBRANCH  30  32
BRANCH  30  34
HETATM   34  O   UNK N   1      -5.587   1.723  -0.710  0.00  0.00    -0.307 OA
HETATM   35  H   UNK N   1      -4.620   1.781  -0.763  0.00  0.00     0.222 HD
ENDBRANCH  30  34
ENDBRANCH  29  30
ENDBRANCH  28  29
ENDBRANCH  27  28
ENDBRANCH  26  27
ENDBRANCH  10  26
BRANCH   3  36
HETATM   36  O   UNK N   1      -2.933   1.555   1.197  0.00  0.00    -0.344 OA
HETATM   37  H   UNK N   1      -3.259   2.345   1.581  0.00  0.00     0.219 HD
ENDBRANCH   3  36
BRANCH   4  38
HETATM   38  O   UNK N   1       1.080   3.417  -0.402  0.00  0.00    -0.332 OA
HETATM   39  H   UNK N   1       1.998   3.340  -0.573  0.00  0.00     0.221 HD
ENDBRANCH   4  38
TORSDOF 18
