REMARK  6 active torsions:
REMARK  status: ('A' for Active; 'I' for Inactive)
REMARK    1  A    between atoms: C_6  and  C_3 
REMARK    2  A    between atoms: O_18  and  C_3 
REMARK    3  A    between atoms: C_7  and  O_19 
REMARK    4  A    between atoms: C_8  and  O_20 
REMARK    5  A    between atoms: N_12  and  C_9 
REMARK    6  A    between atoms: C_11  and  N_17 
ROOT
HETATM    1  C   UNK N   1       1.074   3.422  -0.391  0.00  0.00     0.036 A 
HETATM    2  C   UNK N   1       0.327   2.246  -0.251  0.00  0.00     0.096 A 
HETATM    3  C   UNK N   1       4.648   1.829   0.783  0.00  0.00     0.183 A 
HETATM    4  C   UNK N   1       2.360   3.078  -0.020  0.00  0.00     0.053 A 
HETATM    5  C   UNK N   1       3.539   3.806   0.049  0.00  0.00     0.113 A 
HETATM    6  C   UNK N   1       2.356   1.768   0.323  0.00  0.00     0.124 A 
HETATM    7  N   UNK N   1       4.673   3.160   0.450  0.00  0.00    -0.338 N 
ATOM      8  HN  UNK N   1       5.552   3.674   0.504  1.00  0.00     0.168 HD
HETATM    9  N   UNK N   1       3.478   1.122   0.727  0.00  0.00    -0.338 N 
ATOM     10  HN  UNK N   1       3.450   0.135   0.983  1.00  0.00     0.168 HD
HETATM   11  N   UNK N   1       1.129   1.244   0.193  0.00  0.00    -0.312 N 
ENDROOT
BRANCH  11  12
HETATM   12  C   UNK N   1       0.708  -0.128   0.501  0.00  0.00     0.261 C 
HETATM   13  C   UNK N   1       1.512  -1.189  -0.240  0.00  0.00     0.198 C 
HETATM   14  C   UNK N   1       0.545  -2.367  -0.252  0.00  0.00     0.182 C 
HETATM   15  C   UNK N   1      -0.756  -1.751   0.280  0.00  0.00     0.179 C 
HETATM   16  O   UNK N   1      -0.634  -0.356   0.129  0.00  0.00    -0.353 OA
BRANCH  13  17
HETATM   17  O   UNK N   1       1.722  -0.767  -1.558  0.00  0.00    -0.388 OA
HETATM   18  H   UNK N   1       2.049  -0.746  -2.472  0.00  0.00     0.210 HD
ENDBRANCH  13  17
BRANCH  14  19
HETATM   19  O   UNK N   1       0.967  -3.405   0.582  0.00  0.00    -0.390 OA
HETATM   20  H   UNK N   1       0.488  -4.019   1.161  0.00  0.00     0.210 HD
ENDBRANCH  14  19
BRANCH  15  21
HETATM   21  C   UNK N   1      -1.993  -2.290  -0.427  0.00  0.00     0.198 C 
BRANCH  21  22
HETATM   22  O   UNK N   1      -2.149  -3.651  -0.155  0.00  0.00    -0.398 OA
HETATM   23  H   UNK N   1      -3.022  -4.029   0.034  0.00  0.00     0.209 HD
ENDBRANCH  21  22
ENDBRANCH  15  21
ENDBRANCH  11  12
BRANCH   5  24
HETATM   24  N   UNK N   1       3.574   5.176  -0.282  0.00  0.00    -0.385 N 
HETATM   25  H   UNK N   1       4.415   5.633  -0.513  0.00  0.00     0.157 HD
HETATM   26  H   UNK N   1       2.734   5.690  -0.282  0.00  0.00     0.157 HD
ENDBRANCH   5  24
TORSDOF 6
