REMARK  15 active torsions:
REMARK  status: ('A' for Active; 'I' for Inactive)
REMARK    1  A    between atoms: C_12  and  C_2 
REMARK    2  A    between atoms: C_5  and  C_3 
REMARK    3  A    between atoms: N_15  and  C_3 
REMARK    4  A    between atoms: O_26  and  C_4 
REMARK    5  A    between atoms: O_26  and  C_5 
REMARK    6  A    between atoms: C_11  and  C_7 
REMARK    7  A    between atoms: N_18  and  C_7 
REMARK    8  A    between atoms: C_10  and  C_8 
REMARK    9  A    between atoms: O_27  and  C_8 
REMARK   10  A    between atoms: C_14  and  C_12 
REMARK   11  A    between atoms: O_20  and  C_13 
REMARK   12  A    between atoms: O_22  and  C_14 
REMARK   13  A    between atoms: P_28  and  O_23 
REMARK   14  A    between atoms: P_28  and  O_24 
REMARK   15  A    between atoms: P_28  and  O_27 
ROOT
HETATM    1  C   UNK N   1       1.173  -3.666   0.004  0.00  0.00     0.071 C 
HETATM    2  C   UNK N   1       1.911  -0.246  -1.268  0.00  0.00     0.098 A 
HETATM    3  C   UNK N   1       1.079  -2.193  -0.202  0.00  0.00     0.039 A 
HETATM    4  C   UNK N   1       0.976   0.555  -0.612  0.00  0.00    -0.008 A 
HETATM    5  C   UNK N   1       0.050  -0.047   0.264  0.00  0.00     0.004 A 
HETATM    6  C   UNK N   1       0.108  -1.437   0.470  0.00  0.00     0.096 A 
HETATM    7  N   UNK N   1       1.946  -1.586  -1.052  0.00  0.00    -0.367 N 
ATOM      8  HN  UNK N   1       2.642  -2.150  -1.541  1.00  0.00     0.165 HD
ENDROOT
BRANCH   5   9
HETATM    9  C   UNK N   1      -0.985   0.772   0.975  0.00  0.00     0.162 C 
BRANCH   9  10
HETATM   10  N   UNK N   1      -2.299   0.435   0.487  0.00  0.00    -0.380 N 
HETATM   11  C   UNK N   1      -3.185   1.251   0.004  0.00  0.00     0.104 C 
ATOM     12  HN  UNK N   1      -2.560  -0.550   0.526  1.00  0.00     0.160 HD
BRANCH  11  13
HETATM   13  C   UNK N   1      -3.031   2.753  -0.096  0.00  0.00     0.060 C 
HETATM   14  C   UNK N   1      -2.061   3.519   0.434  0.00  0.00     0.137 C 
BRANCH  14  15
HETATM   15  O   UNK N   1      -2.105   4.858   0.245  0.00  0.00    -0.361 OA
BRANCH  15  16
HETATM   16  C   UNK N   1      -1.161   5.691   0.798  0.00  0.00     0.193 C 
BRANCH  16  17
HETATM   17  C   UNK N   1      -0.587   6.610  -0.263  0.00  0.00     0.137 C 
BRANCH  17  18
HETATM   18  N   UNK N   1       0.585   6.003  -0.866  0.00  0.00    -0.428 N 
HETATM   19  H   UNK N   1       0.627   5.076  -1.289  0.00  0.00     0.149 HD
HETATM   20  H   UNK N   1       1.444   6.553  -0.866  0.00  0.00     0.149 HD
ENDBRANCH  17  18
ENDBRANCH  16  17
ENDBRANCH  15  16
ENDBRANCH  14  15
ENDBRANCH  11  13
BRANCH  11  21
HETATM   21  C   UNK N   1      -4.449   0.659  -0.509  0.00  0.00     0.193 C 
HETATM   22  O   UNK N   1      -4.621  -0.551  -0.462  0.00  0.00    -0.645 OA
BRANCH  21  23
HETATM   23  O   UNK N   1      -5.415   1.440  -1.028  0.00  0.00    -0.772 OA
HETATM   24  H   UNK N   1      -5.280   2.294  -1.389  0.00  0.00     0.167 HD
ENDBRANCH  21  23
ENDBRANCH  11  21
ENDBRANCH   9  10
ENDBRANCH   5   9
BRANCH   4  25
HETATM   25  C   UNK N   1       1.005   2.033  -0.866  0.00  0.00     0.221 C 
BRANCH  25  26
HETATM   26  O   UNK N   1       1.388   2.720   0.292  0.00  0.00    -0.292 OA
BRANCH  26  27
HETATM   27  P   UNK N   1       3.119   2.943   0.199  0.00  0.00     0.391 P 
HETATM   28  O   UNK N   1       3.388   4.397  -0.272  0.00  0.00    -0.632 OA
BRANCH  27  29
HETATM   29  O   UNK N   1       3.904   1.888  -0.938  0.00  0.00    -0.307 OA
HETATM   30  H   UNK N   1       3.613   1.214  -1.572  0.00  0.00     0.222 HD
ENDBRANCH  27  29
BRANCH  27  31
HETATM   31  O   UNK N   1       3.845   2.780   1.766  0.00  0.00    -0.307 OA
HETATM   32  H   UNK N   1       3.969   2.384   2.643  0.00  0.00     0.222 HD
ENDBRANCH  27  31
ENDBRANCH  26  27
ENDBRANCH  25  26
ENDBRANCH   4  25
BRANCH   6  33
HETATM   33  O   UNK N   1      -0.756  -2.038   1.310  0.00  0.00    -0.358 OA
HETATM   34  H   UNK N   1      -1.419  -1.727   1.895  0.00  0.00     0.217 HD
ENDBRANCH   6  33
TORSDOF 15
