REMARK  1 active torsions:
REMARK  status: ('A' for Active; 'I' for Inactive)
REMARK    1  A    between atoms: C_5  and  N_6 
ROOT
HETATM    1  C   UNK N   1       3.280   1.571   0.000  0.00  0.00     0.049 C 
HETATM    2  C   UNK N   1       1.933   0.931  -0.000  0.00  0.00    -0.056 A 
HETATM    3  C   UNK N   1       1.850  -0.466  -0.000  0.00  0.00     0.009 A 
HETATM    4  C   UNK N   1       0.603  -1.097  -0.000  0.00  0.00     0.029 A 
HETATM    5  C   UNK N   1      -0.566  -0.333  -0.000  0.00  0.00     0.026 A 
HETATM    6  C   UNK N   1      -0.492   1.061  -0.000  0.00  0.00     0.036 A 
HETATM    7  C   UNK N   1       0.751   1.701   0.000  0.00  0.00    -0.054 A 
HETATM    8  C   UNK N   1       0.790   3.191   0.000  0.00  0.00     0.049 C 
ENDROOT
BRANCH   5   9
HETATM    9  N   UNK N   1      -1.823  -0.969   0.000  0.00  0.00    -0.399 N 
HETATM   10  H   UNK N   1      -2.647  -0.431   0.000  0.00  0.00     0.156 HD
HETATM   11  H   UNK N   1      -1.877  -1.952   0.000  0.00  0.00     0.156 HD
ENDBRANCH   5   9
TORSDOF 1
