REMARK  5 active torsions:
REMARK  status: ('A' for Active; 'I' for Inactive)
REMARK    1  A    between atoms: C_12  and  C_7 
REMARK    2  A    between atoms: O_22  and  C_10 
REMARK    3  A    between atoms: C_13  and  C_11 
REMARK    4  A    between atoms: N_14  and  C_12 
REMARK    5  A    between atoms: N_16  and  C_12 
ROOT
HETATM    1  C   UNK N   1       5.601   1.137   0.020  0.00  0.00     0.017 A 
HETATM    2  C   UNK N   1       4.443   1.949   0.024  0.00  0.00     0.033 A 
HETATM    3  C   UNK N   1       4.219  -0.881  -0.021  0.00  0.00     0.047 A 
HETATM    4  C   UNK N   1       5.491  -0.283  -0.002  0.00  0.00     0.009 A 
HETATM    5  C   UNK N   1       3.210   1.303   0.006  0.00  0.00     0.060 A 
HETATM    6  C   UNK N   1       3.112  -0.051  -0.016  0.00  0.00     0.061 A 
HETATM    7  C   UNK N   1       1.152   0.757  -0.009  0.00  0.00     0.136 A 
HETATM    8  N   UNK N   1       1.975   1.841   0.010  0.00  0.00    -0.339 N 
ATOM      9  HN  UNK N   1       1.718   2.828   0.023  1.00  0.00     0.167 HD
HETATM   10  N   UNK N   1       1.831  -0.417  -0.025  0.00  0.00    -0.339 N 
HETATM   11  H   UNK N   1       1.463  -1.329  -0.041  0.00  0.00     0.167 HD
ENDROOT
BRANCH   7  12
HETATM   12  C   UNK N   1      -0.324   0.829  -0.003  0.00  0.00     0.110 A 
HETATM   13  C   UNK N   1      -1.115  -0.342  -0.005  0.00  0.00     0.096 A 
HETATM   14  C   UNK N   1      -2.504  -0.231   0.004  0.00  0.00     0.040 A 
HETATM   15  C   UNK N   1      -3.100   1.027   0.014  0.00  0.00     0.020 A 
HETATM   16  C   UNK N   1      -2.293   2.166   0.016  0.00  0.00     0.088 A 
HETATM   17  N   UNK N   1      -0.937   2.047   0.008  0.00  0.00    -0.361 N 
ATOM     18  HN  UNK N   1      -0.365   2.891   0.010  1.00  0.00     0.165 HD
BRANCH  13  19
HETATM   19  O   UNK N   1      -0.557  -1.566  -0.013  0.00  0.00    -0.358 OA
HETATM   20  H   UNK N   1      -1.101  -2.329  -0.019  0.00  0.00     0.217 HD
ENDBRANCH  13  19
ENDBRANCH   7  12
BRANCH   4  21
HETATM   21  C   UNK N   1       6.690  -1.148  -0.003  0.00  0.00     0.102 C 
BRANCH  21  22
HETATM   22  N   UNK N   1       7.864  -0.635   0.021  0.00  0.00    -0.385 N 
HETATM   23  H   UNK N   1       8.656  -1.220   0.040  0.00  0.00     0.157 HD
ATOM     24  HN  UNK N   1       7.978   0.378   0.021  1.00  0.00     0.157 HD
ENDBRANCH  21  22
BRANCH  21  25
HETATM   25  N   UNK N   1       6.546  -2.556  -0.025  0.00  0.00    -0.385 N 
HETATM   26  H   UNK N   1       5.648  -2.959  -0.041  0.00  0.00     0.157 HD
HETATM   27  H   UNK N   1       7.345  -3.132  -0.025  0.00  0.00     0.157 HD
ENDBRANCH  21  25
ENDBRANCH   4  21
TORSDOF 5
