REMARK  21 active torsions:
REMARK  status: ('A' for Active; 'I' for Inactive)
REMARK    1  A    between atoms: C_3  and  C_2 
REMARK    2  A    between atoms: C_4  and  C_3 
REMARK    3  A    between atoms: C_5  and  C_4 
REMARK    4  A    between atoms: C_6  and  C_5 
REMARK    5  A    between atoms: C_7  and  C_6 
REMARK    6  A    between atoms: C_10  and  C_7 
REMARK    7  A    between atoms: C_9  and  C_8 
REMARK    8  A    between atoms: C_13  and  C_8 
REMARK    9  A    between atoms: C_15  and  C_9 
REMARK   10  A    between atoms: S_30  and  C_10 
REMARK   11  A    between atoms: C_16  and  C_11 
REMARK   12  A    between atoms: N_20  and  C_11 
REMARK   13  A    between atoms: C_14  and  C_12 
REMARK   14  A    between atoms: S_30  and  C_12 
REMARK   15  A    between atoms: C_18  and  C_13 
REMARK   16  A    between atoms: C_13  and  N_19 
REMARK   17  A    between atoms: C_17  and  C_14 
REMARK   18  A    between atoms: C_14  and  N_22 
REMARK   19  A    between atoms: O_26  and  C_16 
REMARK   20  A    between atoms: O_27  and  C_17 
REMARK   21  A    between atoms: O_29  and  C_18 
ROOT
HETATM    1  C   UNK N   1       3.661   3.694  -0.003  0.00  0.00     0.111 C 
HETATM    2  N   UNK N   1       2.786   3.109   0.749  0.00  0.00    -0.362 N 
ATOM      3  HN  UNK N   1       2.992   3.031   1.745  1.00  0.00     0.162 HD
HETATM    4  O   UNK N   1       3.465   3.823  -1.329  0.00  0.00    -0.350 OA
HETATM    5  H   UNK N   1       3.474   3.986  -2.252  0.00  0.00     0.219 HD
ENDROOT
BRANCH   1   6
HETATM    6  C   UNK N   1       4.888   4.280   0.615  0.00  0.00     0.086 C 
BRANCH   6   7
HETATM    7  C   UNK N   1       5.880   3.216   1.076  0.00  0.00     0.043 C 
BRANCH   7   8
HETATM    8  C   UNK N   1       6.552   2.513  -0.105  0.00  0.00     0.173 C 
BRANCH   8   9
HETATM    9  C   UNK N   1       7.645   1.613   0.387  0.00  0.00     0.163 C 
HETATM   10  O   UNK N   1       8.596   2.077   0.997  0.00  0.00    -0.648 OA
BRANCH   9  11
HETATM   11  O   UNK N   1       7.593   0.291   0.140  0.00  0.00    -0.775 OA
HETATM   12  H   UNK N   1       6.777  -0.138  -0.032  0.00  0.00     0.167 HD
ENDBRANCH   9  11
ENDBRANCH   8   9
BRANCH   8  13
HETATM   13  N   UNK N   1       7.119   3.493  -1.019  0.00  0.00    -0.418 N 
HETATM   14  H   UNK N   1       7.913   3.492  -1.659  0.00  0.00     0.150 HD
HETATM   15  H   UNK N   1       6.610   4.377  -1.019  0.00  0.00     0.150 HD
ENDBRANCH   8  13
ENDBRANCH   7   8
ENDBRANCH   6   7
ENDBRANCH   1   6
BRANCH   2  16
HETATM   16  C   UNK N   1       1.535   2.557   0.274  0.00  0.00     0.167 C 
BRANCH  16  17
HETATM   17  C   UNK N   1       0.421   3.347   0.973  0.00  0.00     0.107 C 
BRANCH  17  18
HETATM   18  S   UNK N   1      -1.271   2.816   0.569  0.00  0.00    -0.167 SA
BRANCH  18  19
HETATM   19  C   UNK N   1      -1.375   3.814  -0.947  0.00  0.00     0.074 C 
BRANCH  19  20
HETATM   20  C   UNK N   1      -1.340   2.894  -2.159  0.00  0.00     0.010 C 
BRANCH  20  21
HETATM   21  C   UNK N   1      -2.731   2.413  -2.568  0.00  0.00     0.001 C 
BRANCH  21  22
HETATM   22  C   UNK N   1      -3.383   1.544  -1.502  0.00  0.00     0.000 C 
BRANCH  22  23
HETATM   23  C   UNK N   1      -4.364   2.383  -0.707  0.00  0.00     0.000 C 
BRANCH  23  24
HETATM   24  C   UNK N   1      -4.822   1.624   0.523  0.00  0.00    -0.000 C 
BRANCH  24  25
HETATM   25  C   UNK N   1      -5.965   2.362   1.196  0.00  0.00    -0.005 C 
HETATM   26  C   UNK N   1      -7.240   2.197   0.389  0.00  0.00     0.005 C 
ENDBRANCH  24  25
ENDBRANCH  23  24
ENDBRANCH  22  23
ENDBRANCH  21  22
ENDBRANCH  20  21
ENDBRANCH  19  20
ENDBRANCH  18  19
ENDBRANCH  17  18
ENDBRANCH  16  17
BRANCH  16  27
HETATM   27  C   UNK N   1       1.515   1.079   0.589  0.00  0.00     0.136 C 
HETATM   28  N   UNK N   1       2.434   0.322   0.080  0.00  0.00    -0.363 N 
ATOM     29  HN  UNK N   1       3.129   0.734  -0.541  1.00  0.00     0.161 HD
BRANCH  28  30
HETATM   30  C   UNK N   1       2.499  -1.090   0.367  0.00  0.00     0.231 C 
BRANCH  30  31
HETATM   31  C   UNK N   1       3.922  -1.546   0.338  0.00  0.00     0.158 C 
HETATM   32  O   UNK N   1       4.744  -1.045   1.087  0.00  0.00    -0.649 OA
BRANCH  31  33
HETATM   33  O   UNK N   1       4.293  -2.524  -0.509  0.00  0.00    -0.775 OA
HETATM   34  H   UNK N   1       3.832  -3.088  -1.099  0.00  0.00     0.167 HD
ENDBRANCH  31  33
ENDBRANCH  30  31
ENDBRANCH  28  30
BRANCH  27  35
HETATM   35  O   UNK N   1       0.573   0.555   1.396  0.00  0.00    -0.348 OA
HETATM   36  H   UNK N   1      -0.071   0.940   1.958  0.00  0.00     0.219 HD
ENDBRANCH  27  35
ENDBRANCH  16  27
ENDBRANCH   2  16
TORSDOF 21
