REMARK  3 active torsions:
REMARK  status: ('A' for Active; 'I' for Inactive)
REMARK    1  A    between atoms: O_1  and  C_2 
REMARK    2  A    between atoms: C_2  and  C_4 
REMARK    3  A    between atoms: C_10  and  O_11 
ROOT
HETATM    1  C   UNK N   1       1.114   0.303  -0.000  0.00  0.00     0.165 A 
HETATM    2  N   UNK N   1       0.799  -1.026  -0.000  0.00  0.00    -0.303 N 
ATOM      3  HN  UNK N   1       1.423  -1.833  -0.000  1.00  0.00     0.176 HD
HETATM    4  S   UNK N   1      -0.834  -0.991   0.000  0.00  0.00     0.069 SA
HETATM    5  N   UNK N   1      -1.242   0.590   0.000  0.00  0.00    -0.291 N 
ATOM      6  HN  UNK N   1      -2.170   1.015   0.000  1.00  0.00     0.177 HD
HETATM    7  C   UNK N   1      -0.022   1.195   0.000  0.00  0.00     0.182 A 
ENDROOT
BRANCH   1   8
HETATM    8  C   UNK N   1       2.510   0.765  -0.000  0.00  0.00     0.198 C 
HETATM    9  O   UNK N   1       3.422  -0.044  -0.000  0.00  0.00    -0.645 OA
BRANCH   8  10
HETATM   10  O   UNK N   1       2.791   2.083  -0.000  0.00  0.00    -0.771 OA
HETATM   11  H   UNK N   1       3.682   2.373  -0.000  0.00  0.00     0.167 HD
ENDBRANCH   8  10
ENDBRANCH   1   8
BRANCH   7  12
HETATM   12  O   UNK N   1       0.098   2.534   0.000  0.00  0.00    -0.344 OA
HETATM   13  H   UNK N   1       0.948   2.929   0.000  0.00  0.00     0.219 HD
ENDBRANCH   7  12
TORSDOF 3
