REMARK  10 active torsions:
REMARK  status: ('A' for Active; 'I' for Inactive)
REMARK    1  A    between atoms: C_2  and  O_3 
REMARK    2  A    between atoms: C_8  and  C_9 
REMARK    3  A    between atoms: C_9  and  C_10 
REMARK    4  A    between atoms: C_10  and  C_11 
REMARK    5  A    between atoms: C_11  and  C_12 
REMARK    6  A    between atoms: C_12  and  C_13 
REMARK    7  A    between atoms: C_13  and  C_14 
REMARK    8  A    between atoms: C_14  and  C_15 
REMARK    9  A    between atoms: C_15  and  C_16 
REMARK   10  A    between atoms: C_16  and  C_17 
ROOT
HETATM    1  N   UNK N   1      -6.090   0.911  -0.125  0.00  0.00    -0.288 N 
HETATM    2  C   UNK N   1      -3.818   1.155   0.149  0.00  0.00     0.146 A 
HETATM    3  C   UNK N   1      -5.102   1.825  -0.052  0.00  0.00     0.282 A 
HETATM    4  O   UNK N   1      -5.281   3.027  -0.137  0.00  0.00    -0.265 OA
HETATM    5  C   UNK N   1      -5.513  -0.298   0.017  0.00  0.00     0.257 A 
HETATM    6  O   UNK N   1      -6.132  -1.349   0.001  0.00  0.00    -0.267 OA
HETATM    7  C   UNK N   1      -4.061  -0.153   0.193  0.00  0.00     0.049 A 
HETATM    8  H   UNK N   1      -7.049   1.092  -0.256  0.00  0.00     0.172 HD
ENDROOT
BRANCH   7   9
HETATM    9  C   UNK N   1      -3.052  -1.237   0.400  0.00  0.00     0.047 C 
BRANCH   9  10
HETATM   10  C   UNK N   1      -2.028  -1.220  -0.718  0.00  0.00     0.005 C 
BRANCH  10  11
HETATM   11  C   UNK N   1      -0.676  -1.634  -0.179  0.00  0.00     0.000 C 
BRANCH  11  12
HETATM   12  C   UNK N   1       0.212  -0.417  -0.002  0.00  0.00     0.000 C 
BRANCH  12  13
HETATM   13  C   UNK N   1       1.640  -0.901   0.121  0.00  0.00     0.000 C 
BRANCH  13  14
HETATM   14  C   UNK N   1       2.626   0.247   0.068  0.00  0.00     0.000 C 
BRANCH  14  15
HETATM   15  C   UNK N   1       4.011  -0.360  -0.017  0.00  0.00     0.000 C 
BRANCH  15  16
HETATM   16  C   UNK N   1       5.085   0.703   0.018  0.00  0.00    -0.000 C 
BRANCH  16  17
HETATM   17  C   UNK N   1       6.433   0.011  -0.031  0.00  0.00    -0.005 C 
HETATM   18  C   UNK N   1       7.545   1.037   0.020  0.00  0.00     0.005 C 
ENDBRANCH  16  17
ENDBRANCH  15  16
ENDBRANCH  14  15
ENDBRANCH  13  14
ENDBRANCH  12  13
ENDBRANCH  11  12
ENDBRANCH  10  11
ENDBRANCH   9  10
ENDBRANCH   7   9
BRANCH   2  19
HETATM   19  O   UNK N   1      -2.612   1.744   0.272  0.00  0.00    -0.355 OA
HETATM   20  H   UNK N   1      -1.838   1.221   0.357  0.00  0.00     0.218 HD
ENDBRANCH   2  19
TORSDOF 10
