REMARK  5 active torsions:
REMARK  status: ('A' for Active; 'I' for Inactive)
REMARK    1  A    between atoms: C_1  and  C_7 
REMARK    2  A    between atoms: C_3  and  O_11 
REMARK    3  A    between atoms: C_4  and  O_12 
REMARK    4  A    between atoms: C_7  and  C_8 
REMARK    5  A    between atoms: C_8  and  O_10 
ROOT
HETATM    1  C   UNK N   1       0.662   0.040  -0.000  0.00  0.00    -0.045 A 
HETATM    2  C   UNK N   1       0.668  -1.356  -0.000  0.00  0.00     0.047 A 
HETATM    3  C   UNK N   1      -0.530  -2.071  -0.000  0.00  0.00     0.099 A 
HETATM    4  C   UNK N   1      -1.752  -1.387  -0.000  0.00  0.00     0.098 A 
HETATM    5  C   UNK N   1      -1.769   0.009  -0.000  0.00  0.00     0.040 A 
HETATM    6  C   UNK N   1      -0.566   0.721  -0.000  0.00  0.00     0.010 A 
ENDROOT
BRANCH   1   7
HETATM    7  C   UNK N   1       1.994   0.740  -0.000  0.00  0.00     0.148 C 
BRANCH   7   8
HETATM    8  C   UNK N   1       2.030   2.245   0.000  0.00  0.00     0.143 C 
HETATM    9  O   UNK N   1       3.112   2.805  -0.000  0.00  0.00    -0.650 OA
BRANCH   8  10
HETATM   10  O   UNK N   1       0.905   2.985   0.000  0.00  0.00    -0.776 OA
HETATM   11  H   UNK N   1       0.960   3.920   0.000  0.00  0.00     0.167 HD
ENDBRANCH   8  10
ENDBRANCH   7   8
ENDBRANCH   1   7
BRANCH   3  12
HETATM   12  O   UNK N   1      -0.499  -3.414  -0.000  0.00  0.00    -0.358 OA
HETATM   13  H   UNK N   1      -1.300  -3.900   0.000  0.00  0.00     0.217 HD
ENDBRANCH   3  12
BRANCH   4  14
HETATM   14  O   UNK N   1      -2.911  -2.068   0.000  0.00  0.00    -0.358 OA
HETATM   15  H   UNK N   1      -3.726  -1.606   0.000  0.00  0.00     0.217 HD
ENDBRANCH   4  14
TORSDOF 5
