REMARK  8 active torsions:
REMARK  status: ('A' for Active; 'I' for Inactive)
REMARK    1  A    between atoms: C_1  and  O_2 
REMARK    2  A    between atoms: C_1  and  C_3 
REMARK    3  A    between atoms: P_7  and  O_2 
REMARK    4  A    between atoms: P_7  and  O_9 
REMARK    5  A    between atoms: P_7  and  O_10 
REMARK    6  A    between atoms: O_10  and  P_11 
REMARK    7  A    between atoms: P_11  and  O_13 
REMARK    8  A    between atoms: P_11  and  O_14 
ROOT
HETATM    1  P   UNK N   1       0.680  -1.183  -0.378  0.00  0.00     0.402 P 
HETATM    2  O   UNK N   1       0.634  -2.325   0.670  0.00  0.00    -0.631 OA
ENDROOT
BRANCH   1   3
HETATM    3  O   UNK N   1      -0.834  -0.874   0.418  0.00  0.00    -0.293 OA
BRANCH   3   4
HETATM    4  C   UNK N   1      -1.767  -0.680  -0.606  0.00  0.00     0.208 C 
BRANCH   4   5
HETATM    5  C   UNK N   1      -2.836   0.263  -0.141  0.00  0.00     0.002 C 
HETATM    6  C   UNK N   1      -2.665   1.588  -0.047  0.00  0.00    -0.089 C 
HETATM    7  C   UNK N   1      -3.789   2.430   0.447  0.00  0.00     0.042 C 
HETATM    8  C   UNK N   1      -1.383   2.251  -0.435  0.00  0.00     0.042 C 
ENDBRANCH   4   5
ENDBRANCH   3   4
ENDBRANCH   1   3
BRANCH   1   9
HETATM    9  O   UNK N   1       0.722   0.346   0.443  0.00  0.00    -0.307 OA
HETATM   10  H   UNK N   1       1.473   0.752   0.902  0.00  0.00     0.222 HD
ENDBRANCH   1   9
BRANCH   1  11
HETATM   11  O   UNK N   1       2.198  -0.957   0.447  0.00  0.00    -0.195 OA
BRANCH  11  12
HETATM   12  P   UNK N   1       3.419  -1.032  -0.794  0.00  0.00     0.399 P 
HETATM   13  O   UNK N   1       4.835  -0.873  -0.184  0.00  0.00    -0.631 OA
BRANCH  12  14
HETATM   14  O   UNK N   1       3.586  -2.409   0.249  0.00  0.00    -0.307 OA
HETATM   15  H   UNK N   1       2.966  -2.875   0.832  0.00  0.00     0.222 HD
ENDBRANCH  12  14
BRANCH  12  16
HETATM   16  O   UNK N   1       3.413   0.569  -0.123  0.00  0.00    -0.307 OA
HETATM   17  H   UNK N   1       4.186   1.020   0.253  0.00  0.00     0.222 HD
ENDBRANCH  12  16
ENDBRANCH  11  12
ENDBRANCH   1  11
TORSDOF 8
