REMARK  7 active torsions:
REMARK  status: ('A' for Active; 'I' for Inactive)
REMARK       I    between atoms: C_1  and  N_21 
REMARK    1  A    between atoms: C_2  and  N_24 
REMARK    2  A    between atoms: C_5  and  N_27 
REMARK    3  A    between atoms: C_8  and  C_9 
REMARK    4  A    between atoms: C_8  and  N_27 
REMARK    5  A    between atoms: C_11  and  O_28 
REMARK    6  A    between atoms: C_12  and  O_29 
REMARK    7  A    between atoms: C_13  and  O_30 
ROOT
HETATM    1  C   UNK N   1      -6.626  -2.210  -0.228  0.00  0.00     0.679 A 
HETATM    2  C   UNK N   1      -5.718  -0.022  -0.210  0.00  0.00     0.128 A 
HETATM    3  C   UNK N   1      -4.429  -0.556  -0.103  0.00  0.00     0.055 A 
HETATM    4  C   UNK N   1      -3.294   0.253  -0.005  0.00  0.00     0.050 A 
HETATM    5  C   UNK N   1      -2.028  -0.329   0.164  0.00  0.00     0.046 A 
HETATM    6  C   UNK N   1      -1.934  -1.730   0.200  0.00  0.00     0.119 A 
HETATM    7  C   UNK N   1      -4.282  -1.953  -0.062  0.00  0.00     0.135 A 
HETATM    8  N   UNK N   1      -5.381  -2.749  -0.130  0.00  0.00    -0.176 N 
ATOM      9  HN  UNK N   1      -5.271  -3.762  -0.106  1.00  0.00     0.186 HD
HETATM   10  N   UNK N   1      -7.753  -3.053  -0.273  0.00  0.00    -0.234 N 
HETATM   11  N   UNK N   1      -6.787  -0.860  -0.266  0.00  0.00    -0.176 N 
ATOM     12  HN  UNK N   1      -7.727  -0.469  -0.338  1.00  0.00     0.186 HD
HETATM   13  N   UNK N   1      -3.047  -2.504   0.071  0.00  0.00    -0.349 N 
ATOM     14  HN  UNK N   1      -2.951  -3.519   0.076  1.00  0.00     0.167 HD
HETATM   15  H   UNK N   1      -8.657  -2.665  -0.305  0.00  0.00     0.174 HD
HETATM   16  H   UNK N   1      -7.637  -4.030  -0.273  0.00  0.00     0.174 HD
ENDROOT
BRANCH   5  17
HETATM   17  N   UNK N   1      -0.880   0.488   0.402  0.00  0.00    -0.380 N 
HETATM   18  C   UNK N   1      -1.005   1.927   0.337  0.00  0.00     0.150 C 
BRANCH  17  19
HETATM   19  C   UNK N   1       0.259  -0.084   1.098  0.00  0.00     0.161 C 
BRANCH  19  20
HETATM   20  C   UNK N   1       1.603   0.267   0.536  0.00  0.00    -0.035 A 
HETATM   21  C   UNK N   1       1.983   1.597   0.366  0.00  0.00     0.048 A 
HETATM   22  C   UNK N   1       3.289   1.937  -0.024  0.00  0.00     0.104 A 
HETATM   23  C   UNK N   1       4.247   0.903  -0.218  0.00  0.00     0.135 A 
HETATM   24  C   UNK N   1       3.859  -0.438  -0.039  0.00  0.00     0.104 A 
HETATM   25  C   UNK N   1       2.540  -0.744   0.338  0.00  0.00     0.048 A 
BRANCH  22  26
HETATM   26  O   UNK N   1       3.630   3.237  -0.202  0.00  0.00    -0.353 OA
HETATM   27  C   UNK N   1       2.747   4.283  -0.047  0.00  0.00     0.210 C 
ENDBRANCH  22  26
BRANCH  23  28
HETATM   28  O   UNK N   1       5.542   1.147  -0.563  0.00  0.00    -0.351 OA
HETATM   29  C   UNK N   1       6.121   2.389  -0.684  0.00  0.00     0.210 C 
ENDBRANCH  23  28
BRANCH  24  30
HETATM   30  O   UNK N   1       4.781  -1.418  -0.213  0.00  0.00    -0.353 OA
HETATM   31  C   UNK N   1       4.515  -2.754  -0.011  0.00  0.00     0.210 C 
ENDBRANCH  24  30
ENDBRANCH  19  20
ENDBRANCH  17  19
ENDBRANCH   5  17
BRANCH   2  32
HETATM   32  N   UNK N   1      -5.923   1.374  -0.234  0.00  0.00    -0.384 N 
HETATM   33  H   UNK N   1      -5.151   1.985  -0.251  0.00  0.00     0.157 HD
HETATM   34  H   UNK N   1      -6.838   1.737  -0.234  0.00  0.00     0.157 HD
ENDBRANCH   2  32
TORSDOF 7
