REMARK  3 active torsions:
REMARK  status: ('A' for Active; 'I' for Inactive)
REMARK       I    between atoms: N_6  and  C_7 
REMARK    1  A    between atoms: C_7  and  C_9 
REMARK    2  A    between atoms: C_9  and  O_11 
REMARK    3  A    between atoms: O_11  and  C_12 
ROOT
HETATM    1  C   UNK N   1      -1.197  -1.163  -0.080  0.00  0.00     0.126 C 
HETATM    2  C   UNK N   1      -2.538  -1.807   0.268  0.00  0.00     0.020 C 
HETATM    3  C   UNK N   1      -3.680  -1.043  -0.356  0.00  0.00     0.003 C 
HETATM    4  C   UNK N   1      -3.685   0.323   0.281  0.00  0.00     0.020 C 
HETATM    5  C   UNK N   1      -2.417   1.082  -0.087  0.00  0.00     0.126 C 
HETATM    6  N   UNK N   1      -1.182   0.298  -0.021  0.00  0.00    -0.344 N 
HETATM    7  C   UNK N   1       0.006   0.987  -0.010  0.00  0.00     0.319 C 
HETATM    8  O   UNK N   1      -0.015   2.210  -0.005  0.00  0.00    -0.262 OA
ENDROOT
BRANCH   7   9
HETATM    9  C   UNK N   1       1.349   0.334  -0.001  0.00  0.00     0.351 C 
HETATM   10  O   UNK N   1       1.473  -0.883   0.005  0.00  0.00    -0.254 OA
BRANCH   9  11
HETATM   11  O   UNK N   1       2.444   1.134   0.001  0.00  0.00    -0.314 OA
BRANCH  11  12
HETATM   12  C   UNK N   1       3.733   0.661   0.003  0.00  0.00     0.175 C 
HETATM   13  C   UNK N   1       4.685   1.840   0.002  0.00  0.00     0.034 C 
ENDBRANCH  11  12
ENDBRANCH   9  11
ENDBRANCH   7   9
TORSDOF 3
