REMARK  5 active torsions:
REMARK  status: ('A' for Active; 'I' for Inactive)
REMARK    1  A    between atoms: S_1  and  Hg_2 
REMARK    2  A    between atoms: S_1  and  C_5 
REMARK    3  A    between atoms: Hg_2  and  C_3 
REMARK    4  A    between atoms: C_10  and  C_11 
REMARK    5  A    between atoms: C_11  and  O_12 
ROOT
HETATM    1  C   UNK N   1       0.180  -1.572   0.007  0.00  0.00     0.014 A 
HETATM    2  C   UNK N   1      -0.218  -2.916   0.004  0.00  0.00     0.019 A 
HETATM    3  C   UNK N   1      -1.561  -3.280  -0.004  0.00  0.00     0.001 A 
HETATM    4  C   UNK N   1      -2.543  -2.299  -0.008  0.00  0.00     0.001 A 
HETATM    5  C   UNK N   1      -2.180  -0.955  -0.006  0.00  0.00     0.020 A 
HETATM    6  C   UNK N   1      -0.831  -0.558   0.001  0.00  0.00     0.054 A 
ENDROOT
BRANCH   1   7
HETATM    7  S   UNK N   1       1.980  -1.347   0.029  0.00  0.00    -0.140 SA
BRANCH   7   8
HETATM    8 Hg   UNK N   1       2.867   0.890  -0.058  0.00  0.00     0.112 Hg
BRANCH   8   9
HETATM    9  C   UNK N   1       3.659   2.824   0.010  0.00  0.00    -0.010 C 
HETATM   10  C   UNK N   1       2.538   3.839   0.009  0.00  0.00     0.002 C 
ENDBRANCH   8   9
ENDBRANCH   7   8
ENDBRANCH   1   7
BRANCH   6  11
HETATM   11  C   UNK N   1      -0.583   0.903   0.005  0.00  0.00     0.177 C 
HETATM   12  O   UNK N   1       0.545   1.351   0.010  0.00  0.00    -0.646 OA
BRANCH  11  13
HETATM   13  O   UNK N   1      -1.624   1.760   0.001  0.00  0.00    -0.773 OA
HETATM   14  H   UNK N   1      -1.470   2.684  -0.002  0.00  0.00     0.167 HD
ENDBRANCH  11  13
ENDBRANCH   6  11
TORSDOF 5
