REMARK  8 active torsions:
REMARK  status: ('A' for Active; 'I' for Inactive)
REMARK    1  A    between atoms: B_1  and  O_2 
REMARK    2  A    between atoms: B_1  and  O_3 
REMARK    3  A    between atoms: B_1  and  C_4 
REMARK    4  A    between atoms: C_6  and  N_7 
REMARK    5  A    between atoms: N_7  and  S_11 
REMARK    6  A    between atoms: S_11  and  C_18 
REMARK    7  A    between atoms: C_16  and  S_19 
REMARK    8  A    between atoms: S_19  and  C_22 
ROOT
HETATM    1  S   UNK N   1      -0.571   2.331   0.014  0.00  0.00     0.269 S 
HETATM    2  O   UNK N   1      -1.947   2.383  -0.667  0.00  0.00    -0.200 OA
HETATM    3  O   UNK N   1      -0.994   2.655   1.453  0.00  0.00    -0.200 OA
ENDROOT
BRANCH   1   4
HETATM    4  N   UNK N   1       0.185   3.808  -0.564  0.00  0.00    -0.280 N 
HETATM    5  H   UNK N   1      -0.378   4.440  -1.066  0.00  0.00     0.179 HD
BRANCH   4   6
HETATM    6  C   UNK N   1       1.532   4.158  -0.364  0.00  0.00     0.042 A 
HETATM    7  C   UNK N   1       2.518   3.195  -0.094  0.00  0.00     0.030 A 
HETATM    8  C   UNK N   1       3.852   3.581   0.071  0.00  0.00    -0.030 A 
HETATM    9  C   UNK N   1       4.202   4.935  -0.008  0.00  0.00     0.001 A 
HETATM   10  C   UNK N   1       3.223   5.897  -0.268  0.00  0.00     0.002 A 
HETATM   11  C   UNK N   1       1.900   5.507  -0.459  0.00  0.00     0.030 A 
BRANCH   8  12
HETATM   12  B   UNK N   1       4.967   2.511   0.310  0.00  0.00     0.529 B 
BRANCH  12  13
HETATM   13  O   UNK N   1       6.361   2.924   0.447  0.00  0.00    -0.433 OA
HETATM   14  H   UNK N   1       7.061   2.260   0.537  0.00  0.00     0.185 HD
ENDBRANCH  12  13
BRANCH  12  15
HETATM   15  O   UNK N   1       4.631   1.089   0.316  0.00  0.00    -0.433 OA
HETATM   16  H   UNK N   1       3.701   0.811   0.320  0.00  0.00     0.185 HD
ENDBRANCH  12  15
ENDBRANCH   8  12
ENDBRANCH   4   6
ENDBRANCH   1   4
BRANCH   1  17
HETATM   17  C   UNK N   1       0.027   0.648  -0.108  0.00  0.00     0.121 A 
HETATM   18  S   UNK N   1       1.485   0.055  -0.622  0.00  0.00    -0.087 SA
HETATM   19  C   UNK N   1       1.208  -1.587  -0.441  0.00  0.00     0.074 A 
HETATM   20  C   UNK N   1      -0.105  -1.689   0.049  0.00  0.00     0.072 A 
HETATM   21  C   UNK N   1      -0.755  -0.436   0.238  0.00  0.00     0.057 A 
BRANCH  20  22
HETATM   22  S   UNK N   1      -0.952  -3.250   0.411  0.00  0.00     0.207 S 
HETATM   23  O   UNK N   1      -1.888  -2.612   1.452  0.00  0.00    -0.217 OA
HETATM   24  O   UNK N   1      -1.777  -2.741  -0.785  0.00  0.00    -0.217 OA
BRANCH  22  25
HETATM   25  C   UNK N   1      -2.042  -4.676   0.139  0.00  0.00     0.064 A 
HETATM   26  C   UNK N   1      -1.498  -5.918  -0.209  0.00  0.00     0.024 A 
HETATM   27  C   UNK N   1      -2.338  -7.021  -0.408  0.00  0.00     0.002 A 
HETATM   28  C   UNK N   1      -3.723  -6.889  -0.262  0.00  0.00     0.000 A 
HETATM   29  C   UNK N   1      -4.274  -5.657   0.091  0.00  0.00     0.002 A 
HETATM   30  C   UNK N   1      -3.440  -4.559   0.296  0.00  0.00     0.024 A 
ENDBRANCH  22  25
ENDBRANCH  20  22
ENDBRANCH   1  17
TORSDOF 8
