REMARK  5 active torsions:
REMARK  status: ('A' for Active; 'I' for Inactive)
REMARK    1  A    between atoms: O_1  and  C_7 
REMARK    2  A    between atoms: O_1  and  C_14 
REMARK    3  A    between atoms: N_13  and  C_18 
REMARK    4  A    between atoms: C_14  and  C_17 
REMARK    5  A    between atoms: C_17  and  C_18 
ROOT
HETATM    1  S   UNK N   1      -3.358   1.996   0.002  0.00  0.00    -0.047 SA
HETATM    2  C   UNK N   1      -4.570  -0.386   0.124  0.00  0.00     0.020 A 
HETATM    3  C   UNK N   1      -3.346  -2.472   0.130  0.00  0.00     0.001 A 
HETATM    4  C   UNK N   1      -0.743   1.728  -0.135  0.00  0.00     0.100 A 
HETATM    5  C   UNK N   1      -2.125  -0.364   0.021  0.00  0.00     0.015 A 
HETATM    6  C   UNK N   1      -0.870   0.311  -0.078  0.00  0.00     0.084 A 
HETATM    7  C   UNK N   1      -3.365   0.317   0.057  0.00  0.00     0.021 A 
HETATM    8  C   UNK N   1      -2.140  -1.769   0.061  0.00  0.00     0.015 A 
HETATM    9  C   UNK N   1      -1.807   2.622  -0.098  0.00  0.00     0.216 A 
HETATM   10  C   UNK N   1      -4.560  -1.781   0.159  0.00  0.00     0.001 A 
HETATM   11  O   UNK N   1      -1.617   3.824  -0.143  0.00  0.00    -0.280 OA
ENDROOT
BRANCH   6  12
HETATM   12  O   UNK N   1       0.252  -0.453  -0.142  0.00  0.00    -0.350 OA
BRANCH  12  13
HETATM   13  C   UNK N   1       1.470  -0.001  -0.605  0.00  0.00     0.177 C 
BRANCH  13  14
HETATM   14  C   UNK N   1       2.271   0.687   0.483  0.00  0.00     0.057 C 
BRANCH  14  15
HETATM   15  C   UNK N   1       3.687   0.911  -0.029  0.00  0.00     0.273 C 
BRANCH  15  16
HETATM   16  N   UNK N   1       4.583  -0.144   0.430  0.00  0.00     0.080 N 
HETATM   17  C   UNK N   1       5.933   0.279   0.108  0.00  0.00     0.309 C 
HETATM   18  C   UNK N   1       4.333  -1.351  -0.344  0.00  0.00     0.309 C 
ENDBRANCH  15  16
ENDBRANCH  14  15
ENDBRANCH  13  14
ENDBRANCH  12  13
ENDBRANCH   6  12
TORSDOF 5
