REMARK  6 active torsions:
REMARK  status: ('A' for Active; 'I' for Inactive)
REMARK    1  A    between atoms: C_12  and  N_1 
REMARK    2  A    between atoms: C_15  and  C_17 
REMARK    3  A    between atoms: O_16  and  C_17 
REMARK    4  A    between atoms: O_16  and  P_18 
REMARK    5  A    between atoms: P_18  and  O_19 
REMARK    6  A    between atoms: P_18  and  O_21 
ROOT
HETATM    1  O   UNK N   1      -0.532   0.574   0.629  0.00  0.00    -0.356 OA
HETATM    2  F   UNK N   1      -3.812   1.243  -0.527  0.00  0.00    -0.246 F 
HETATM    3  C   UNK N   1      -1.031  -0.726   0.429  0.00  0.00     0.235 C 
HETATM    4  C   UNK N   1      -2.182  -0.564  -0.541  0.00  0.00     0.094 C 
HETATM    5  C   UNK N   1      -2.885   0.535   0.219  0.00  0.00     0.205 C 
HETATM    6  C   UNK N   1      -1.702   1.367   0.746  0.00  0.00     0.182 C 
ENDROOT
BRANCH   3   7
HETATM    7  N   UNK N   1       0.004  -1.716   0.089  0.00  0.00    -0.282 N 
HETATM    8  C   UNK N   1       1.316  -1.350   0.091  0.00  0.00     0.110 A 
HETATM    9  C   UNK N   1       2.324  -2.312   0.036  0.00  0.00     0.022 A 
HETATM   10  C   UNK N   1       1.963  -3.662  -0.011  0.00  0.00     0.256 A 
HETATM   11  C   UNK N   1       3.752  -1.889   0.094  0.00  0.00     0.056 C 
HETATM   12  N   UNK N   1       0.644  -4.008  -0.065  0.00  0.00    -0.275 N 
HETATM   13  O   UNK N   1       2.816  -4.533   0.009  0.00  0.00    -0.267 OA
HETATM   14  C   UNK N   1      -0.339  -3.054  -0.018  0.00  0.00     0.331 A 
HETATM   15  H   UNK N   1       0.394  -4.957  -0.139  0.00  0.00     0.173 HD
HETATM   16  O   UNK N   1      -1.506  -3.400  -0.009  0.00  0.00    -0.246 OA
ENDBRANCH   3   7
BRANCH   6  17
HETATM   17  C   UNK N   1      -1.549   2.658  -0.038  0.00  0.00     0.215 C 
BRANCH  17  18
HETATM   18  O   UNK N   1      -0.558   3.459   0.528  0.00  0.00    -0.294 OA
BRANCH  18  19
HETATM   19  P   UNK N   1      -0.037   4.488  -0.770  0.00  0.00     0.390 P 
HETATM   20  O   UNK N   1       1.143   3.776  -1.483  0.00  0.00    -0.632 OA
BRANCH  19  21
HETATM   21  O   UNK N   1       0.558   6.002  -0.169  0.00  0.00    -0.307 OA
HETATM   22  H   UNK N   1       1.458   6.137   0.167  0.00  0.00     0.222 HD
ENDBRANCH  19  21
BRANCH  19  23
HETATM   23  O   UNK N   1      -1.287   4.744  -1.952  0.00  0.00    -0.307 OA
HETATM   24  H   UNK N   1      -1.511   5.419  -2.611  0.00  0.00     0.222 HD
ENDBRANCH  19  23
ENDBRANCH  18  19
ENDBRANCH  17  18
ENDBRANCH   6  17
TORSDOF 6
