REMARK  8 active torsions:
REMARK  status: ('A' for Active; 'I' for Inactive)
REMARK    1  A    between atoms: C_1  and  C_8 
REMARK    2  A    between atoms: C_1  and  P_15 
REMARK    3  A    between atoms: C_2  and  C_12 
REMARK    4  A    between atoms: C_12  and  P_21 
REMARK    5  A    between atoms: P_15  and  O_17 
REMARK    6  A    between atoms: P_15  and  O_18 
REMARK    7  A    between atoms: P_21  and  O_23 
REMARK    8  A    between atoms: P_21  and  O_24 
ROOT
HETATM    1  C   UNK N   1      -2.158   1.134   0.432  0.00  0.00     0.026 A 
HETATM    2  C   UNK N   1      -1.875   2.453   0.024  0.00  0.00     0.015 A 
HETATM    3  C   UNK N   1      -0.559   2.816  -0.333  0.00  0.00     0.013 A 
HETATM    4  C   UNK N   1       0.467   1.856  -0.295  0.00  0.00    -0.026 A 
HETATM    5  C   UNK N   1       1.796   2.171  -0.628  0.00  0.00     0.013 A 
HETATM    6  C   UNK N   1       2.793   1.168  -0.576  0.00  0.00     0.015 A 
HETATM    7  C   UNK N   1       2.446  -0.150  -0.209  0.00  0.00     0.026 A 
HETATM    8  C   UNK N   1       1.127  -0.435   0.118  0.00  0.00     0.026 A 
HETATM    9  C   UNK N   1       0.154   0.542   0.092  0.00  0.00    -0.025 A 
HETATM   10  C   UNK N   1      -1.130   0.198   0.459  0.00  0.00     0.026 A 
ENDROOT
BRANCH   1  11
HETATM   11  C   UNK N   1      -3.522   0.682   0.875  0.00  0.00     0.364 C 
HETATM   12  F   UNK N   1      -4.458   1.694   0.759  0.00  0.00    -0.187 F 
HETATM   13  F   UNK N   1      -3.444   0.294   2.201  0.00  0.00    -0.187 F 
BRANCH  11  14
HETATM   14  P   UNK N   1      -4.067  -0.797  -0.137  0.00  0.00     0.315 P 
HETATM   15  O   UNK N   1      -5.400  -1.376   0.407  0.00  0.00    -0.649 OA
BRANCH  14  16
HETATM   16  O   UNK N   1      -4.382  -0.486  -1.814  0.00  0.00    -0.325 OA
HETATM   17  H   UNK N   1      -4.319  -0.247  -2.752  0.00  0.00     0.220 HD
ENDBRANCH  14  16
BRANCH  14  18
HETATM   18  O   UNK N   1      -2.977  -2.150  -0.077  0.00  0.00    -0.325 OA
HETATM   19  H   UNK N   1      -3.327  -3.054  -0.044  0.00  0.00     0.220 HD
ENDBRANCH  14  18
ENDBRANCH  11  14
ENDBRANCH   1  11
BRANCH   7  20
HETATM   20  C   UNK N   1       3.399  -1.316  -0.149  0.00  0.00     0.364 C 
HETATM   21  F   UNK N   1       3.277  -1.907   1.096  0.00  0.00    -0.187 F 
HETATM   22  F   UNK N   1       3.004  -2.232  -1.108  0.00  0.00    -0.187 F 
BRANCH  20  23
HETATM   23  P   UNK N   1       5.210  -0.969  -0.397  0.00  0.00     0.315 P 
HETATM   24  O   UNK N   1       5.521  -0.336  -1.777  0.00  0.00    -0.649 OA
BRANCH  23  25
HETATM   25  O   UNK N   1       5.952   0.072   0.775  0.00  0.00    -0.325 OA
HETATM   26  H   UNK N   1       6.664   0.004   1.430  0.00  0.00     0.220 HD
ENDBRANCH  23  25
BRANCH  23  27
HETATM   27  O   UNK N   1       6.133  -2.440  -0.388  0.00  0.00    -0.325 OA
HETATM   28  H   UNK N   1       5.680  -3.297  -0.382  0.00  0.00     0.220 HD
ENDBRANCH  23  27
ENDBRANCH  20  23
ENDBRANCH   7  20
TORSDOF 8
