REMARK  8 active torsions:
REMARK  status: ('A' for Active; 'I' for Inactive)
REMARK    1  A    between atoms: C_4  and  C_5 
REMARK    2  A    between atoms: C_5  and  C_6 
REMARK    3  A    between atoms: C_6  and  C_7 
REMARK    4  A    between atoms: C_9  and  C_10 
REMARK    5  A    between atoms: C_10  and  C_11 
REMARK    6  A    between atoms: C_11  and  C_12 
REMARK    7  A    between atoms: C_14  and  C_15 
REMARK    8  A    between atoms: C_15  and  O_16 
ROOT
HETATM    1  C   UNK N   1       2.446  -1.516  -0.167  0.00  0.00    -0.087 C 
HETATM    2  C   UNK N   1       3.308  -2.711  -0.394  0.00  0.00     0.043 C 
HETATM    3  C   UNK N   1       3.010  -0.389   0.295  0.00  0.00    -0.024 C 
ENDROOT
BRANCH   3   4
HETATM    4  C   UNK N   1       2.251   0.878   0.569  0.00  0.00     0.031 C 
BRANCH   4   5
HETATM    5  C   UNK N   1       1.556   1.421  -0.672  0.00  0.00     0.037 C 
BRANCH   5   6
HETATM    6  C   UNK N   1       0.489   2.379  -0.256  0.00  0.00    -0.085 C 
HETATM    7  C   UNK N   1       0.871   3.690   0.357  0.00  0.00     0.043 C 
HETATM    8  C   UNK N   1      -0.793   2.026  -0.412  0.00  0.00     0.001 C 
BRANCH   8   9
HETATM    9  C   UNK N   1      -1.928   2.904   0.009  0.00  0.00     0.191 C 
BRANCH   9  10
HETATM   10  O   UNK N   1      -3.134   2.238  -0.204  0.00  0.00    -0.397 OA
HETATM   11  H   UNK N   1      -3.955   2.733  -0.353  0.00  0.00     0.209 HD
ENDBRANCH   9  10
ENDBRANCH   8   9
ENDBRANCH   5   6
ENDBRANCH   4   5
ENDBRANCH   3   4
BRANCH   1  12
HETATM   12  C   UNK N   1       0.987  -1.583  -0.514  0.00  0.00     0.037 C 
BRANCH  12  13
HETATM   13  C   UNK N   1       0.261  -2.671   0.258  0.00  0.00     0.031 C 
BRANCH  13  14
HETATM   14  C   UNK N   1      -1.175  -2.697  -0.170  0.00  0.00    -0.024 C 
HETATM   15  C   UNK N   1      -2.081  -1.815   0.271  0.00  0.00    -0.091 C 
HETATM   16  C   UNK N   1      -3.481  -1.898  -0.229  0.00  0.00     0.042 C 
HETATM   17  C   UNK N   1      -1.724  -0.750   1.257  0.00  0.00     0.042 C 
ENDBRANCH  13  14
ENDBRANCH  12  13
ENDBRANCH   1  12
TORSDOF 8
