REMARK  6 active torsions:
REMARK  status: ('A' for Active; 'I' for Inactive)
REMARK    1  A    between atoms: C_1  and  O_2 
REMARK    2  A    between atoms: C_7  and  O_8 
REMARK    3  A    between atoms: C_9  and  O_10 
REMARK    4  A    between atoms: O_10  and  C_27 
REMARK    5  A    between atoms: C_13  and  O_14 
REMARK    6  A    between atoms: C_19  and  C_20 
ROOT
HETATM    1  C   UNK N   1      -1.611  -2.344   0.226  0.00  0.00     0.130 C 
HETATM    2  C   UNK N   1      -2.713  -2.118  -0.783  0.00  0.00     0.033 C 
HETATM    3  C   UNK N   1      -3.665  -1.100  -0.166  0.00  0.00     0.012 C 
HETATM    4  C   UNK N   1      -3.008   0.264  -0.196  0.00  0.00    -0.041 C 
HETATM    5  C   UNK N   1      -1.607   0.259   0.556  0.00  0.00     0.039 C 
HETATM    6  C   UNK N   1      -0.805   1.592   0.254  0.00  0.00     0.156 C 
HETATM    7  C   UNK N   1       0.636   1.460   0.734  0.00  0.00     0.198 C 
HETATM    8  C   UNK N   1       1.451   0.336  -0.020  0.00  0.00     0.126 C 
HETATM    9  O   UNK N   1       2.425  -0.054   0.964  0.00  0.00    -0.359 OA
HETATM   10  C   UNK N   1       0.492  -0.855  -0.520  0.00  0.00     0.161 C 
HETATM   11  C   UNK N   1      -0.706  -1.080   0.480  0.00  0.00     0.030 C 
HETATM   12  C   UNK N   1       1.391  -2.059  -0.695  0.00  0.00     0.168 C 
HETATM   13  O   UNK N   1       1.466  -2.655  -1.759  0.00  0.00    -0.294 OA
HETATM   14  C   UNK N   1       2.280  -2.441   0.426  0.00  0.00     0.123 C 
HETATM   15  C   UNK N   1       3.175  -1.244   0.741  0.00  0.00     0.082 C 
HETATM   16  C   UNK N   1       3.883  -1.559   2.048  0.00  0.00     0.051 C 
HETATM   17  C   UNK N   1       2.183   0.902  -1.242  0.00  0.00     0.052 C 
HETATM   18  C   UNK N   1      -2.983   0.655  -1.670  0.00  0.00     0.015 C 
HETATM   19  C   UNK N   1      -3.945   1.244   0.498  0.00  0.00     0.015 C 
HETATM   20  C   UNK N   1      -0.086  -1.354   1.865  0.00  0.00     0.022 C 
ENDROOT
BRANCH   7  21
HETATM   21  O   UNK N   1       1.319   2.670   0.865  0.00  0.00    -0.310 OA
BRANCH  21  22
HETATM   22  C   UNK N   1       1.584   3.625  -0.075  0.00  0.00     0.255 C 
HETATM   23  O   UNK N   1       1.144   3.554  -1.206  0.00  0.00    -0.266 OA
HETATM   24  C   UNK N   1       2.422   4.796   0.306  0.00  0.00     0.126 C 
ENDBRANCH  21  22
ENDBRANCH   7  21
BRANCH   6  25
HETATM   25  O   UNK N   1      -0.774   1.894  -1.108  0.00  0.00    -0.392 OA
HETATM   26  H   UNK N   1      -0.582   1.980  -2.055  0.00  0.00     0.210 HD
ENDBRANCH   6  25
BRANCH  10  27
HETATM   27  O   UNK N   1      -0.073  -0.556  -1.768  0.00  0.00    -0.378 OA
HETATM   28  H   UNK N   1      -0.089  -0.114  -2.631  0.00  0.00     0.211 HD
ENDBRANCH  10  27
BRANCH  15  29
HETATM   29  C   UNK N   1       4.232  -1.035  -0.320  0.00  0.00     0.001 C 
HETATM   30  C   UNK N   1       5.094  -1.997  -0.660  0.00  0.00     0.010 C 
ENDBRANCH  15  29
BRANCH   1  31
HETATM   31  O   UNK N   1      -0.873  -3.470  -0.140  0.00  0.00    -0.395 OA
HETATM   32  H   UNK N   1      -1.294  -4.306  -0.395  0.00  0.00     0.210 HD
ENDBRANCH   1  31
TORSDOF 6
