REMARK  3 active torsions:
REMARK  status: ('A' for Active; 'I' for Inactive)
REMARK    1  A    between atoms: O_1  and  N_2 
REMARK    2  A    between atoms: C_10  and  C_11 
REMARK    3  A    between atoms: C_18  and  C_19 
ROOT
HETATM    1  N   UNK N   1       0.660   2.280   0.013  0.00  0.00    -0.221 N 
HETATM    2  C   UNK N   1       1.925   1.850   0.057  0.00  0.00     0.090 A 
HETATM    3  C   UNK N   1       3.086   2.610   0.141  0.00  0.00     0.036 A 
HETATM    4  C   UNK N   1       4.308   1.917   0.172  0.00  0.00     0.019 A 
HETATM    5  C   UNK N   1       4.314   0.505   0.117  0.00  0.00     0.088 A 
HETATM    6  N   UNK N   1       3.139  -0.191   0.037  0.00  0.00    -0.363 N 
ATOM      7  HN  UNK N   1       3.144  -1.210  -0.003  1.00  0.00     0.165 HD
HETATM    8  C   UNK N   1       1.965   0.493   0.012  0.00  0.00     0.075 A 
HETATM    9  C   UNK N   1       0.659   0.014  -0.077  0.00  0.00     0.033 A 
HETATM   10  C   UNK N   1      -0.159   1.190  -0.067  0.00  0.00     0.086 A 
ENDROOT
BRANCH   9  11
HETATM   11  C   UNK N   1       0.330  -1.448  -0.147  0.00  0.00    -0.021 A 
HETATM   12  C   UNK N   1       1.292  -2.396   0.247  0.00  0.00     0.015 A 
HETATM   13  C   UNK N   1       1.008  -3.765   0.215  0.00  0.00     0.043 A 
HETATM   14  C   UNK N   1      -0.239  -4.207  -0.231  0.00  0.00     0.116 A 
HETATM   15  F   UNK N   1      -0.523  -5.531  -0.255  0.00  0.00    -0.206 F 
HETATM   16  C   UNK N   1      -1.192  -3.282  -0.652  0.00  0.00     0.043 A 
HETATM   17  C   UNK N   1      -0.904  -1.916  -0.608  0.00  0.00     0.015 A 
ENDBRANCH   9  11
BRANCH  10  18
HETATM   18  C   UNK N   1      -1.658   1.329  -0.078  0.00  0.00    -0.003 A 
HETATM   19  C   UNK N   1      -2.513   0.228  -0.128  0.00  0.00     0.031 A 
HETATM   20  C   UNK N   1      -3.898   0.397  -0.110  0.00  0.00     0.088 A 
HETATM   21  N   UNK N   1      -4.429   1.644  -0.029  0.00  0.00    -0.375 N 
HETATM   22  C   UNK N   1      -3.632   2.743   0.033  0.00  0.00     0.088 A 
ATOM     23  HN  UNK N   1      -5.443   1.758  -0.013  1.00  0.00     0.164 HD
HETATM   24  C   UNK N   1      -2.242   2.602   0.008  0.00  0.00     0.031 A 
ENDBRANCH  10  18
BRANCH   1  25
HETATM   25  O   UNK N   1       0.290   3.583   0.057  0.00  0.00    -0.282 OA
HETATM   26  H   UNK N   1       0.942   4.255   0.087  0.00  0.00     0.245 HD
ENDBRANCH   1  25
TORSDOF 3
