REMARK  4 active torsions:
REMARK  status: ('A' for Active; 'I' for Inactive)
REMARK       I    between atoms: C_6  and  N_11 
REMARK    1  A    between atoms: N_11  and  C_12 
REMARK    2  A    between atoms: C_12  and  C_13 
REMARK    3  A    between atoms: C_15  and  C_18 
REMARK    4  A    between atoms: C_21  and  N_24 
REMARK       I    between atoms: C_26  and  N_27 
REMARK       I    between atoms: C_26  and  N_28 
ROOT
HETATM    1  C   UNK N   1      -0.472   1.017   0.000  0.00  0.00     0.002 A 
HETATM    2  S   UNK N   1      -1.376  -0.342   0.000  0.00  0.00    -0.091 SA
HETATM    3  C   UNK N   1      -2.880   0.311  -0.000  0.00  0.00     0.032 A 
HETATM    4  C   UNK N   1      -2.731   1.708  -0.000  0.00  0.00     0.022 A 
HETATM    5  C   UNK N   1      -1.350   2.113   0.000  0.00  0.00     0.018 A 
ENDROOT
BRANCH   3   6
HETATM    6  C   UNK N   1      -4.077  -0.531  -0.000  0.00  0.00     0.058 A 
HETATM    7  N   UNK N   1      -3.927  -1.901  -0.000  0.00  0.00    -0.335 N 
HETATM    8  C   UNK N   1      -5.099  -2.558  -0.000  0.00  0.00     0.164 A 
ATOM      9  HN  UNK N   1      -3.020  -2.368  -0.000  1.00  0.00     0.168 HD
HETATM   10  S   UNK N   1      -6.334  -1.452  -0.000  0.00  0.00    -0.063 SA
HETATM   11  C   UNK N   1      -5.406  -0.063  -0.000  0.00  0.00     0.084 A 
BRANCH   8  12
HETATM   12  N   UNK N   1      -5.154  -3.981  -0.000  0.00  0.00    -0.171 N 
HETATM   13  C   UNK N   1      -6.208  -4.723  -0.000  0.00  0.00     0.671 C 
HETATM   14  N   UNK N   1      -6.058  -6.126   0.000  0.00  0.00    -0.235 N 
HETATM   15  N   UNK N   1      -7.507  -4.167   0.000  0.00  0.00    -0.235 N 
HETATM   16  H   UNK N   1      -6.854  -6.706   0.000  0.00  0.00     0.174 HD
HETATM   17  H   UNK N   1      -5.158  -6.525   0.000  0.00  0.00     0.174 HD
HETATM   18  H   UNK N   1      -7.624  -3.189   0.000  0.00  0.00     0.174 HD
HETATM   19  H   UNK N   1      -8.295  -4.757   0.000  0.00  0.00     0.174 HD
ATOM     20  HN  UNK N   1      -4.257  -4.469  -0.000  1.00  0.00     0.186 HD
ENDBRANCH   8  12
ENDBRANCH   3   6
BRANCH   1  21
HETATM   21  C   UNK N   1       1.006   0.912   0.000  0.00  0.00     0.184 C 
BRANCH  21  22
HETATM   22  N   UNK N   1       1.757   2.135   0.000  0.00  0.00    -0.221 N 
HETATM   23  C   UNK N   1       3.167   1.998   0.000  0.00  0.00     0.679 A 
HETATM   24  N   UNK N   1       3.780   0.786   0.000  0.00  0.00    -0.190 N 
HETATM   25  N   UNK N   1       4.034   3.040   0.000  0.00  0.00    -0.190 N 
HETATM   26  C   UNK N   1       5.081   1.086   0.000  0.00  0.00     0.076 A 
ATOM     27  HN  UNK N   1       3.347  -0.138   0.000  1.00  0.00     0.184 HD
HETATM   28  C   UNK N   1       5.240   2.438  -0.000  0.00  0.00     0.076 A 
HETATM   29  C   UNK N   1       6.155   0.204  -0.000  0.00  0.00     0.032 A 
HETATM   30  C   UNK N   1       6.500   3.027  -0.000  0.00  0.00     0.032 A 
HETATM   31  C   UNK N   1       7.619   2.166  -0.000  0.00  0.00     0.002 A 
HETATM   32  C   UNK N   1       7.446   0.761  -0.000  0.00  0.00     0.002 A 
HETATM   33  H   UNK N   1       3.832   4.004   0.000  0.00  0.00     0.184 HD
HETATM   34  H   UNK N   1       1.318   3.016   0.000  0.00  0.00     0.178 HD
ENDBRANCH  21  22
ENDBRANCH   1  21
TORSDOF 4
