REMARK  7 active torsions:
REMARK  status: ('A' for Active; 'I' for Inactive)
REMARK    1  A    between atoms: C_10  and  N_2 
REMARK    2  A    between atoms: C_6  and  C_7 
REMARK       I    between atoms: C_7  and  N_9 
REMARK    3  A    between atoms: C_10  and  C_11 
REMARK    4  A    between atoms: C_10  and  C_13 
REMARK    5  A    between atoms: C_11  and  O_12 
REMARK    6  A    between atoms: C_13  and  C_14 
REMARK    7  A    between atoms: C_14  and  C_15 
ROOT
HETATM    1  C   UNK N   1      -0.468   0.873   0.204  0.00  0.00     0.114 C 
ENDROOT
BRANCH   1   2
HETATM    2  N   UNK N   1      -1.639  -0.009   0.123  0.00  0.00    -0.344 N 
HETATM    3  C   UNK N   1      -2.931   0.346   0.238  0.00  0.00     0.127 A 
HETATM    4  C   UNK N   1      -3.682  -0.781  -0.006  0.00  0.00     0.117 A 
HETATM    5  N   UNK N   1      -2.868  -1.825  -0.260  0.00  0.00    -0.347 N 
HETATM    6  C   UNK N   1      -1.617  -1.324  -0.180  0.00  0.00     0.183 A 
ATOM      7  HN  UNK N   1      -3.139  -2.786  -0.467  1.00  0.00     0.167 HD
BRANCH   4   8
HETATM    8  C   UNK N   1      -5.150  -0.840  -0.050  0.00  0.00     0.267 C 
HETATM    9  O   UNK N   1      -5.713  -1.890  -0.321  0.00  0.00    -0.266 OA
HETATM   10  N   UNK N   1      -5.881   0.269   0.176  0.00  0.00    -0.365 N 
HETATM   11  H   UNK N   1      -5.446   1.137   0.342  0.00  0.00     0.159 HD
HETATM   12  H   UNK N   1      -6.864   0.212   0.176  0.00  0.00     0.159 HD
ENDBRANCH   4   8
ENDBRANCH   1   2
BRANCH   1  13
HETATM   13  C   UNK N   1      -0.887   2.305   0.563  0.00  0.00     0.189 C 
BRANCH  13  14
HETATM   14  O   UNK N   1       0.196   3.183   0.514  0.00  0.00    -0.399 OA
HETATM   15  H   UNK N   1       1.101   2.836   0.480  0.00  0.00     0.209 HD
ENDBRANCH  13  14
ENDBRANCH   1  13
BRANCH   1  16
HETATM   16  C   UNK N   1       0.531   0.333   1.230  0.00  0.00     0.032 C 
BRANCH  16  17
HETATM   17  C   UNK N   1       1.945   0.839   0.933  0.00  0.00     0.041 C 
BRANCH  17  18
HETATM   18  C   UNK N   1       2.879  -0.242   0.463  0.00  0.00    -0.058 A 
HETATM   19  C   UNK N   1       4.140   0.118  -0.029  0.00  0.00     0.007 A 
HETATM   20  C   UNK N   1       5.036  -0.866  -0.460  0.00  0.00     0.001 A 
HETATM   21  C   UNK N   1       4.679  -2.215  -0.395  0.00  0.00     0.000 A 
HETATM   22  C   UNK N   1       3.424  -2.583   0.096  0.00  0.00     0.001 A 
HETATM   23  C   UNK N   1       2.526  -1.600   0.522  0.00  0.00     0.007 A 
ENDBRANCH  17  18
ENDBRANCH  16  17
ENDBRANCH   1  16
TORSDOF 7
