REMARK  7 active torsions:
REMARK  status: ('A' for Active; 'I' for Inactive)
REMARK    1  A    between atoms: C_10  and  N_2 
REMARK    2  A    between atoms: C_6  and  C_7 
REMARK       I    between atoms: C_7  and  N_9 
REMARK    3  A    between atoms: C_10  and  C_11 
REMARK    4  A    between atoms: C_10  and  C_13 
REMARK    5  A    between atoms: C_11  and  O_12 
REMARK    6  A    between atoms: C_13  and  C_14 
REMARK    7  A    between atoms: C_14  and  C_15 
ROOT
HETATM    1  C   UNK N   1      -1.204   0.477  -0.216  0.00  0.00     0.118 C 
ENDROOT
BRANCH   1   2
HETATM    2  N   UNK N   1      -2.416  -0.358  -0.084  0.00  0.00    -0.343 N 
HETATM    3  C   UNK N   1      -3.691   0.020   0.142  0.00  0.00     0.127 A 
HETATM    4  C   UNK N   1      -4.479  -1.102   0.033  0.00  0.00     0.117 A 
HETATM    5  N   UNK N   1      -3.709  -2.173  -0.247  0.00  0.00    -0.347 N 
HETATM    6  C   UNK N   1      -2.456  -1.689  -0.325  0.00  0.00     0.183 A 
ATOM      7  HN  UNK N   1      -4.010  -3.139  -0.373  1.00  0.00     0.167 HD
BRANCH   4   8
HETATM    8  C   UNK N   1      -5.944  -1.161   0.131  0.00  0.00     0.267 C 
HETATM    9  O   UNK N   1      -6.525  -2.223   0.009  0.00  0.00    -0.266 OA
HETATM   10  N   UNK N   1      -6.655  -0.028   0.324  0.00  0.00    -0.365 N 
HETATM   11  H   UNK N   1      -6.198   0.833   0.465  0.00  0.00     0.159 HD
HETATM   12  H   UNK N   1      -7.638  -0.064   0.324  0.00  0.00     0.159 HD
ENDBRANCH   4   8
ENDBRANCH   1   2
BRANCH   1  13
HETATM   13  C   UNK N   1      -1.373   2.019   0.036  0.00  0.00     0.137 C 
HETATM   14  C   UNK N   1      -0.854   2.496   1.386  0.00  0.00     0.041 C 
BRANCH  13  15
HETATM   15  O   UNK N   1      -2.683   2.467  -0.125  0.00  0.00    -0.394 OA
HETATM   16  H   UNK N   1      -2.869   3.413  -0.238  0.00  0.00     0.210 HD
ENDBRANCH  13  15
ENDBRANCH   1  13
BRANCH   1  17
HETATM   17  C   UNK N   1      -0.039  -0.104   0.613  0.00  0.00     0.033 C 
BRANCH  17  18
HETATM   18  C   UNK N   1       0.491  -1.383  -0.026  0.00  0.00     0.041 C 
BRANCH  18  19
HETATM   19  C   UNK N   1       1.972  -1.617   0.089  0.00  0.00    -0.047 A 
HETATM   20  C   UNK N   1       2.394  -2.947   0.192  0.00  0.00     0.008 A 
HETATM   21  C   UNK N   1       3.752  -3.267   0.230  0.00  0.00     0.001 A 
HETATM   22  C   UNK N   1       4.713  -2.259   0.161  0.00  0.00     0.012 A 
HETATM   23  C   UNK N   1       4.320  -0.924   0.059  0.00  0.00    -0.025 A 
HETATM   24  C   UNK N   1       2.944  -0.585   0.017  0.00  0.00    -0.020 A 
HETATM   25  C   UNK N   1       5.293   0.078  -0.011  0.00  0.00     0.012 A 
HETATM   26  C   UNK N   1       2.585   0.767  -0.100  0.00  0.00     0.013 A 
HETATM   27  C   UNK N   1       3.562   1.762  -0.160  0.00  0.00     0.001 A 
HETATM   28  C   UNK N   1       4.914   1.418  -0.116  0.00  0.00     0.001 A 
ENDBRANCH  18  19
ENDBRANCH  17  18
ENDBRANCH   1  17
TORSDOF 7
