REMARK  5 active torsions:
REMARK  status: ('A' for Active; 'I' for Inactive)
REMARK    1  A    between atoms: C_9  and  C_13 
REMARK    2  A    between atoms: C_13  and  C_14 
REMARK    3  A    between atoms: C_14  and  C_15 
REMARK    4  A    between atoms: C_15  and  N_16 
REMARK    5  A    between atoms: C_19  and  C_22 
ROOT
HETATM    1  C   UNK N   1       1.486   3.589  -0.278  0.00  0.00     0.078 C 
ENDROOT
BRANCH   1   2
HETATM    2  C   UNK N   1       0.013   3.771  -0.122  0.00  0.00     0.084 A 
HETATM    3  N   UNK N   1      -0.828   2.699  -0.145  0.00  0.00    -0.345 N 
HETATM    4  C   UNK N   1      -2.177   2.861  -0.056  0.00  0.00     0.055 A 
ATOM      5  HN  UNK N   1      -0.440   1.759  -0.231  1.00  0.00     0.167 HD
HETATM    6  C   UNK N   1      -3.039   1.748  -0.065  0.00  0.00    -0.034 A 
HETATM    7  C   UNK N   1      -2.717   4.161   0.042  0.00  0.00     0.059 A 
HETATM    8  C   UNK N   1      -4.422   1.940   0.017  0.00  0.00     0.009 A 
HETATM    9  C   UNK N   1      -2.506   0.359  -0.156  0.00  0.00     0.050 C 
HETATM   10  C   UNK N   1      -4.954   3.229   0.106  0.00  0.00     0.002 A 
HETATM   11  C   UNK N   1      -4.105   4.338   0.120  0.00  0.00     0.019 A 
HETATM   12  C   UNK N   1      -1.837   5.249   0.057  0.00  0.00     0.259 A 
HETATM   13  N   UNK N   1      -0.489   5.029  -0.023  0.00  0.00    -0.312 N 
HETATM   14  O   UNK N   1      -2.257   6.391   0.136  0.00  0.00    -0.267 OA
HETATM   15  H   UNK N   1       0.128   5.796  -0.009  0.00  0.00     0.170 HD
ENDBRANCH   1   2
BRANCH   1  16
HETATM   16  C   UNK N   1       2.019   2.408   0.509  0.00  0.00     0.038 C 
BRANCH  16  17
HETATM   17  C   UNK N   1       2.697   1.490  -0.504  0.00  0.00     0.273 C 
BRANCH  17  18
HETATM   18  N   UNK N   1       2.301   0.079  -0.436  0.00  0.00     0.092 N 
HETATM   19  C   UNK N   1       3.241  -0.641   0.411  0.00  0.00     0.300 C 
HETATM   20  C   UNK N   1       2.954  -2.112   0.337  0.00  0.00     0.011 C 
HETATM   21  C   UNK N   1       1.704  -2.574   0.128  0.00  0.00    -0.048 C 
HETATM   22  C   UNK N   1       0.546  -1.609  -0.059  0.00  0.00     0.069 C 
HETATM   23  C   UNK N   1       0.944  -0.134   0.077  0.00  0.00     0.277 C 
BRANCH  21  24
HETATM   24  C   UNK N   1       1.461  -4.037   0.058  0.00  0.00    -0.030 A 
HETATM   25  C   UNK N   1       2.533  -4.943   0.135  0.00  0.00     0.015 A 
HETATM   26  C   UNK N   1       2.304  -6.319   0.077  0.00  0.00     0.043 A 
HETATM   27  C   UNK N   1       1.002  -6.805  -0.053  0.00  0.00     0.116 A 
HETATM   28  C   UNK N   1      -0.073  -5.914  -0.132  0.00  0.00     0.043 A 
HETATM   29  F   UNK N   1       0.781  -8.140  -0.098  0.00  0.00    -0.206 F 
HETATM   30  C   UNK N   1       0.156  -4.535  -0.080  0.00  0.00     0.015 A 
ENDBRANCH  21  24
ENDBRANCH  17  18
ENDBRANCH  16  17
ENDBRANCH   1  16
TORSDOF 5
