REMARK  12 active torsions:
REMARK  status: ('A' for Active; 'I' for Inactive)
REMARK    1  A    between atoms: C_2  and  C_3 
REMARK    2  A    between atoms: C_3  and  C_4 
REMARK    3  A    between atoms: C_4  and  C_5 
REMARK    4  A    between atoms: C_5  and  N_6 
REMARK    5  A    between atoms: C_5  and  C_32 
REMARK       I    between atoms: N_6  and  C_7 
REMARK    6  A    between atoms: C_7  and  O_9 
REMARK    7  A    between atoms: O_9  and  C_10 
REMARK    8  A    between atoms: C_10  and  C_11 
REMARK    9  A    between atoms: C_11  and  C_12 
REMARK   10  A    between atoms: C_12  and  C_13 
REMARK       I    between atoms: C_23  and  N_25 
REMARK   11  A    between atoms: C_23  and  C_32 
REMARK   12  A    between atoms: N_25  and  C_26 
ROOT
HETATM    1  C   UNK N   1       0.970   0.086   0.448  0.00  0.00     0.166 C 
ENDROOT
BRANCH   1   2
HETATM    2  C   UNK N   1       0.999  -1.421   0.793  0.00  0.00     0.033 C 
BRANCH   2   3
HETATM    3  C   UNK N   1       1.574  -2.303  -0.319  0.00  0.00     0.002 C 
BRANCH   3   4
HETATM    4  C   UNK N   1       1.604  -3.756   0.115  0.00  0.00    -0.004 C 
HETATM    5  C   UNK N   1       2.821  -4.027   0.978  0.00  0.00     0.005 C 
ENDBRANCH   3   4
ENDBRANCH   2   3
ENDBRANCH   1   2
BRANCH   1   6
HETATM    6  N   UNK N   1      -0.001   0.467  -0.570  0.00  0.00    -0.325 N 
HETATM    7  C   UNK N   1      -0.865  -0.309  -1.273  0.00  0.00     0.361 C 
HETATM    8  O   UNK N   1      -0.833  -1.528  -1.209  0.00  0.00    -0.238 OA
HETATM    9  H   UNK N   1      -0.035   1.428  -0.778  0.00  0.00     0.165 HD
BRANCH   7  10
HETATM   10  O   UNK N   1      -1.915   0.300  -1.859  0.00  0.00    -0.303 OA
BRANCH  10  11
HETATM   11  C   UNK N   1      -3.205  -0.156  -1.662  0.00  0.00     0.190 C 
BRANCH  11  12
HETATM   12  C   UNK N   1      -3.538  -0.273  -0.153  0.00  0.00    -0.014 A 
HETATM   13  C   UNK N   1      -3.249  -1.662   0.387  0.00  0.00     0.012 A 
HETATM   14  C   UNK N   1      -4.720  -1.853   0.690  0.00  0.00     0.002 A 
HETATM   15  C   UNK N   1      -5.015  -0.482   0.110  0.00  0.00     0.012 A 
BRANCH  12  16
HETATM   16  C   UNK N   1      -2.915   0.774   0.789  0.00  0.00     0.050 C 
BRANCH  16  17
HETATM   17  C   UNK N   1      -3.089   2.200   0.377  0.00  0.00    -0.057 A 
HETATM   18  C   UNK N   1      -4.366   2.739   0.188  0.00  0.00     0.010 A 
HETATM   19  C   UNK N   1      -4.513   4.085  -0.155  0.00  0.00     0.043 A 
HETATM   20  C   UNK N   1      -3.385   4.899  -0.298  0.00  0.00     0.116 A 
HETATM   21  F   UNK N   1      -3.531   6.207  -0.619  0.00  0.00    -0.206 F 
HETATM   22  C   UNK N   1      -2.107   4.365  -0.104  0.00  0.00     0.043 A 
HETATM   23  C   UNK N   1      -1.960   3.016   0.234  0.00  0.00     0.010 A 
ENDBRANCH  16  17
ENDBRANCH  12  16
ENDBRANCH  11  12
ENDBRANCH  10  11
ENDBRANCH   7  10
ENDBRANCH   1   6
BRANCH   1  24
HETATM   24  C   UNK N   1       2.310   0.746   0.158  0.00  0.00     0.239 C 
HETATM   25  O   UNK N   1       2.316   1.911  -0.217  0.00  0.00    -0.285 OA
BRANCH  24  26
HETATM   26  C   UNK N   1       3.610   0.057   0.349  0.00  0.00     0.295 C 
HETATM   27  O   UNK N   1       3.650  -1.030   0.903  0.00  0.00    -0.264 OA
HETATM   28  N   UNK N   1       4.762   0.649  -0.047  0.00  0.00    -0.305 N 
HETATM   29  H   UNK N   1       4.741   1.584  -0.356  0.00  0.00     0.170 HD
BRANCH  28  30
HETATM   30  C   UNK N   1       6.001  -0.048  -0.026  0.00  0.00     0.123 A 
HETATM   31  C   UNK N   1       7.243   0.533  -0.037  0.00  0.00     0.068 A 
HETATM   32  C   UNK N   1       8.112  -0.548  -0.026  0.00  0.00     0.111 A 
HETATM   33  N   UNK N   1       7.395  -1.690  -0.023  0.00  0.00    -0.310 N 
HETATM   34  N   UNK N   1       6.108  -1.386  -0.025  0.00  0.00    -0.286 N 
ATOM     35  HN  UNK N   1       7.782  -2.634  -0.021  1.00  0.00     0.186 HD
HETATM   36  H   UNK N   1       5.361  -2.027  -0.025  0.00  0.00     0.188 HD
ENDBRANCH  28  30
ENDBRANCH  24  26
ENDBRANCH   1  24
TORSDOF 12
