REMARK  8 active torsions:
REMARK  status: ('A' for Active; 'I' for Inactive)
REMARK       I    between atoms: C_2  and  N_4 
REMARK    1  A    between atoms: N_4  and  C_5 
REMARK    2  A    between atoms: C_10  and  C_11 
REMARK    3  A    between atoms: C_11  and  C_12 
REMARK    4  A    between atoms: N_16  and  C_17 
REMARK    5  A    between atoms: C_17  and  C_18 
REMARK    6  A    between atoms: C_18  and  C_19 
REMARK    7  A    between atoms: N_25  and  C_28 
REMARK    8  A    between atoms: C_28  and  C_29 
ROOT
HETATM    1  C   UNK N   1      -1.430  -1.043   0.022  0.00  0.00     0.087 A 
HETATM    2  N   UNK N   1      -0.646  -0.041  -0.456  0.00  0.00    -0.330 N 
ATOM      3  HN  UNK N   1      -0.938   0.838  -0.882  1.00  0.00     0.168 HD
HETATM    4  C   UNK N   1       0.598  -0.480  -0.237  0.00  0.00     0.145 A 
HETATM    5  N   UNK N   1       1.752   0.176  -0.506  0.00  0.00    -0.283 N 
HETATM    6  C   UNK N   1       0.567  -1.699   0.336  0.00  0.00     0.147 A 
HETATM    7  N   UNK N   1      -0.709  -2.085   0.513  0.00  0.00    -0.338 N 
HETATM    8  C   UNK N   1       1.740  -2.353   0.669  0.00  0.00     0.282 A 
HETATM    9  O   UNK N   1       1.705  -3.442   1.218  0.00  0.00    -0.265 OA
HETATM   10  N   UNK N   1       2.948  -1.730   0.372  0.00  0.00    -0.260 N 
HETATM   11  C   UNK N   1       2.950  -0.462  -0.210  0.00  0.00     0.333 A 
HETATM   12  O   UNK N   1       4.010   0.099  -0.445  0.00  0.00    -0.246 OA
HETATM   13  H   UNK N   1      -1.042  -2.924   0.906  0.00  0.00     0.167 HD
ENDROOT
BRANCH   1  14
HETATM   14  C   UNK N   1      -2.933  -1.019  -0.018  0.00  0.00     0.115 C 
BRANCH  14  15
HETATM   15  C   UNK N   1      -3.562   0.350   0.088  0.00  0.00    -0.051 A 
HETATM   16  C   UNK N   1      -2.814   1.488   0.426  0.00  0.00     0.010 A 
HETATM   17  C   UNK N   1      -3.411   2.746   0.465  0.00  0.00     0.030 A 
HETATM   18  C   UNK N   1      -4.769   2.895   0.175  0.00  0.00     0.034 A 
HETATM   19  C   UNK N   1      -5.525   1.755  -0.149  0.00  0.00     0.030 A 
HETATM   20  C   UNK N   1      -4.925   0.491  -0.190  0.00  0.00     0.010 A 
BRANCH  18  21
HETATM   21  N   UNK N   1      -5.320   4.210   0.195  0.00  0.00    -0.328 N 
HETATM   22  C   UNK N   1      -6.617   4.574   0.006  0.00  0.00     0.218 C 
HETATM   23  O   UNK N   1      -6.906   5.759   0.028  0.00  0.00    -0.274 OA
HETATM   24  C   UNK N   1      -7.712   3.580  -0.216  0.00  0.00     0.117 C 
HETATM   25  H   UNK N   1      -4.685   4.942   0.366  0.00  0.00     0.169 HD
ENDBRANCH  18  21
ENDBRANCH  14  15
ENDBRANCH   1  14
BRANCH   5  26
HETATM   26  C   UNK N   1       1.714   1.529  -1.060  0.00  0.00     0.135 C 
BRANCH  26  27
HETATM   27  C   UNK N   1       2.249   2.518  -0.034  0.00  0.00     0.020 C 
BRANCH  27  28
HETATM   28  C   UNK N   1       2.243   3.921  -0.598  0.00  0.00    -0.003 C 
HETATM   29  C   UNK N   1       3.171   4.791   0.224  0.00  0.00     0.005 C 
ENDBRANCH  27  28
ENDBRANCH  26  27
ENDBRANCH   5  26
BRANCH  10  30
HETATM   30  C   UNK N   1       4.237  -2.341   0.733  0.00  0.00     0.178 C 
BRANCH  30  31
HETATM   31  C   UNK N   1       4.543  -3.683   0.112  0.00  0.00    -0.001 A 
HETATM   32  C   UNK N   1       3.616  -4.368  -0.690  0.00  0.00     0.012 A 
HETATM   33  C   UNK N   1       3.922  -5.632  -1.204  0.00  0.00     0.001 A 
HETATM   34  C   UNK N   1       5.160  -6.218  -0.927  0.00  0.00     0.003 A 
HETATM   35  C   UNK N   1       6.095  -5.536  -0.146  0.00  0.00     0.043 A 
HETATM   36  C   UNK N   1       5.790  -4.274   0.373  0.00  0.00     0.124 A 
HETATM   37  F   UNK N   1       6.710  -3.629   1.133  0.00  0.00    -0.205 F 
ENDBRANCH  30  31
ENDBRANCH  10  30
TORSDOF 8
