REMARK  10 active torsions:
REMARK  status: ('A' for Active; 'I' for Inactive)
REMARK    1  A    between atoms: O_1  and  N_2 
REMARK       I    between atoms: N_2  and  C_3 
REMARK    2  A    between atoms: C_3  and  C_5 
REMARK    3  A    between atoms: C_5  and  C_6 
REMARK    4  A    between atoms: C_6  and  C_7 
REMARK    5  A    between atoms: C_6  and  C_25 
REMARK       I    between atoms: C_7  and  N_9 
REMARK    6  A    between atoms: C_10  and  N_9 
REMARK    7  A    between atoms: C_10  and  C_11 
REMARK    8  A    between atoms: C_10  and  C_15 
REMARK       I    between atoms: C_11  and  N_13 
REMARK    9  A    between atoms: C_15  and  C_16 
REMARK   10  A    between atoms: C_25  and  C_26 
ROOT
HETATM    1  C   UNK N   1       0.623   1.286  -1.153  0.00  0.00     0.180 C 
ENDROOT
BRANCH   1   2
HETATM    2  N   UNK N   1      -0.761   1.540  -1.538  0.00  0.00    -0.347 N 
HETATM    3  C   UNK N   1      -2.053   1.150  -1.313  0.00  0.00     0.223 C 
HETATM    4  O   UNK N   1      -2.919   1.788  -1.891  0.00  0.00    -0.273 OA
HETATM    5  H   UNK N   1      -0.768   2.260  -2.209  0.00  0.00     0.163 HD
BRANCH   3   6
HETATM    6  C   UNK N   1      -2.551   0.031  -0.399  0.00  0.00     0.087 C 
BRANCH   6   7
HETATM    7  C   UNK N   1      -3.220   0.629   0.852  0.00  0.00     0.119 C 
BRANCH   7   8
HETATM    8  C   UNK N   1      -4.443   1.442   0.537  0.00  0.00     0.241 C 
HETATM    9  N   UNK N   1      -4.435   2.775   0.759  0.00  0.00    -0.237 N 
HETATM   10  H   UNK N   1      -3.633   3.199   1.142  0.00  0.00     0.197 HD
HETATM   11  O   UNK N   1      -5.434   0.899   0.071  0.00  0.00    -0.271 OA
BRANCH   9  12
HETATM   12  O   UNK N   1      -5.504   3.528   0.464  0.00  0.00    -0.287 OA
HETATM   13  H   UNK N   1      -5.419   4.470   0.250  0.00  0.00     0.244 HD
ENDBRANCH   9  12
ENDBRANCH   7   8
ENDBRANCH   6   7
BRANCH   6  14
HETATM   14  C   UNK N   1      -1.549  -1.042   0.000  0.00  0.00     0.018 C 
BRANCH  14  15
HETATM   15  C   UNK N   1      -2.172  -2.209   0.769  0.00  0.00    -0.022 C 
HETATM   16  C   UNK N   1      -1.071  -3.121   1.263  0.00  0.00     0.009 C 
HETATM   17  C   UNK N   1      -3.110  -3.013  -0.114  0.00  0.00     0.009 C 
ENDBRANCH  14  15
ENDBRANCH   6  14
ENDBRANCH   3   6
ENDBRANCH   1   2
BRANCH   1  18
HETATM   18  C   UNK N   1       1.151   2.579  -0.587  0.00  0.00     0.240 C 
HETATM   19  O   UNK N   1       2.055   3.170  -1.162  0.00  0.00    -0.271 OA
HETATM   20  N   UNK N   1       0.592   3.101   0.533  0.00  0.00    -0.364 N 
HETATM   21  C   UNK N   1       1.024   4.361   1.083  0.00  0.00     0.149 C 
HETATM   22  H   UNK N   1      -0.129   2.604   0.983  0.00  0.00     0.161 HD
ENDBRANCH   1  18
BRANCH   1  23
HETATM   23  C   UNK N   1       0.919   0.128  -0.190  0.00  0.00     0.075 C 
BRANCH  23  24
HETATM   24  C   UNK N   1       2.383  -0.268  -0.184  0.00  0.00    -0.028 A 
HETATM   25  C   UNK N   1       3.463   0.506  -0.616  0.00  0.00     0.096 A 
HETATM   26  N   UNK N   1       4.614  -0.201  -0.504  0.00  0.00    -0.365 N 
HETATM   27  C   UNK N   1       4.266  -1.404  -0.015  0.00  0.00     0.042 A 
HETATM   28  H   UNK N   1       5.521   0.104  -0.734  0.00  0.00     0.165 HD
HETATM   29  C   UNK N   1       5.118  -2.472   0.247  0.00  0.00     0.030 A 
HETATM   30  C   UNK N   1       2.915  -1.479   0.194  0.00  0.00    -0.002 A 
HETATM   31  C   UNK N   1       4.547  -3.656   0.746  0.00  0.00     0.002 A 
HETATM   32  C   UNK N   1       3.153  -3.739   0.965  0.00  0.00     0.001 A 
HETATM   33  C   UNK N   1       2.318  -2.639   0.686  0.00  0.00     0.014 A 
ENDBRANCH  23  24
ENDBRANCH   1  23
TORSDOF 10
