REMARK  3 active torsions:
REMARK  status: ('A' for Active; 'I' for Inactive)
REMARK    1  A    between atoms: C_11  and  C_12 
REMARK    2  A    between atoms: C_12  and  C_13 
REMARK       I    between atoms: C_13  and  N_15 
REMARK    3  A    between atoms: N_15  and  O_16 
ROOT
HETATM    1  O   UNK N   1      -2.012   2.329   0.490  0.00  0.00    -0.272 OA
HETATM    2  C   UNK N   1      -0.980   1.729   0.224  0.00  0.00     0.236 C 
HETATM    3  N   UNK N   1       0.192   2.411   0.219  0.00  0.00    -0.325 N 
HETATM    4  C   UNK N   1       1.455   1.777   0.092  0.00  0.00     0.051 A 
HETATM    5  C   UNK N   1       2.571   2.548  -0.254  0.00  0.00     0.031 A 
HETATM    6  C   UNK N   1       3.829   1.952  -0.374  0.00  0.00     0.002 A 
HETATM    7  C   UNK N   1       3.979   0.582  -0.146  0.00  0.00     0.002 A 
HETATM    8  C   UNK N   1       2.874  -0.191   0.220  0.00  0.00     0.021 A 
HETATM    9  C   UNK N   1       1.611   0.398   0.344  0.00  0.00     0.028 A 
HETATM   10  S   UNK N   1       0.226  -0.607   0.910  0.00  0.00    -0.113 SA
HETATM   11  C   UNK N   1      -1.015   0.252  -0.111  0.00  0.00     0.153 C 
HETATM   12  H   UNK N   1       0.165   3.391   0.308  0.00  0.00     0.169 HD
ENDROOT
BRANCH  11  13
HETATM   13  C   UNK N   1      -2.422  -0.316   0.150  0.00  0.00     0.130 C 
BRANCH  13  14
HETATM   14  C   UNK N   1      -2.630  -1.782  -0.115  0.00  0.00     0.242 C 
HETATM   15  O   UNK N   1      -1.720  -2.481  -0.540  0.00  0.00    -0.271 OA
HETATM   16  N   UNK N   1      -3.840  -2.326   0.138  0.00  0.00    -0.237 N 
HETATM   17  H   UNK N   1      -4.567  -1.754   0.476  0.00  0.00     0.197 HD
BRANCH  16  18
HETATM   18  O   UNK N   1      -4.069  -3.630  -0.065  0.00  0.00    -0.287 OA
HETATM   19  H   UNK N   1      -4.969  -3.959  -0.212  0.00  0.00     0.244 HD
ENDBRANCH  16  18
ENDBRANCH  13  14
ENDBRANCH  11  13
TORSDOF 3
