REMARK  11 active torsions:
REMARK  status: ('A' for Active; 'I' for Inactive)
REMARK    1  A    between atoms: C_1  and  O_2 
REMARK    2  A    between atoms: C_1  and  C_3 
REMARK    3  A    between atoms: P_12  and  O_2 
REMARK    4  A    between atoms: C_4  and  C_6 
REMARK    5  A    between atoms: C_6  and  C_7 
REMARK    6  A    between atoms: C_7  and  C_8 
REMARK    7  A    between atoms: P_12  and  O_14 
REMARK    8  A    between atoms: P_12  and  O_15 
REMARK    9  A    between atoms: O_15  and  P_16 
REMARK   10  A    between atoms: P_16  and  O_18 
REMARK   11  A    between atoms: P_16  and  O_19 
ROOT
HETATM    1  O   UNK N   1       0.553  -2.124  -1.046  0.00  0.00    -0.293 OA
ENDROOT
BRANCH   1   2
HETATM    2  C   UNK N   1      -0.524  -2.787  -0.450  0.00  0.00     0.208 C 
BRANCH   2   3
HETATM    3  C   UNK N   1      -1.768  -1.944  -0.395  0.00  0.00     0.002 C 
HETATM    4  C   UNK N   1      -1.833  -0.702   0.105  0.00  0.00    -0.085 C 
HETATM    5  C   UNK N   1      -0.627  -0.005   0.652  0.00  0.00     0.043 C 
BRANCH   4   6
HETATM    6  C   UNK N   1      -3.172  -0.035   0.205  0.00  0.00     0.037 C 
BRANCH   6   7
HETATM    7  C   UNK N   1      -3.375   1.095  -0.798  0.00  0.00     0.031 C 
BRANCH   7   8
HETATM    8  C   UNK N   1      -2.396   2.214  -0.609  0.00  0.00    -0.024 C 
HETATM    9  C   UNK N   1      -2.747   3.421  -0.153  0.00  0.00    -0.091 C 
HETATM   10  C   UNK N   1      -4.156   3.737   0.236  0.00  0.00     0.042 C 
HETATM   11  C   UNK N   1      -1.705   4.475  -0.022  0.00  0.00     0.042 C 
ENDBRANCH   7   8
ENDBRANCH   6   7
ENDBRANCH   4   6
ENDBRANCH   2   3
ENDBRANCH   1   2
BRANCH   1  12
HETATM   12  P   UNK N   1       1.903  -2.434   0.017  0.00  0.00     0.402 P 
HETATM   13  O   UNK N   1       1.969  -3.967   0.263  0.00  0.00    -0.631 OA
BRANCH  12  14
HETATM   14  O   UNK N   1       1.675  -1.666   1.560  0.00  0.00    -0.307 OA
HETATM   15  H   UNK N   1       1.982  -1.342   2.421  0.00  0.00     0.222 HD
ENDBRANCH  12  14
BRANCH  12  16
HETATM   16  O   UNK N   1       3.413  -1.984  -0.737  0.00  0.00    -0.195 OA
BRANCH  16  17
HETATM   17  P   UNK N   1       4.532  -1.675   0.563  0.00  0.00     0.399 P 
HETATM   18  O   UNK N   1       5.934  -1.330  -0.006  0.00  0.00    -0.631 OA
BRANCH  17  19
HETATM   19  O   UNK N   1       4.999  -3.137  -0.250  0.00  0.00    -0.307 OA
HETATM   20  H   UNK N   1       4.423  -3.771  -0.705  0.00  0.00     0.222 HD
ENDBRANCH  17  19
BRANCH  17  21
HETATM   21  O   UNK N   1       4.251  -0.219  -0.342  0.00  0.00    -0.307 OA
HETATM   22  H   UNK N   1       4.877   0.323  -0.848  0.00  0.00     0.222 HD
ENDBRANCH  17  21
ENDBRANCH  16  17
ENDBRANCH  12  16
ENDBRANCH   1  12
TORSDOF 11
