REMARK  5 active torsions:
REMARK  status: ('A' for Active; 'I' for Inactive)
REMARK    1  A    between atoms: C_8  and  N_11 
REMARK       I    between atoms: N_11  and  C_14 
REMARK    2  A    between atoms: C_13  and  N_12 
REMARK    3  A    between atoms: C_13  and  C_14 
REMARK    4  A    between atoms: C_13  and  C_16 
REMARK    5  A    between atoms: C_16  and  C_17 
ROOT
HETATM    1  N   UNK N   1      -0.479  -1.224   0.069  0.00  0.00    -0.325 N 
HETATM    2  C   UNK N   1       0.776  -0.762  -0.209  0.00  0.00     0.244 C 
HETATM    3  O   UNK N   1       0.984   0.434  -0.348  0.00  0.00    -0.271 OA
HETATM    4  H   UNK N   1      -0.583  -2.189   0.232  0.00  0.00     0.169 HD
ENDROOT
BRANCH   2   5
HETATM    5  C   UNK N   1       1.890  -1.752  -0.455  0.00  0.00     0.173 C 
BRANCH   5   6
HETATM    6  N   UNK N   1       1.444  -2.712  -1.450  0.00  0.00    -0.418 N 
HETATM    7  H   UNK N   1       0.704  -2.778  -2.149  0.00  0.00     0.150 HD
HETATM    8  H   UNK N   1       2.031  -3.547  -1.450  0.00  0.00     0.150 HD
ENDBRANCH   5   6
BRANCH   5   9
HETATM    9  C   UNK N   1       3.115  -1.027  -1.034  0.00  0.00     0.092 C 
BRANCH   9  10
HETATM   10  C   UNK N   1       4.365  -1.023  -0.214  0.00  0.00     0.028 A 
HETATM   11  N   UNK N   1       5.412  -0.232  -0.497  0.00  0.00    -0.354 N 
HETATM   12  C   UNK N   1       6.339  -0.528   0.434  0.00  0.00     0.180 A 
HETATM   13  H   UNK N   1       5.487   0.423  -1.229  0.00  0.00     0.166 HD
HETATM   14  N   UNK N   1       5.904  -1.483   1.284  0.00  0.00    -0.360 N 
HETATM   15  C   UNK N   1       4.660  -1.800   0.881  0.00  0.00     0.114 A 
ATOM     16  HN  UNK N   1       6.415  -1.882   2.072  1.00  0.00     0.166 HD
ENDBRANCH   9  10
ENDBRANCH   5   9
ENDBRANCH   2   5
BRANCH   1  17
HETATM   17  C   UNK N   1      -1.649  -0.411   0.138  0.00  0.00     0.035 A 
HETATM   18  C   UNK N   1      -1.575   0.992   0.161  0.00  0.00     0.042 A 
HETATM   19  C   UNK N   1      -2.732   1.764   0.083  0.00  0.00    -0.024 A 
HETATM   20  C   UNK N   1      -2.644   3.158   0.086  0.00  0.00     0.012 A 
HETATM   21  C   UNK N   1      -3.990   1.135  -0.029  0.00  0.00    -0.026 A 
HETATM   22  C   UNK N   1      -3.804   3.929  -0.033  0.00  0.00     0.001 A 
HETATM   23  C   UNK N   1      -5.051   3.307  -0.156  0.00  0.00     0.001 A 
HETATM   24  C   UNK N   1      -5.146   1.911  -0.150  0.00  0.00     0.012 A 
HETATM   25  C   UNK N   1      -4.071  -0.260  -0.028  0.00  0.00     0.014 A 
HETATM   26  C   UNK N   1      -2.904  -1.029   0.055  0.00  0.00     0.030 A 
ENDBRANCH   1  17
TORSDOF 5
