REMARK  3 active torsions:
REMARK  status: ('A' for Active; 'I' for Inactive)
REMARK    1  A    between atoms: C_7  and  O_1 
REMARK    2  A    between atoms: N_3  and  O_12 
REMARK    3  A    between atoms: C_13  and  O_14 
ROOT
HETATM    1  C   UNK N   1      -2.372  -0.838   0.044  0.00  0.00     0.303 A 
HETATM    2  N   UNK N   1      -1.210  -1.535  -0.066  0.00  0.00    -0.184 N 
HETATM    3  C   UNK N   1       0.035  -0.855  -0.071  0.00  0.00     0.099 A 
HETATM    4  C   UNK N   1       0.055   0.544  -0.000  0.00  0.00     0.104 A 
HETATM    5  O   UNK N   1      -1.101   1.242   0.086  0.00  0.00    -0.309 OA
HETATM    6  C   UNK N   1      -2.369   0.676   0.145  0.00  0.00     0.360 A 
HETATM    7  C   UNK N   1       1.241  -1.565  -0.131  0.00  0.00     0.038 A 
HETATM    8  C   UNK N   1       2.460  -0.882  -0.120  0.00  0.00     0.039 A 
HETATM    9  C   UNK N   1       1.275   1.226   0.001  0.00  0.00     0.076 A 
HETATM   10  O   UNK N   1      -3.439  -1.434   0.072  0.00  0.00    -0.265 OA
HETATM   11  C   UNK N   1       2.487   0.515  -0.058  0.00  0.00     0.070 A 
ENDROOT
BRANCH   2  12
HETATM   12  O   UNK N   1      -1.240  -2.875  -0.152  0.00  0.00    -0.280 OA
HETATM   13  H   UNK N   1      -2.089  -3.340  -0.214  0.00  0.00     0.245 HD
ENDBRANCH   2  12
BRANCH   6  14
HETATM   14  O   UNK N   1      -3.148   1.206  -0.884  0.00  0.00    -0.363 OA
HETATM   15  H   UNK N   1      -3.100   1.860  -1.599  0.00  0.00     0.213 HD
ENDBRANCH   6  14
BRANCH  11  16
HETATM   16  O   UNK N   1       3.683   1.150  -0.053  0.00  0.00    -0.356 OA
HETATM   17  C   UNK N   1       3.809   2.520  -0.014  0.00  0.00     0.210 C 
ENDBRANCH  11  16
TORSDOF 3
