REMARK  5 active torsions:
REMARK  status: ('A' for Active; 'I' for Inactive)
REMARK    1  A    between atoms: C_2  and  O_1 
REMARK    2  A    between atoms: C_2  and  C_3 
REMARK    3  A    between atoms: C_2  and  C_5 
REMARK    4  A    between atoms: C_3  and  O_12 
REMARK    5  A    between atoms: C_5  and  C_6 
ROOT
HETATM    1  C   UNK N   1       1.014   1.551   0.045  0.00  0.00     0.219 C 
ENDROOT
BRANCH   1   2
HETATM    2  O   UNK N   1       0.322   2.204  -0.978  0.00  0.00    -0.385 OA
HETATM    3  H   UNK N   1       0.474   2.846  -1.688  0.00  0.00     0.210 HD
ENDBRANCH   1   2
BRANCH   1   4
HETATM    4  C   UNK N   1       2.427   2.070   0.100  0.00  0.00     0.170 C 
HETATM    5  O   UNK N   1       2.631   3.254   0.310  0.00  0.00    -0.648 OA
BRANCH   4   6
HETATM    6  O   UNK N   1       3.476   1.237  -0.070  0.00  0.00    -0.774 OA
HETATM    7  H   UNK N   1       3.339   0.317  -0.187  0.00  0.00     0.167 HD
ENDBRANCH   4   6
ENDBRANCH   1   4
BRANCH   1   8
HETATM    8  C   UNK N   1       1.015   0.038  -0.198  0.00  0.00     0.081 C 
BRANCH   8   9
HETATM    9  C   UNK N   1      -0.309  -0.670  -0.126  0.00  0.00    -0.055 A 
HETATM   10  C   UNK N   1      -0.307  -2.069  -0.138  0.00  0.00     0.007 A 
HETATM   11  C   UNK N   1      -1.506  -2.780  -0.048  0.00  0.00     0.001 A 
HETATM   12  C   UNK N   1      -2.719  -2.093   0.050  0.00  0.00     0.000 A 
HETATM   13  C   UNK N   1      -2.731  -0.695   0.058  0.00  0.00     0.001 A 
HETATM   14  C   UNK N   1      -1.529   0.017  -0.025  0.00  0.00     0.007 A 
ENDBRANCH   8   9
ENDBRANCH   1   8
TORSDOF 5
