REMARK  1 active torsions:
REMARK  status: ('A' for Active; 'I' for Inactive)
REMARK    1  A    between atoms: C_2  and  O_19 
ROOT
HETATM    1  C   UNK N   1      -3.867  -0.965  -0.717  0.00  0.00     0.033 C 
HETATM    2  C   UNK N   1      -3.814  -2.160   0.236  0.00  0.00     0.122 C 
HETATM    3  C   UNK N   1      -2.595  -3.039  -0.031  0.00  0.00     0.066 C 
HETATM    4  C   UNK N   1      -1.326  -2.227  -0.070  0.00  0.00    -0.072 C 
HETATM    5  C   UNK N   1      -1.399  -0.709   0.082  0.00  0.00    -0.017 C 
HETATM    6  C   UNK N   1      -2.547  -0.172  -0.794  0.00  0.00     0.016 C 
HETATM    7  C   UNK N   1      -0.161  -2.877  -0.224  0.00  0.00    -0.023 C 
HETATM    8  C   UNK N   1       1.182  -2.191  -0.239  0.00  0.00     0.033 C 
HETATM    9  C   UNK N   1       1.140  -0.742   0.265  0.00  0.00    -0.001 C 
HETATM   10  C   UNK N   1      -0.077  -0.026  -0.371  0.00  0.00     0.003 C 
HETATM   11  C   UNK N   1       2.424  -0.008  -0.159  0.00  0.00     0.001 C 
HETATM   12  C   UNK N   1       2.404   1.461   0.248  0.00  0.00    -0.014 C 
HETATM   13  C   UNK N   1       1.241   2.171  -0.449  0.00  0.00     0.012 C 
HETATM   14  C   UNK N   1      -0.085   1.492  -0.064  0.00  0.00     0.007 C 
HETATM   15  C   UNK N   1       3.742  -0.500   0.411  0.00  0.00     0.008 C 
HETATM   16  C   UNK N   1       4.679   0.713   0.265  0.00  0.00     0.033 C 
HETATM   17  C   UNK N   1       3.805   1.907  -0.160  0.00  0.00     0.126 C 
HETATM   18  C   UNK N   1      -1.699  -0.394   1.549  0.00  0.00     0.020 C 
HETATM   19  C   UNK N   1       2.268   1.658   1.766  0.00  0.00     0.018 C 
HETATM   20  O   UNK N   1       3.897   2.045  -1.550  0.00  0.00    -0.395 OA
HETATM   21  H   UNK N   1       4.012   2.038  -2.513  0.00  0.00     0.210 HD
ENDROOT
BRANCH   2  22
HETATM   22  O   UNK N   1      -4.980  -2.914   0.113  0.00  0.00    -0.395 OA
HETATM   23  H   UNK N   1      -5.840  -2.474   0.027  0.00  0.00     0.210 HD
ENDBRANCH   2  22
TORSDOF 1
