REMARK  6 active torsions:
REMARK  status: ('A' for Active; 'I' for Inactive)
REMARK    1  A    between atoms: C_3  and  O_4 
REMARK    2  A    between atoms: C_10  and  O_11 
REMARK    3  A    between atoms: C_15  and  C_17 
REMARK    4  A    between atoms: C_17  and  C_18 
REMARK    5  A    between atoms: C_18  and  C_19 
REMARK    6  A    between atoms: C_19  and  O_21 
ROOT
HETATM    1  C   UNK N   1      -2.864  -0.195   0.000  0.00  0.00     0.013 A 
HETATM    2  C   UNK N   1      -4.025   0.582   0.001  0.00  0.00     0.037 A 
HETATM    3  C   UNK N   1      -3.934   1.976  -0.001  0.00  0.00     0.068 A 
HETATM    4  C   UNK N   1      -2.681   2.595  -0.003  0.00  0.00     0.074 A 
HETATM    5  C   UNK N   1      -1.512   1.826  -0.004  0.00  0.00     0.085 A 
HETATM    6  O   UNK N   1      -0.308   2.450  -0.006  0.00  0.00    -0.310 OA
HETATM    7  C   UNK N   1       0.888   1.803  -0.002  0.00  0.00     0.085 A 
HETATM    8  C   UNK N   1       2.070   2.553  -0.001  0.00  0.00     0.074 A 
HETATM    9  C   UNK N   1       3.313   1.913   0.003  0.00  0.00     0.068 A 
HETATM   10  C   UNK N   1       3.380   0.522   0.008  0.00  0.00     0.037 A 
HETATM   11  C   UNK N   1       2.208  -0.229   0.007  0.00  0.00     0.013 A 
HETATM   12  C   UNK N   1       0.951   0.394   0.001  0.00  0.00    -0.015 A 
HETATM   13  C   UNK N   1      -0.341  -0.399  -0.005  0.00  0.00     0.058 A 
HETATM   14  C   UNK N   1      -1.604   0.418  -0.003  0.00  0.00    -0.015 A 
ENDROOT
BRANCH  13  15
HETATM   15  C   UNK N   1      -0.460  -1.940   0.020  0.00  0.00     0.025 C 
BRANCH  15  16
HETATM   16  C   UNK N   1       0.875  -2.671  -0.023  0.00  0.00     0.111 C 
BRANCH  16  17
HETATM   17  C   UNK N   1       0.767  -4.159  -0.004  0.00  0.00     0.139 C 
HETATM   18  O   UNK N   1       1.787  -4.827  -0.010  0.00  0.00    -0.650 OA
BRANCH  17  19
HETATM   19  O   UNK N   1      -0.433  -4.769   0.017  0.00  0.00    -0.776 OA
HETATM   20  H   UNK N   1      -1.218  -4.259   0.032  0.00  0.00     0.167 HD
ENDBRANCH  17  19
ENDBRANCH  16  17
ENDBRANCH  15  16
ENDBRANCH  13  15
BRANCH   9  21
HETATM   21  O   UNK N   1       4.444   2.636   0.003  0.00  0.00    -0.361 OA
HETATM   22  H   UNK N   1       5.276   2.205   0.003  0.00  0.00     0.217 HD
ENDBRANCH   9  21
BRANCH   3  23
HETATM   23  O   UNK N   1      -5.051   2.722   0.000  0.00  0.00    -0.361 OA
HETATM   24  H   UNK N   1      -4.990   3.657   0.001  0.00  0.00     0.217 HD
ENDBRANCH   3  23
TORSDOF 6
