REMARK  8 active torsions:
REMARK  status: ('A' for Active; 'I' for Inactive)
REMARK    1  A    between atoms: C_3  and  C_8 
REMARK    2  A    between atoms: C_8  and  C_9 
REMARK       I    between atoms: C_9  and  N_10 
REMARK    3  A    between atoms: N_10  and  C_11 
REMARK    4  A    between atoms: C_15  and  S_20 
REMARK    5  A    between atoms: S_20  and  N_21 
REMARK    6  A    between atoms: N_21  and  C_22 
REMARK    7  A    between atoms: C_22  and  C_23 
REMARK    8  A    between atoms: C_23  and  O_24 
ROOT
HETATM    1  C   UNK N   1      -0.269   1.235  -0.442  0.00  0.00     0.035 A 
HETATM    2  C   UNK N   1       0.854   1.901   0.048  0.00  0.00     0.038 A 
HETATM    3  C   UNK N   1       2.094   1.264   0.064  0.00  0.00    -0.036 A 
HETATM    4  C   UNK N   1       2.201  -0.076  -0.372  0.00  0.00     0.091 A 
HETATM    5  C   UNK N   1       1.068  -0.719  -0.916  0.00  0.00    -0.036 A 
HETATM    6  C   UNK N   1      -0.154  -0.061  -0.932  0.00  0.00     0.038 A 
HETATM    7  C   UNK N   1       1.102  -2.126  -1.403  0.00  0.00     0.050 C 
HETATM    8  C   UNK N   1       3.261   2.002   0.626  0.00  0.00     0.050 C 
ENDROOT
BRANCH   1   9
HETATM    9  N   UNK N   1      -1.560   1.693  -0.115  0.00  0.00    -0.327 N 
HETATM   10  C   UNK N   1      -2.012   1.525   1.160  0.00  0.00     0.226 C 
HETATM   11  O   UNK N   1      -1.282   1.082   2.032  0.00  0.00    -0.273 OA
HETATM   12  H   UNK N   1      -2.126   2.126  -0.794  0.00  0.00     0.169 HD
BRANCH  10  13
HETATM   13  C   UNK N   1      -3.452   1.742   1.468  0.00  0.00     0.142 C 
BRANCH  13  14
HETATM   14  C   UNK N   1      -4.258   0.781   0.648  0.00  0.00    -0.043 A 
HETATM   15  C   UNK N   1      -5.155   1.253  -0.324  0.00  0.00    -0.055 A 
HETATM   16  C   UNK N   1      -5.869   0.344  -1.110  0.00  0.00     0.007 A 
HETATM   17  C   UNK N   1      -5.348   2.715  -0.544  0.00  0.00     0.049 C 
HETATM   18  C   UNK N   1      -5.694  -1.032  -0.934  0.00  0.00     0.001 A 
HETATM   19  C   UNK N   1      -4.805  -1.506   0.034  0.00  0.00     0.001 A 
HETATM   20  C   UNK N   1      -4.089  -0.603   0.824  0.00  0.00     0.008 A 
ENDBRANCH  13  14
ENDBRANCH  10  13
ENDBRANCH   1   9
BRANCH   4  21
HETATM   21  S   UNK N   1       3.745  -0.975  -0.129  0.00  0.00     0.260 S 
HETATM   22  O   UNK N   1       3.581  -2.504  -0.172  0.00  0.00    -0.200 OA
HETATM   23  O   UNK N   1       4.219  -0.779   1.320  0.00  0.00    -0.200 OA
BRANCH  21  24
HETATM   24  N   UNK N   1       5.158  -0.577  -1.121  0.00  0.00    -0.305 N 
HETATM   25  H   UNK N   1       5.288   0.288  -1.646  0.00  0.00     0.172 HD
BRANCH  24  26
HETATM   26  C   UNK N   1       6.107  -1.684  -1.066  0.00  0.00     0.242 C 
BRANCH  26  27
HETATM   27  C   UNK N   1       6.861  -1.675   0.225  0.00  0.00     0.158 C 
HETATM   28  O   UNK N   1       6.777  -2.624   0.986  0.00  0.00    -0.649 OA
BRANCH  27  29
HETATM   29  O   UNK N   1       7.624  -0.616   0.554  0.00  0.00    -0.775 OA
HETATM   30  H   UNK N   1       8.528  -0.707   0.784  0.00  0.00     0.167 HD
ENDBRANCH  27  29
ENDBRANCH  26  27
ENDBRANCH  24  26
ENDBRANCH  21  24
ENDBRANCH   4  21
TORSDOF 8
