REMARK  5 active torsions:
REMARK  status: ('A' for Active; 'I' for Inactive)
REMARK    1  A    between atoms: B_1  and  O_2 
REMARK    2  A    between atoms: B_1  and  O_3 
REMARK    3  A    between atoms: B_1  and  C_4 
REMARK    4  A    between atoms: C_8  and  N_10 
REMARK       I    between atoms: N_10  and  C_11 
REMARK    5  A    between atoms: C_11  and  C_13 
ROOT
HETATM    1  C   UNK N   1       2.126   0.014   0.136  0.00  0.00    -0.030 A 
HETATM    2  C   UNK N   1       2.186  -1.377   0.003  0.00  0.00     0.001 A 
HETATM    3  C   UNK N   1       1.007  -2.122  -0.092  0.00  0.00     0.002 A 
HETATM    4  C   UNK N   1      -0.233  -1.476  -0.064  0.00  0.00     0.029 A 
HETATM    5  C   UNK N   1      -0.303  -0.079   0.072  0.00  0.00     0.034 A 
HETATM    6  C   UNK N   1       0.883   0.656   0.175  0.00  0.00     0.030 A 
ENDROOT
BRANCH   5   7
HETATM    7  N   UNK N   1      -1.541   0.629   0.069  0.00  0.00    -0.327 N 
HETATM    8  C   UNK N   1      -2.764   0.102  -0.216  0.00  0.00     0.231 C 
HETATM    9  O   UNK N   1      -2.894  -1.073  -0.512  0.00  0.00    -0.272 OA
HETATM   10  H   UNK N   1      -1.509   1.587   0.293  0.00  0.00     0.169 HD
BRANCH   8  11
HETATM   11  C   UNK N   1      -3.950   1.013  -0.268  0.00  0.00     0.182 C 
HETATM   12  I   UNK N   1      -5.682   0.153   0.647  0.00  0.00    -0.080 I 
ENDBRANCH   8  11
ENDBRANCH   5   7
BRANCH   1  13
HETATM   13  B   UNK N   1       3.439   0.861   0.221  0.00  0.00     0.529 B 
BRANCH  13  14
HETATM   14  O   UNK N   1       4.743   0.208   0.145  0.00  0.00    -0.433 OA
HETATM   15  H   UNK N   1       4.801  -0.759   0.095  0.00  0.00     0.185 HD
ENDBRANCH  13  14
BRANCH  13  16
HETATM   16  O   UNK N   1       3.364   2.315   0.340  0.00  0.00    -0.433 OA
HETATM   17  H   UNK N   1       4.176   2.841   0.419  0.00  0.00     0.185 HD
ENDBRANCH  13  16
ENDBRANCH   1  13
TORSDOF 5
