REMARK  5 active torsions:
REMARK  status: ('A' for Active; 'I' for Inactive)
REMARK    1  A    between atoms: C_4  and  C_8 
REMARK    2  A    between atoms: C_8  and  C_9 
REMARK    3  A    between atoms: C_9  and  C_10 
REMARK       I    between atoms: C_10  and  N_12 
REMARK    4  A    between atoms: N_12  and  C_14 
REMARK    5  A    between atoms: C_14  and  C_15 
ROOT
HETATM    1  C   UNK N   1       1.372   2.824  -0.098  0.00  0.00     0.075 C 
ENDROOT
BRANCH   1   2
HETATM    2  C   UNK N   1       0.091   2.787   0.147  0.00  0.00     0.018 C 
BRANCH   2   3
HETATM    3  C   UNK N   1      -1.295   2.795   0.424  0.00  0.00    -0.020 A 
HETATM    4  C   UNK N   1      -1.997   1.604   0.319  0.00  0.00     0.023 A 
HETATM    5  C   UNK N   1      -3.360   1.650   0.132  0.00  0.00    -0.013 A 
HETATM    6  C   UNK N   1      -3.998   2.898   0.033  0.00  0.00     0.114 A 
HETATM    7  C   UNK N   1      -4.137   0.393  -0.062  0.00  0.00     0.051 C 
HETATM    8  N   UNK N   1      -3.284   4.047   0.153  0.00  0.00    -0.351 N 
HETATM    9  N   UNK N   1      -5.396   2.956  -0.135  0.00  0.00    -0.313 N 
HETATM   10  C   UNK N   1      -1.944   4.015   0.330  0.00  0.00     0.101 A 
ATOM     11  HN  UNK N   1      -3.765   4.946   0.108  1.00  0.00     0.166 HD
HETATM   12  C   UNK N   1      -6.158   1.856   0.076  0.00  0.00     0.223 C 
HETATM   13  H   UNK N   1      -5.821   3.801  -0.407  0.00  0.00     0.170 HD
HETATM   14  C   UNK N   1      -5.532   0.556   0.523  0.00  0.00     0.108 C 
HETATM   15  O   UNK N   1      -7.368   1.940  -0.010  0.00  0.00    -0.273 OA
ENDBRANCH   2   3
ENDBRANCH   1   2
BRANCH   1  16
HETATM   16  C   UNK N   1       1.985   1.618  -0.641  0.00  0.00     0.243 C 
HETATM   17  O   UNK N   1       3.165   1.643  -0.939  0.00  0.00    -0.268 OA
HETATM   18  N   UNK N   1       1.305   0.443  -0.667  0.00  0.00    -0.349 N 
HETATM   19  C   UNK N   1       0.142   0.354  -1.519  0.00  0.00     0.153 C 
BRANCH  18  20
HETATM   20  C   UNK N   1       1.093  -0.167   0.618  0.00  0.00     0.166 C 
BRANCH  20  21
HETATM   21  C   UNK N   1       1.722  -1.478   0.517  0.00  0.00    -0.012 A 
HETATM   22  C   UNK N   1       1.062  -2.681   0.349  0.00  0.00     0.100 A 
HETATM   23  N   UNK N   1       1.981  -3.629   0.076  0.00  0.00    -0.360 N 
HETATM   24  C   UNK N   1       3.190  -3.033   0.062  0.00  0.00     0.044 A 
HETATM   25  C   UNK N   1       1.678  -5.016  -0.219  0.00  0.00     0.155 C 
HETATM   26  C   UNK N   1       3.059  -1.707   0.338  0.00  0.00    -0.000 A 
HETATM   27  C   UNK N   1       4.430  -3.595  -0.229  0.00  0.00     0.030 A 
HETATM   28  C   UNK N   1       4.144  -0.833   0.345  0.00  0.00     0.014 A 
HETATM   29  C   UNK N   1       5.411  -1.366   0.064  0.00  0.00     0.001 A 
HETATM   30  C   UNK N   1       5.553  -2.743  -0.223  0.00  0.00     0.002 A 
ENDBRANCH  20  21
ENDBRANCH  18  20
ENDBRANCH   1  16
TORSDOF 5
