REMARK  13 active torsions:
REMARK  status: ('A' for Active; 'I' for Inactive)
REMARK    1  A    between atoms: C_1  and  C_2 
REMARK    2  A    between atoms: C_1  and  C_4 
REMARK    3  A    between atoms: C_1  and  N_11 
REMARK    4  A    between atoms: C_2  and  O_3 
REMARK    5  A    between atoms: C_4  and  C_5 
REMARK       I    between atoms: N_11  and  C_13 
REMARK    6  A    between atoms: C_12  and  C_13 
REMARK    7  A    between atoms: C_12  and  C_15 
REMARK    8  A    between atoms: C_12  and  N_18 
REMARK       I    between atoms: N_18  and  C_19 
REMARK    9  A    between atoms: C_19  and  C_21 
REMARK   10  A    between atoms: C_21  and  N_23 
REMARK       I    between atoms: N_23  and  C_24 
REMARK   11  A    between atoms: C_24  and  O_26 
REMARK   12  A    between atoms: O_26  and  C_27 
REMARK   13  A    between atoms: C_27  and  C_28 
ROOT
HETATM    1  C   UNK N   1      -0.336  -1.396   0.423  0.00  0.00     0.180 C 
ENDROOT
BRANCH   1   2
HETATM    2  C   UNK N   1      -1.360  -0.316   0.665  0.00  0.00     0.241 C 
HETATM    3  N   UNK N   1      -2.109   0.150  -0.364  0.00  0.00    -0.352 N 
HETATM    4  H   UNK N   1      -1.841  -0.089  -1.281  0.00  0.00     0.163 HD
HETATM    5  O   UNK N   1      -1.548   0.085   1.806  0.00  0.00    -0.271 OA
BRANCH   3   6
HETATM    6  C   UNK N   1      -3.281   0.979  -0.187  0.00  0.00     0.112 C 
BRANCH   6   7
HETATM    7  C   UNK N   1      -3.040   2.366  -0.767  0.00  0.00     0.189 C 
BRANCH   7   8
HETATM    8  O   UNK N   1      -2.089   3.049  -0.007  0.00  0.00    -0.399 OA
HETATM    9  H   UNK N   1      -1.348   2.714   0.522  0.00  0.00     0.209 HD
ENDBRANCH   7   8
ENDBRANCH   6   7
BRANCH   6  10
HETATM   10  C   UNK N   1      -4.410   0.280  -0.936  0.00  0.00     0.065 C 
BRANCH  10  11
HETATM   11  C   UNK N   1      -5.781   0.680  -0.506  0.00  0.00    -0.056 A 
HETATM   12  C   UNK N   1      -6.633  -0.294   0.024  0.00  0.00     0.007 A 
HETATM   13  C   UNK N   1      -7.932   0.045   0.409  0.00  0.00     0.001 A 
HETATM   14  C   UNK N   1      -8.383   1.360   0.262  0.00  0.00     0.000 A 
HETATM   15  C   UNK N   1      -7.533   2.336  -0.271  0.00  0.00     0.001 A 
HETATM   16  C   UNK N   1      -6.233   1.996  -0.658  0.00  0.00     0.007 A 
ENDBRANCH  10  11
ENDBRANCH   6  10
ENDBRANCH   3   6
ENDBRANCH   1   2
BRANCH   1  17
HETATM   17  C   UNK N   1      -1.092  -2.654  -0.064  0.00  0.00     0.009 C 
HETATM   18  C   UNK N   1      -0.163  -3.831  -0.302  0.00  0.00     0.012 C 
HETATM   19  C   UNK N   1      -2.218  -3.091   0.863  0.00  0.00     0.012 C 
ENDBRANCH   1  17
BRANCH   1  20
HETATM   20  N   UNK N   1       0.638  -1.064  -0.610  0.00  0.00    -0.346 N 
HETATM   21  C   UNK N   1       1.372   0.062  -0.848  0.00  0.00     0.240 C 
HETATM   22  O   UNK N   1       2.128   0.050  -1.808  0.00  0.00    -0.271 OA
HETATM   23  H   UNK N   1       0.796  -1.788  -1.257  0.00  0.00     0.163 HD
BRANCH  21  24
HETATM   24  C   UNK N   1       1.214   1.365  -0.080  0.00  0.00     0.174 C 
HETATM   25  C   UNK N   1       0.652   2.372  -1.070  0.00  0.00     0.042 C 
BRANCH  24  26
HETATM   26  N   UNK N   1       2.436   1.948   0.468  0.00  0.00    -0.324 N 
HETATM   27  C   UNK N   1       3.678   1.404   0.558  0.00  0.00     0.361 C 
HETATM   28  O   UNK N   1       4.605   2.114   0.930  0.00  0.00    -0.238 OA
HETATM   29  H   UNK N   1       2.347   2.862   0.823  0.00  0.00     0.165 HD
BRANCH  27  30
HETATM   30  O   UNK N   1       3.910   0.111   0.252  0.00  0.00    -0.299 OA
BRANCH  30  31
HETATM   31  C   UNK N   1       4.785  -0.240  -0.753  0.00  0.00     0.219 C 
BRANCH  31  32
HETATM   32  C   UNK N   1       6.135  -0.631  -0.268  0.00  0.00    -0.034 A 
HETATM   33  C   UNK N   1       7.091   0.352   0.009  0.00  0.00     0.009 A 
HETATM   34  C   UNK N   1       8.398  -0.016   0.339  0.00  0.00     0.001 A 
HETATM   35  C   UNK N   1       8.754  -1.368   0.380  0.00  0.00     0.000 A 
HETATM   36  C   UNK N   1       7.802  -2.351   0.097  0.00  0.00     0.001 A 
HETATM   37  C   UNK N   1       6.495  -1.982  -0.238  0.00  0.00     0.009 A 
ENDBRANCH  31  32
ENDBRANCH  30  31
ENDBRANCH  27  30
ENDBRANCH  24  26
ENDBRANCH  21  24
ENDBRANCH   1  20
TORSDOF 13
