REMARK  5 active torsions:
REMARK  status: ('A' for Active; 'I' for Inactive)
REMARK    1  A    between atoms: C_3  and  S_11 
REMARK    2  A    between atoms: C_6  and  C_7 
REMARK       I    between atoms: C_7  and  N_9 
REMARK    3  A    between atoms: N_9  and  C_10 
REMARK    4  A    between atoms: C_10  and  C_15 
REMARK    5  A    between atoms: S_11  and  N_12 
ROOT
HETATM    1  C   UNK N   1      -1.525  -0.908  -0.011  0.00  0.00     0.251 C 
HETATM    2  O   UNK N   1      -2.578  -1.350  -0.461  0.00  0.00    -0.268 OA
HETATM    3  N   UNK N   1      -1.509   0.153   0.815  0.00  0.00    -0.353 N 
HETATM    4  H   UNK N   1      -0.635   0.395   1.199  0.00  0.00     0.163 HD
ENDROOT
BRANCH   1   5
HETATM    5  C   UNK N   1      -0.238  -1.556  -0.270  0.00  0.00     0.032 A 
HETATM    6  C   UNK N   1       0.914  -0.854   0.114  0.00  0.00     0.018 A 
HETATM    7  C   UNK N   1       2.149  -1.468   0.114  0.00  0.00     0.026 A 
HETATM    8  C   UNK N   1       2.257  -2.799  -0.259  0.00  0.00     0.079 A 
HETATM    9  C   UNK N   1       1.126  -3.505  -0.704  0.00  0.00     0.026 A 
HETATM   10  C   UNK N   1      -0.128  -2.874  -0.727  0.00  0.00     0.018 A 
BRANCH   8  11
HETATM   11  S   UNK N   1       3.787  -3.632   0.100  0.00  0.00     0.256 S 
HETATM   12  O   UNK N   1       4.595  -2.827   1.131  0.00  0.00    -0.201 OA
HETATM   13  O   UNK N   1       3.560  -4.939   0.873  0.00  0.00    -0.201 OA
BRANCH  11  14
HETATM   14  N   UNK N   1       4.941  -4.010  -1.176  0.00  0.00    -0.324 N 
HETATM   15  H   UNK N   1       5.086  -4.698  -1.915  0.00  0.00     0.169 HD
HETATM   16  H   UNK N   1       5.701  -3.329  -1.176  0.00  0.00     0.169 HD
ENDBRANCH  11  14
ENDBRANCH   8  11
ENDBRANCH   1   5
BRANCH   3  17
HETATM   17  C   UNK N   1      -2.617   0.968   1.199  0.00  0.00     0.164 C 
BRANCH  17  18
HETATM   18  C   UNK N   1      -2.323   2.331   0.682  0.00  0.00     0.001 A 
HETATM   19  C   UNK N   1      -3.313   2.997  -0.034  0.00  0.00     0.054 A 
HETATM   20  C   UNK N   1      -3.050   4.247  -0.592  0.00  0.00     0.117 A 
HETATM   21  C   UNK N   1      -1.787   4.830  -0.450  0.00  0.00     0.045 A 
HETATM   22  F   UNK N   1      -4.020   4.889  -1.280  0.00  0.00    -0.206 F 
HETATM   23  C   UNK N   1      -0.787   4.169   0.266  0.00  0.00     0.046 A 
HETATM   24  C   UNK N   1      -1.048   2.925   0.841  0.00  0.00     0.124 A 
HETATM   25  F   UNK N   1      -0.053   2.287   1.512  0.00  0.00    -0.205 F 
ENDBRANCH  17  18
ENDBRANCH   3  17
TORSDOF 5
