REMARK  5 active torsions:
REMARK  status: ('A' for Active; 'I' for Inactive)
REMARK    1  A    between atoms: C_3  and  S_11 
REMARK    2  A    between atoms: C_6  and  C_7 
REMARK       I    between atoms: C_7  and  N_9 
REMARK    3  A    between atoms: N_9  and  C_10 
REMARK    4  A    between atoms: C_10  and  C_15 
REMARK    5  A    between atoms: S_11  and  N_12 
ROOT
HETATM    1  C   UNK N   1      -1.760  -1.114  -0.121  0.00  0.00     0.251 C 
HETATM    2  O   UNK N   1      -2.727  -1.560  -0.730  0.00  0.00    -0.268 OA
HETATM    3  N   UNK N   1      -1.884  -0.061   0.710  0.00  0.00    -0.353 N 
HETATM    4  H   UNK N   1      -1.107   0.149   1.278  0.00  0.00     0.163 HD
ENDROOT
BRANCH   1   5
HETATM    5  C   UNK N   1      -0.428  -1.719  -0.239  0.00  0.00     0.032 A 
HETATM    6  C   UNK N   1       0.655  -0.987   0.268  0.00  0.00     0.018 A 
HETATM    7  C   UNK N   1       1.921  -1.538   0.321  0.00  0.00     0.026 A 
HETATM    8  C   UNK N   1       2.129  -2.838  -0.121  0.00  0.00     0.079 A 
HETATM    9  C   UNK N   1       1.068  -3.574  -0.674  0.00  0.00     0.026 A 
HETATM   10  C   UNK N   1      -0.214  -3.005  -0.751  0.00  0.00     0.018 A 
BRANCH   8  11
HETATM   11  S   UNK N   1       3.703  -3.594   0.226  0.00  0.00     0.256 S 
HETATM   12  O   UNK N   1       4.520  -2.724   1.196  0.00  0.00    -0.201 OA
HETATM   13  O   UNK N   1       3.549  -4.881   1.050  0.00  0.00    -0.201 OA
BRANCH  11  14
HETATM   14  N   UNK N   1       4.822  -3.983  -1.078  0.00  0.00    -0.324 N 
HETATM   15  H   UNK N   1       4.950  -4.657  -1.833  0.00  0.00     0.169 HD
HETATM   16  H   UNK N   1       5.594  -3.317  -1.078  0.00  0.00     0.169 HD
ENDBRANCH  11  14
ENDBRANCH   8  11
ENDBRANCH   1   5
BRANCH   3  17
HETATM   17  C   UNK N   1      -3.033   0.784   0.851  0.00  0.00     0.161 C 
BRANCH  17  18
HETATM   18  C   UNK N   1      -2.574   2.178   0.558  0.00  0.00    -0.034 A 
HETATM   19  C   UNK N   1      -3.468   3.104   0.025  0.00  0.00     0.054 A 
HETATM   20  C   UNK N   1      -3.014   4.367  -0.366  0.00  0.00     0.158 A 
HETATM   21  C   UNK N   1      -1.657   4.700  -0.240  0.00  0.00     0.193 A 
HETATM   22  F   UNK N   1      -3.887   5.257  -0.892  0.00  0.00    -0.203 F 
HETATM   23  C   UNK N   1      -0.760   3.778   0.302  0.00  0.00     0.158 A 
HETATM   24  F   UNK N   1      -1.213   5.913  -0.649  0.00  0.00    -0.200 F 
HETATM   25  C   UNK N   1      -1.216   2.526   0.698  0.00  0.00     0.054 A 
HETATM   26  F   UNK N   1       0.556   4.083   0.420  0.00  0.00    -0.203 F 
ENDBRANCH  17  18
ENDBRANCH   3  17
TORSDOF 5
