REMARK  4 active torsions:
REMARK  status: ('A' for Active; 'I' for Inactive)
REMARK    1  A    between atoms: C_1  and  O_3 
REMARK    2  A    between atoms: C_1  and  C_4 
REMARK    3  A    between atoms: C_4  and  C_5 
REMARK    4  A    between atoms: C_5  and  C_8 
ROOT
HETATM    1  N   UNK N   1      -0.519  -2.437   0.001  0.00  0.00    -0.365 N 
HETATM    2  C   UNK N   1      -1.326  -1.343  -0.002  0.00  0.00     0.096 A 
HETATM    3  C   UNK N   1      -0.543  -0.189  -0.003  0.00  0.00    -0.030 A 
HETATM    4  C   UNK N   1       0.758  -0.606  -0.002  0.00  0.00    -0.002 A 
HETATM    5  C   UNK N   1       1.945   0.124  -0.002  0.00  0.00     0.014 A 
HETATM    6  C   UNK N   1       3.153  -0.594   0.000  0.00  0.00     0.001 A 
HETATM    7  C   UNK N   1       3.142  -2.008   0.003  0.00  0.00     0.002 A 
HETATM    8  C   UNK N   1       1.921  -2.713   0.003  0.00  0.00     0.030 A 
HETATM    9  C   UNK N   1       0.745  -1.968   0.001  0.00  0.00     0.042 A 
HETATM   10  H   UNK N   1      -0.801  -3.381   0.003  0.00  0.00     0.165 HD
ENDROOT
BRANCH   3  11
HETATM   11  C   UNK N   1      -0.968   1.244  -0.006  0.00  0.00     0.051 C 
BRANCH  11  12
HETATM   12  C   UNK N   1      -2.471   1.466  -0.006  0.00  0.00     0.114 C 
BRANCH  12  13
HETATM   13  C   UNK N   1      -2.779   2.937   0.002  0.00  0.00     0.139 C 
HETATM   14  O   UNK N   1      -3.940   3.309   0.001  0.00  0.00    -0.650 OA
BRANCH  13  15
HETATM   15  O   UNK N   1      -1.787   3.852   0.009  0.00  0.00    -0.776 OA
HETATM   16  H   UNK N   1      -0.892   3.574   0.015  0.00  0.00     0.167 HD
ENDBRANCH  13  15
ENDBRANCH  12  13
ENDBRANCH  11  12
ENDBRANCH   3  11
TORSDOF 4
