REMARK  7 active torsions:
REMARK  status: ('A' for Active; 'I' for Inactive)
REMARK    1  A    between atoms: C_3  and  C_12 
REMARK    2  A    between atoms: C_10  and  C_11 
REMARK    3  A    between atoms: C_10  and  O_17 
REMARK    4  A    between atoms: C_11  and  C_12 
REMARK    5  A    between atoms: P_13  and  O_15 
REMARK    6  A    between atoms: P_13  and  O_16 
REMARK    7  A    between atoms: P_13  and  O_17 
ROOT
HETATM    1  N   UNK N   1      -3.778   0.090  -0.166  0.00  0.00    -0.365 N 
HETATM    2  C   UNK N   1      -3.016   1.199   0.012  0.00  0.00     0.096 A 
HETATM    3  C   UNK N   1      -1.689   0.828   0.200  0.00  0.00    -0.030 A 
HETATM    4  C   UNK N   1      -0.602  -1.450   0.248  0.00  0.00     0.014 A 
HETATM    5  C   UNK N   1      -0.896  -2.819   0.124  0.00  0.00     0.001 A 
HETATM    6  C   UNK N   1      -2.223  -3.246  -0.103  0.00  0.00     0.002 A 
HETATM    7  C   UNK N   1      -3.265  -2.306  -0.212  0.00  0.00     0.030 A 
HETATM    8  C   UNK N   1      -2.936  -0.959  -0.091  0.00  0.00     0.042 A 
HETATM    9  C   UNK N   1      -1.655  -0.544   0.132  0.00  0.00    -0.002 A 
HETATM   10  H   UNK N   1      -4.750   0.058  -0.320  0.00  0.00     0.165 HD
ENDROOT
BRANCH   3  11
HETATM   11  C   UNK N   1      -0.556   1.770   0.465  0.00  0.00     0.043 C 
BRANCH  11  12
HETATM   12  C   UNK N   1       0.610   1.569  -0.488  0.00  0.00     0.031 C 
BRANCH  12  13
HETATM   13  C   UNK N   1       1.637   0.665   0.173  0.00  0.00     0.180 C 
BRANCH  13  14
HETATM   14  O   UNK N   1       2.848   0.726  -0.523  0.00  0.00    -0.297 OA
BRANCH  14  15
HETATM   15  P   UNK N   1       4.017   1.254   0.655  0.00  0.00     0.390 P 
HETATM   16  O   UNK N   1       5.381   1.541  -0.027  0.00  0.00    -0.632 OA
BRANCH  15  17
HETATM   17  O   UNK N   1       4.495  -0.293   0.025  0.00  0.00    -0.307 OA
HETATM   18  H   UNK N   1       3.881  -0.956  -0.327  0.00  0.00     0.222 HD
ENDBRANCH  15  17
BRANCH  15  19
HETATM   19  O   UNK N   1       3.674   2.572  -0.423  0.00  0.00    -0.307 OA
HETATM   20  H   UNK N   1       4.216   3.106  -1.025  0.00  0.00     0.222 HD
ENDBRANCH  15  19
ENDBRANCH  14  15
ENDBRANCH  13  14
ENDBRANCH  12  13
ENDBRANCH  11  12
ENDBRANCH   3  11
TORSDOF 7
