REMARK  3 active torsions:
REMARK  status: ('A' for Active; 'I' for Inactive)
REMARK    1  A    between atoms: O_1  and  C_2 
REMARK    2  A    between atoms: C_2  and  C_4 
REMARK    3  A    between atoms: C_4  and  C_5 
ROOT
HETATM    1  C   UNK N   1      -1.383  -1.298   0.002  0.00  0.00     0.009 A 
HETATM    2  C   UNK N   1      -0.028  -1.027  -0.000  0.00  0.00     0.123 A 
HETATM    3  N   UNK N   1       0.976  -1.938  -0.000  0.00  0.00    -0.308 N 
HETATM    4  C   UNK N   1       2.279  -1.506  -0.001  0.00  0.00     0.259 A 
HETATM    5  O   UNK N   1       3.183  -2.324  -0.000  0.00  0.00    -0.267 OA
HETATM    6  C   UNK N   1       2.560  -0.121  -0.001  0.00  0.00     0.059 A 
HETATM    7  C   UNK N   1       3.875   0.361  -0.000  0.00  0.00     0.019 A 
HETATM    8  C   UNK N   1       4.116   1.738   0.000  0.00  0.00     0.001 A 
HETATM    9  C   UNK N   1       3.048   2.640  -0.001  0.00  0.00     0.002 A 
HETATM   10  C   UNK N   1       1.733   2.172  -0.001  0.00  0.00     0.031 A 
HETATM   11  C   UNK N   1       1.479   0.794  -0.001  0.00  0.00     0.057 A 
HETATM   12  N   UNK N   1       0.213   0.297  -0.001  0.00  0.00    -0.295 N 
HETATM   13  C   UNK N   1      -0.991   0.907  -0.000  0.00  0.00     0.052 A 
HETATM   14  C   UNK N   1      -2.001  -0.037   0.002  0.00  0.00     0.002 A 
HETATM   15  C   UNK N   1      -3.339   0.359   0.004  0.00  0.00     0.014 A 
HETATM   16  C   UNK N   1      -3.634   1.735   0.004  0.00  0.00     0.001 A 
HETATM   17  C   UNK N   1      -2.596   2.690   0.002  0.00  0.00     0.002 A 
HETATM   18  C   UNK N   1      -1.255   2.277  -0.000  0.00  0.00     0.031 A 
HETATM   19  H   UNK N   1       0.773  -2.902   0.000  0.00  0.00     0.170 HD
ENDROOT
BRANCH   1  20
HETATM   20  C   UNK N   1      -1.890  -2.720   0.004  0.00  0.00     0.153 C 
BRANCH  20  21
HETATM   21  C   UNK N   1      -3.350  -3.048  -0.001  0.00  0.00     0.143 C 
HETATM   22  O   UNK N   1      -4.204  -2.182  -0.010  0.00  0.00    -0.650 OA
BRANCH  21  23
HETATM   23  O   UNK N   1      -3.720  -4.341   0.002  0.00  0.00    -0.776 OA
HETATM   24  H   UNK N   1      -4.629  -4.568   0.005  0.00  0.00     0.167 HD
ENDBRANCH  21  23
ENDBRANCH  20  21
ENDBRANCH   1  20
TORSDOF 3
