REMARK  0 active torsions:
REMARK  status: ('A' for Active; 'I' for Inactive)
ROOT
HETATM    1  C   UNK N   1       3.187   1.515  -0.160  0.00  0.00     0.030 A 
HETATM    2  C   UNK N   1       1.990   0.808  -0.116  0.00  0.00     0.043 A 
HETATM    3  C   UNK N   1       1.958  -0.564  -0.170  0.00  0.00     0.006 A 
HETATM    4  C   UNK N   1       3.120  -1.325  -0.264  0.00  0.00     0.015 A 
HETATM    5  C   UNK N   1       4.347  -0.638  -0.312  0.00  0.00     0.001 A 
HETATM    6  C   UNK N   1       4.381   0.775  -0.262  0.00  0.00     0.002 A 
HETATM    7  N   UNK N   1       0.748   1.321   0.017  0.00  0.00    -0.356 N 
HETATM    8  C   UNK N   1      -0.075   0.244   0.026  0.00  0.00     0.058 A 
HETATM    9  C   UNK N   1       0.638  -0.924  -0.073  0.00  0.00     0.049 A 
HETATM   10  C   UNK N   1      -1.559   0.245   0.250  0.00  0.00     0.274 C 
HETATM   11  N   UNK N   1      -2.155  -1.013  -0.276  0.00  0.00     0.106 N 
HETATM   12  C   UNK N   1      -1.513  -2.242   0.228  0.00  0.00     0.356 C 
HETATM   13  C   UNK N   1      -0.023  -2.226  -0.006  0.00  0.00     0.190 C 
HETATM   14  C   UNK N   1      -2.218   1.434  -0.448  0.00  0.00     0.042 C 
HETATM   15  C   UNK N   1      -3.717   1.422  -0.154  0.00  0.00     0.004 C 
HETATM   16  C   UNK N   1      -4.329   0.088  -0.574  0.00  0.00     0.030 C 
HETATM   17  C   UNK N   1      -3.574  -1.070   0.077  0.00  0.00     0.274 C 
HETATM   18  O   UNK N   1       0.615  -3.265  -0.054  0.00  0.00    -0.290 OA
HETATM   19  H   UNK N   1       0.495   2.270   0.092  0.00  0.00     0.166 HD
ENDROOT
TORSDOF 0
