REMARK  6 active torsions:
REMARK  status: ('A' for Active; 'I' for Inactive)
REMARK    1  A    between atoms: C_1  and  O_29 
REMARK       I    between atoms: N_8  and  C_12 
REMARK    2  A    between atoms: C_12  and  C_13 
REMARK    3  A    between atoms: C_13  and  C_15 
REMARK    4  A    between atoms: C_15  and  N_16 
REMARK    5  A    between atoms: C_19  and  C_22 
REMARK    6  A    between atoms: C_22  and  C_28 
ROOT
HETATM    1  C   UNK N   1      -6.430   0.974   0.342  0.00  0.00     0.068 A 
HETATM    2  C   UNK N   1      -5.454   0.452  -0.515  0.00  0.00     0.047 A 
HETATM    3  C   UNK N   1      -4.299   1.174  -0.799  0.00  0.00    -0.021 A 
HETATM    4  C   UNK N   1      -4.101   2.443  -0.224  0.00  0.00     0.008 A 
HETATM    5  C   UNK N   1      -5.079   2.972   0.625  0.00  0.00     0.022 A 
HETATM    6  C   UNK N   1      -6.238   2.240   0.907  0.00  0.00     0.038 A 
HETATM    7  C   UNK N   1      -3.304   0.562  -1.716  0.00  0.00     0.165 C 
HETATM    8  N   UNK N   1      -2.115   0.167  -0.999  0.00  0.00    -0.347 N 
HETATM    9  C   UNK N   1      -1.071   1.153  -0.829  0.00  0.00     0.136 C 
HETATM   10  C   UNK N   1      -1.495   2.217   0.181  0.00  0.00     0.099 C 
HETATM   11  S   UNK N   1      -2.631   3.413  -0.587  0.00  0.00    -0.128 SA
HETATM   12  C   UNK N   1      -1.987  -1.131  -0.565  0.00  0.00     0.221 C 
HETATM   13  O   UNK N   1      -2.929  -1.901  -0.705  0.00  0.00    -0.273 OA
ENDROOT
BRANCH  12  14
HETATM   14  C   UNK N   1      -0.720  -1.709   0.022  0.00  0.00     0.133 C 
BRANCH  14  15
HETATM   15  C   UNK N   1       0.046  -0.874   1.040  0.00  0.00     0.281 C 
BRANCH  15  16
HETATM   16  N   UNK N   1       1.061  -0.102   0.335  0.00  0.00     0.088 N 
HETATM   17  C   UNK N   1       1.666   0.876   1.233  0.00  0.00     0.272 C 
HETATM   18  C   UNK N   1       2.608   1.781   0.426  0.00  0.00     0.035 C 
HETATM   19  C   UNK N   1       3.696   0.938  -0.247  0.00  0.00    -0.007 C 
HETATM   20  C   UNK N   1       3.032  -0.166  -1.086  0.00  0.00     0.035 C 
HETATM   21  C   UNK N   1       2.088  -0.985  -0.212  0.00  0.00     0.272 C 
BRANCH  19  22
HETATM   22  C   UNK N   1       4.628   0.395   0.846  0.00  0.00     0.043 C 
BRANCH  22  23
HETATM   23  C   UNK N   1       5.418  -0.800   0.431  0.00  0.00    -0.058 A 
HETATM   24  C   UNK N   1       6.641  -0.659  -0.232  0.00  0.00     0.007 A 
HETATM   25  C   UNK N   1       7.364  -1.797  -0.605  0.00  0.00     0.001 A 
HETATM   26  C   UNK N   1       6.863  -3.072  -0.319  0.00  0.00     0.000 A 
HETATM   27  C   UNK N   1       5.642  -3.211   0.345  0.00  0.00     0.001 A 
HETATM   28  C   UNK N   1       4.925  -2.076   0.724  0.00  0.00     0.007 A 
ENDBRANCH  22  23
ENDBRANCH  19  22
ENDBRANCH  15  16
ENDBRANCH  14  15
ENDBRANCH  12  14
BRANCH   1  29
HETATM   29  O   UNK N   1      -7.550   0.275   0.639  0.00  0.00    -0.356 OA
HETATM   30  C   UNK N   1      -7.787  -0.997   0.165  0.00  0.00     0.210 C 
ENDBRANCH   1  29
TORSDOF 6
