REMARK  7 active torsions:
REMARK  status: ('A' for Active; 'I' for Inactive)
REMARK    1  A    between atoms: O_1  and  C_2 
REMARK    2  A    between atoms: C_3  and  C_2 
REMARK    3  A    between atoms: C_5  and  O_10 
REMARK    4  A    between atoms: C_6  and  O_7 
REMARK    5  A    between atoms: C_8  and  O_9 
REMARK    6  A    between atoms: O_10  and  C_11 
REMARK    7  A    between atoms: C_14  and  N_15 
ROOT
HETATM    1  C   UNK N   1       0.237   3.375  -0.144  0.00  0.00     0.179 C 
HETATM    2  O   UNK N   1       1.013   2.279  -0.595  0.00  0.00    -0.348 OA
HETATM    3  C   UNK N   1       0.589   1.241   0.264  0.00  0.00     0.298 C 
HETATM    4  C   UNK N   1      -0.930   1.344   0.211  0.00  0.00     0.205 C 
HETATM    5  C   UNK N   1      -1.171   2.837   0.158  0.00  0.00     0.182 C 
ENDROOT
BRANCH   3   6
HETATM    6  O   UNK N   1       1.175   0.021  -0.093  0.00  0.00    -0.318 OA
BRANCH   6   7
HETATM    7  C   UNK N   1       0.639  -1.235  -0.157  0.00  0.00     0.072 A 
HETATM    8  C   UNK N   1       1.503  -2.336  -0.225  0.00  0.00     0.039 A 
HETATM    9  C   UNK N   1       0.994  -3.642  -0.205  0.00  0.00     0.039 A 
HETATM   10  C   UNK N   1      -0.391  -3.862  -0.127  0.00  0.00     0.103 A 
HETATM   11  C   UNK N   1      -1.254  -2.763  -0.093  0.00  0.00     0.039 A 
HETATM   12  C   UNK N   1      -0.741  -1.471  -0.104  0.00  0.00     0.039 A 
BRANCH  10  13
HETATM   13  N   UNK N   1      -0.919  -5.181  -0.062  0.00  0.00    -0.116 N 
HETATM   14  O   UNK N   1      -0.108  -6.218  -0.042  0.00  0.00    -0.532 OA
HETATM   15  O   UNK N   1      -2.097  -5.356   0.016  0.00  0.00    -0.532 OA
ENDBRANCH  10  13
ENDBRANCH   6   7
ENDBRANCH   3   6
BRANCH   4  16
HETATM   16  O   UNK N   1      -1.569   0.748   1.302  0.00  0.00    -0.388 OA
HETATM   17  H   UNK N   1      -2.148   0.926   2.060  0.00  0.00     0.210 HD
ENDBRANCH   4  16
BRANCH   1  18
HETATM   18  C   UNK N   1       0.257   4.552  -1.113  0.00  0.00     0.198 C 
BRANCH  18  19
HETATM   19  O   UNK N   1      -0.459   5.625  -0.574  0.00  0.00    -0.398 OA
HETATM   20  H   UNK N   1      -0.062   6.427  -0.200  0.00  0.00     0.209 HD
ENDBRANCH  18  19
ENDBRANCH   1  18
BRANCH   5  21
HETATM   21  O   UNK N   1      -2.085   3.115  -0.866  0.00  0.00    -0.390 OA
HETATM   22  H   UNK N   1      -2.235   3.760  -1.575  0.00  0.00     0.210 HD
ENDBRANCH   5  21
TORSDOF 7
