REMARK  3 active torsions:
REMARK  status: ('A' for Active; 'I' for Inactive)
REMARK    1  A    between atoms: C_1  and  C_2 
REMARK    2  A    between atoms: C_2  and  C_3 
REMARK    3  A    between atoms: C_3  and  C_4 
ROOT
HETATM    1  C   UNK N   1       0.193   1.101   0.000  0.00  0.00    -0.030 A 
HETATM    2  C   UNK N   1      -0.565   2.271  -0.000  0.00  0.00     0.096 A 
HETATM    3  C   UNK N   1       2.672   0.729   0.000  0.00  0.00     0.014 A 
HETATM    4  C   UNK N   1       1.502   1.488   0.000  0.00  0.00    -0.002 A 
HETATM    5  C   UNK N   1       1.520   2.849  -0.000  0.00  0.00     0.042 A 
HETATM    6  C   UNK N   1       2.714   3.565  -0.000  0.00  0.00     0.030 A 
HETATM    7  C   UNK N   1       3.918   2.832   0.000  0.00  0.00     0.002 A 
HETATM    8  N   UNK N   1       0.266   3.346  -0.000  0.00  0.00    -0.365 N 
HETATM    9  C   UNK N   1       3.896   1.418   0.000  0.00  0.00     0.001 A 
HETATM   10  H   UNK N   1       0.006   4.296  -0.000  0.00  0.00     0.165 HD
ENDROOT
BRANCH   1  11
HETATM   11  C   UNK N   1      -0.250  -0.322   0.000  0.00  0.00     0.045 C 
BRANCH  11  12
HETATM   12  C   UNK N   1      -1.753  -0.565   0.000  0.00  0.00     0.043 C 
BRANCH  12  13
HETATM   13  C   UNK N   1      -2.056  -2.042   0.000  0.00  0.00    -0.055 A 
HETATM   14  C   UNK N   1      -1.031  -3.003   0.000  0.00  0.00     0.024 A 
HETATM   15  C   UNK N   1      -1.350  -4.360  -0.000  0.00  0.00     0.088 A 
HETATM   16  N   UNK N   1      -2.651  -4.751  -0.000  0.00  0.00    -0.375 N 
HETATM   17  C   UNK N   1      -3.665  -3.843  -0.000  0.00  0.00     0.088 A 
ATOM     18  HN  UNK N   1      -2.873  -5.747  -0.000  1.00  0.00     0.164 HD
HETATM   19  C   UNK N   1      -3.385  -2.472  -0.000  0.00  0.00     0.024 A 
ENDBRANCH  12  13
ENDBRANCH  11  12
ENDBRANCH   1  11
TORSDOF 3
