REMARK  6 active torsions:
REMARK  status: ('A' for Active; 'I' for Inactive)
REMARK    1  A    between atoms: C_2  and  N_1 
REMARK       I    between atoms: N_1  and  C_13 
REMARK    2  A    between atoms: C_2  and  C_3 
REMARK    3  A    between atoms: C_2  and  C_5 
REMARK    4  A    between atoms: C_3  and  O_12 
REMARK    5  A    between atoms: C_5  and  C_6 
REMARK       I    between atoms: C_13  and  N_15 
REMARK    6  A    between atoms: N_15  and  O_16 
ROOT
HETATM    1  C   UNK N   1       0.798  -0.323  -0.030  0.00  0.00     0.188 C 
ENDROOT
BRANCH   1   2
HETATM    2  N   UNK N   1       1.964  -1.118  -0.381  0.00  0.00    -0.327 N 
HETATM    3  C   UNK N   1       3.200  -0.942   0.157  0.00  0.00     0.340 C 
HETATM    4  O   UNK N   1       3.394  -0.083   1.006  0.00  0.00    -0.245 OA
HETATM    5  N   UNK N   1       4.221  -1.720  -0.266  0.00  0.00    -0.219 N 
HETATM    6  H   UNK N   1       4.054  -2.413  -0.945  0.00  0.00     0.199 HD
HETATM    7  H   UNK N   1       1.851  -1.829  -1.052  0.00  0.00     0.165 HD
BRANCH   5   8
HETATM    8  O   UNK N   1       5.457  -1.560   0.227  0.00  0.00    -0.286 OA
HETATM    9  H   UNK N   1       6.004  -2.278   0.584  0.00  0.00     0.244 HD
ENDBRANCH   5   8
ENDBRANCH   1   2
BRANCH   1  10
HETATM   10  C   UNK N   1       1.005   1.133  -0.411  0.00  0.00     0.163 C 
HETATM   11  O   UNK N   1       2.011   1.483  -1.009  0.00  0.00    -0.648 OA
BRANCH  10  12
HETATM   12  O   UNK N   1       0.091   2.061  -0.075  0.00  0.00    -0.775 OA
HETATM   13  H   UNK N   1       0.333   2.936   0.160  0.00  0.00     0.167 HD
ENDBRANCH  10  12
ENDBRANCH   1  10
BRANCH   1  14
HETATM   14  C   UNK N   1      -0.387  -0.926  -0.800  0.00  0.00     0.074 C 
BRANCH  14  15
HETATM   15  C   UNK N   1      -1.777  -0.645  -0.302  0.00  0.00    -0.056 A 
HETATM   16  C   UNK N   1      -2.615  -1.723   0.008  0.00  0.00     0.007 A 
HETATM   17  C   UNK N   1      -3.939  -1.498   0.400  0.00  0.00     0.001 A 
HETATM   18  C   UNK N   1      -4.433  -0.193   0.479  0.00  0.00     0.000 A 
HETATM   19  C   UNK N   1      -3.603   0.886   0.165  0.00  0.00     0.001 A 
HETATM   20  C   UNK N   1      -2.282   0.659  -0.234  0.00  0.00     0.007 A 
ENDBRANCH  14  15
ENDBRANCH   1  14
TORSDOF 6
