REMARK  2 active torsions:
REMARK  status: ('A' for Active; 'I' for Inactive)
REMARK    1  A    between atoms: C_4  and  O_11 
REMARK    2  A    between atoms: C_5  and  O_8 
ROOT
HETATM    1  C   UNK N   1      -1.863  -1.154   0.000  0.00  0.00     0.031 A 
HETATM    2  C   UNK N   1      -0.648  -0.445   0.000  0.00  0.00     0.050 A 
HETATM    3  C   UNK N   1      -0.684   0.971  -0.000  0.00  0.00     0.027 A 
HETATM    4  C   UNK N   1       0.511   1.691  -0.000  0.00  0.00     0.117 A 
HETATM    5  C   UNK N   1       1.725   1.011  -0.000  0.00  0.00     0.169 A 
HETATM    6  O   UNK N   1       2.813  -0.975   0.000  0.00  0.00    -0.265 OA
HETATM    7  C   UNK N   1       1.744  -0.390   0.000  0.00  0.00     0.283 A 
HETATM    8  N   UNK N   1       0.557  -1.101   0.000  0.00  0.00    -0.316 N 
HETATM    9  C   UNK N   1       0.607  -2.564   0.000  0.00  0.00     0.160 C 
HETATM   10  C   UNK N   1      -3.082  -0.469   0.000  0.00  0.00     0.002 A 
HETATM   11  C   UNK N   1      -3.105   0.927  -0.000  0.00  0.00     0.001 A 
HETATM   12  C   UNK N   1      -1.911   1.644  -0.000  0.00  0.00     0.017 A 
ENDROOT
BRANCH   4  13
HETATM   13  O   UNK N   1       0.496   3.037  -0.000  0.00  0.00    -0.357 OA
HETATM   14  H   UNK N   1       1.302   3.515  -0.000  0.00  0.00     0.217 HD
ENDBRANCH   4  13
BRANCH   5  15
HETATM   15  O   UNK N   1       2.879   1.704  -0.000  0.00  0.00    -0.354 OA
HETATM   16  H   UNK N   1       3.698   1.249  -0.000  0.00  0.00     0.218 HD
ENDBRANCH   5  15
TORSDOF 2
