REMARK WARNING: 32 MAX_TORS EXCEEDED!!!
REMARK  41 active torsions:
REMARK  status: ('A' for Active; 'I' for Inactive)
REMARK    1  A    between atoms: C_2  and  C_1 
REMARK    2  A    between atoms: O_4  and  C_1 
REMARK    3  A    between atoms: C_2  and  O_6 
REMARK    4  A    between atoms: C_3  and  C_2 
REMARK    5  A    between atoms: O_5  and  C_3 
REMARK    6  A    between atoms: P_7  and  O_4 
REMARK    7  A    between atoms: O_5  and  C_14 
REMARK    8  A    between atoms: C_31  and  O_6 
REMARK    9  A    between atoms: O_9  and  P_7 
REMARK   10  A    between atoms: O_10  and  P_7 
REMARK   11  A    between atoms: C_11  and  O_10 
REMARK   12  A    between atoms: C_12  and  C_11 
REMARK   13  A    between atoms: N_13  and  C_12 
REMARK   14  A    between atoms: C_14  and  C_16 
REMARK   15  A    between atoms: C_16  and  C_17 
REMARK   16  A    between atoms: C_17  and  C_18 
REMARK   17  A    between atoms: C_18  and  C_19 
REMARK   18  A    between atoms: C_19  and  C_20 
REMARK   19  A    between atoms: C_20  and  C_21 
REMARK   20  A    between atoms: C_21  and  C_22 
REMARK   21  A    between atoms: C_22  and  C_23 
REMARK   22  A    between atoms: C_23  and  C_24 
REMARK   23  A    between atoms: C_24  and  C_25 
REMARK   24  A    between atoms: C_25  and  C_26 
REMARK   25  A    between atoms: C_26  and  C_27 
REMARK   26  A    between atoms: C_27  and  C_28 
REMARK   27  A    between atoms: C_28  and  C_29 
REMARK   28  A    between atoms: C_31  and  C_33 
REMARK   29  A    between atoms: C_33  and  C_34 
REMARK   30  A    between atoms: C_34  and  C_35 
REMARK   31  A    between atoms: C_35  and  C_36 
REMARK   32  A    between atoms: C_36  and  C_37 
REMARK   33  A    between atoms: C_37  and  C_38 
REMARK   34  A    between atoms: C_38  and  C_39 
REMARK   35  A    between atoms: C_39  and  C_40 
REMARK   36  A    between atoms: C_40  and  C_41 
REMARK   37  A    between atoms: C_41  and  C_42 
REMARK   38  A    between atoms: C_42  and  C_43 
REMARK   39  A    between atoms: C_43  and  C_44 
REMARK   40  A    between atoms: C_44  and  C_45 
REMARK   41  A    between atoms: C_45  and  C_46 
ROOT
HETATM    1  C   UNK N   1      19.043  -6.793  -0.718  0.00  0.00     0.180 C 
ENDROOT
BRANCH   1   2
HETATM    2  C   UNK N   1      20.552  -6.624  -0.689  0.00  0.00     0.215 C 
BRANCH   2   3
HETATM    3  O   UNK N   1      20.943  -5.773   0.349  0.00  0.00    -0.294 OA
BRANCH   3   4
HETATM    4  P   UNK N   1      22.197  -4.798  -0.347  0.00  0.00     0.393 P 
HETATM    5  O   UNK N   1      21.301  -3.677   0.245  0.00  0.00    -0.631 OA
BRANCH   4   6
HETATM    6  O   UNK N   1      22.762  -5.762   0.986  0.00  0.00    -0.307 OA
HETATM    7  H   UNK N   1      22.454  -6.303   1.730  0.00  0.00     0.222 HD
ENDBRANCH   4   6
BRANCH   4   8
HETATM    8  O   UNK N   1      23.385  -3.955   0.601  0.00  0.00    -0.295 OA
BRANCH   8   9
HETATM    9  C   UNK N   1      24.430  -3.680  -0.289  0.00  0.00     0.199 C 
BRANCH   9  10
HETATM   10  C   UNK N   1      25.656  -4.509   0.061  0.00  0.00     0.138 C 
BRANCH  10  11
HETATM   11  N   UNK N   1      25.446  -5.897  -0.313  0.00  0.00    -0.428 N 
HETATM   12  H   UNK N   1      24.529  -6.257  -0.575  0.00  0.00     0.149 HD
HETATM   13  H   UNK N   1      26.244  -6.533  -0.313  0.00  0.00     0.149 HD
ENDBRANCH  10  11
ENDBRANCH   9  10
ENDBRANCH   8   9
ENDBRANCH   4   8
ENDBRANCH   3   4
ENDBRANCH   2   3
ENDBRANCH   1   2
BRANCH   1  14
HETATM   14  O   UNK N   1      18.613  -7.357   0.474  0.00  0.00    -0.312 OA
BRANCH  14  15
HETATM   15  C   UNK N   1      17.871  -8.492   0.599  0.00  0.00     0.259 C 
HETATM   16  O   UNK N   1      17.708  -8.971   1.710  0.00  0.00    -0.265 OA
BRANCH  15  17
HETATM   17  C   UNK N   1      17.207  -9.157  -0.572  0.00  0.00     0.111 C 
BRANCH  17  18
HETATM   18  C   UNK N   1      16.244  -8.184  -1.230  0.00  0.00     0.010 C 
BRANCH  18  19
HETATM   19  C   UNK N   1      15.191  -8.908  -2.047  0.00  0.00     0.000 C 
BRANCH  19  20
HETATM   20  C   UNK N   1      13.956  -9.174  -1.202  0.00  0.00     0.000 C 
BRANCH  20  21
HETATM   21  C   UNK N   1      13.304  -7.868  -0.773  0.00  0.00     0.000 C 
BRANCH  21  22
HETATM   22  C   UNK N   1      13.254  -7.804   0.744  0.00  0.00     0.000 C 
BRANCH  22  23
HETATM   23  C   UNK N   1      11.882  -8.185   1.286  0.00  0.00     0.000 C 
BRANCH  23  24
HETATM   24  C   UNK N   1      11.540  -9.647   1.018  0.00  0.00     0.000 C 
BRANCH  24  25
HETATM   25  C   UNK N   1      10.847  -9.810  -0.331  0.00  0.00     0.000 C 
BRANCH  25  26
HETATM   26  C   UNK N   1       9.350  -9.565  -0.222  0.00  0.00     0.000 C 
BRANCH  26  27
HETATM   27  C   UNK N   1       9.053  -8.090  -0.016  0.00  0.00     0.000 C 
BRANCH  27  28
HETATM   28  C   UNK N   1       7.583  -7.896   0.291  0.00  0.00     0.000 C 
BRANCH  28  29
HETATM   29  C   UNK N   1       6.784  -7.838  -0.994  0.00  0.00    -0.000 C 
BRANCH  29  30
HETATM   30  C   UNK N   1       5.310  -7.872  -0.659  0.00  0.00    -0.005 C 
HETATM   31  C   UNK N   1       4.501  -7.591  -1.907  0.00  0.00     0.005 C 
ENDBRANCH  29  30
ENDBRANCH  28  29
ENDBRANCH  27  28
ENDBRANCH  26  27
ENDBRANCH  25  26
ENDBRANCH  24  25
ENDBRANCH  23  24
ENDBRANCH  22  23
ENDBRANCH  21  22
ENDBRANCH  20  21
ENDBRANCH  19  20
ENDBRANCH  18  19
ENDBRANCH  17  18
ENDBRANCH  15  17
ENDBRANCH  14  15
ENDBRANCH   1  14
BRANCH   1  32
HETATM   32  C   UNK N   1      18.337  -5.466  -0.967  0.00  0.00     0.213 C 
BRANCH  32  33
HETATM   33  O   UNK N   1      18.413  -4.605   0.110  0.00  0.00    -0.319 OA
BRANCH  33  34
HETATM   34  C   UNK N   1      17.337  -4.294   0.881  0.00  0.00     0.258 C 
HETATM   35  O   UNK N   1      17.421  -3.374   1.678  0.00  0.00    -0.265 OA
BRANCH  34  36
HETATM   36  C   UNK N   1      16.052  -5.070   0.798  0.00  0.00     0.111 C 
BRANCH  36  37
HETATM   37  C   UNK N   1      15.510  -5.036  -0.622  0.00  0.00     0.010 C 
BRANCH  37  38
HETATM   38  C   UNK N   1      14.150  -4.387  -0.723  0.00  0.00     0.000 C 
BRANCH  38  39
HETATM   39  C   UNK N   1      14.160  -2.952  -0.227  0.00  0.00     0.000 C 
BRANCH  39  40
HETATM   40  C   UNK N   1      13.537  -2.884   1.158  0.00  0.00     0.000 C 
BRANCH  40  41
HETATM   41  C   UNK N   1      12.014  -2.849   1.095  0.00  0.00     0.000 C 
BRANCH  41  42
HETATM   42  C   UNK N   1      11.407  -4.226   0.860  0.00  0.00     0.000 C 
BRANCH  42  43
HETATM   43  C   UNK N   1      11.198  -4.451  -0.628  0.00  0.00     0.000 C 
BRANCH  43  44
HETATM   44  C   UNK N   1       9.854  -5.086  -0.907  0.00  0.00     0.000 C 
BRANCH  44  45
HETATM   45  C   UNK N   1       8.748  -4.061  -0.761  0.00  0.00     0.000 C 
BRANCH  45  46
HETATM   46  C   UNK N   1       7.976  -4.336   0.509  0.00  0.00     0.000 C 
BRANCH  46  47
HETATM   47  C   UNK N   1       6.497  -4.252   0.209  0.00  0.00     0.000 C 
BRANCH  47  48
HETATM   48  C   UNK N   1       5.711  -4.538   1.472  0.00  0.00    -0.000 C 
BRANCH  48  49
HETATM   49  C   UNK N   1       4.251  -4.176   1.274  0.00  0.00    -0.005 C 
HETATM   50  C   UNK N   1       3.514  -5.297   0.569  0.00  0.00     0.005 C 
ENDBRANCH  48  49
ENDBRANCH  47  48
ENDBRANCH  46  47
ENDBRANCH  45  46
ENDBRANCH  44  45
ENDBRANCH  43  44
ENDBRANCH  42  43
ENDBRANCH  41  42
ENDBRANCH  40  41
ENDBRANCH  39  40
ENDBRANCH  38  39
ENDBRANCH  37  38
ENDBRANCH  36  37
ENDBRANCH  34  36
ENDBRANCH  33  34
ENDBRANCH  32  33
ENDBRANCH   1  32
TORSDOF 41
