REMARK  5 active torsions:
REMARK  status: ('A' for Active; 'I' for Inactive)
REMARK    1  A    between atoms: C_2  and  O_3 
REMARK    2  A    between atoms: C_4  and  C_2 
REMARK       I    between atoms: N_8  and  C_9 
REMARK    3  A    between atoms: C_9  and  C_11 
REMARK    4  A    between atoms: C_11  and  C_13 
REMARK    5  A    between atoms: C_13  and  S_14 
ROOT
HETATM    1  C   UNK N   1      -0.908  -1.267  -0.499  0.00  0.00     0.185 C 
HETATM    2  C   UNK N   1      -2.394  -1.237  -0.146  0.00  0.00     0.038 C 
HETATM    3  C   UNK N   1      -2.768   0.225   0.032  0.00  0.00     0.022 C 
HETATM    4  C   UNK N   1      -1.467   0.946   0.316  0.00  0.00     0.127 C 
HETATM    5  N   UNK N   1      -0.432   0.058  -0.136  0.00  0.00    -0.337 N 
HETATM    6  C   UNK N   1       0.869   0.480  -0.264  0.00  0.00     0.225 C 
HETATM    7  O   UNK N   1       1.730  -0.293  -0.651  0.00  0.00    -0.273 OA
ENDROOT
BRANCH   1   8
HETATM    8  C   UNK N   1      -0.214  -2.407   0.228  0.00  0.00     0.163 C 
HETATM    9  O   UNK N   1      -0.829  -3.114   1.012  0.00  0.00    -0.648 OA
BRANCH   8  10
HETATM   10  O   UNK N   1       1.072  -2.701  -0.041  0.00  0.00    -0.775 OA
HETATM   11  H   UNK N   1       1.343  -3.579  -0.228  0.00  0.00     0.167 HD
ENDBRANCH   8  10
ENDBRANCH   1   8
BRANCH   6  12
HETATM   12  C   UNK N   1       1.258   1.915   0.064  0.00  0.00     0.083 C 
HETATM   13  C   UNK N   1       0.597   2.852  -0.938  0.00  0.00     0.020 C 
BRANCH  12  14
HETATM   14  C   UNK N   1       2.774   2.118   0.015  0.00  0.00     0.084 C 
BRANCH  14  15
HETATM   15  S   UNK N   1       3.250   3.788   0.569  0.00  0.00    -0.181 SA
HETATM   16  H   UNK N   1       4.507   4.103   0.981  0.00  0.00     0.101 HD
ENDBRANCH  14  15
ENDBRANCH  12  14
ENDBRANCH   6  12
TORSDOF 5
