REMARK  6 active torsions:
REMARK  status: ('A' for Active; 'I' for Inactive)
REMARK    1  A    between atoms: N_5  and  C_8 
REMARK    2  A    between atoms: C_9  and  N_10 
REMARK       I    between atoms: N_10  and  C_11 
REMARK    3  A    between atoms: C_11  and  C_16 
REMARK    4  A    between atoms: C_22  and  N_23 
REMARK    5  A    between atoms: N_23  and  C_25 
REMARK    6  A    between atoms: N_23  and  C_27 
ROOT
HETATM    1  O   UNK N   1      -0.071   0.432   0.753  0.00  0.00    -0.274 OA
HETATM    2  C   UNK N   1      -1.217  -0.235   0.797  0.00  0.00     0.304 A 
HETATM    3  O   UNK N   1      -2.219   0.357   1.158  0.00  0.00    -0.259 OA
HETATM    4  C   UNK N   1      -1.270  -1.606   0.419  0.00  0.00     0.108 A 
HETATM    5  C   UNK N   1      -0.080  -2.226   0.025  0.00  0.00     0.037 A 
HETATM    6  C   UNK N   1       1.101  -1.487   0.000  0.00  0.00    -0.001 A 
HETATM    7  C   UNK N   1       1.064  -0.129   0.368  0.00  0.00     0.091 A 
HETATM    8  C   UNK N   1       2.309  -2.070  -0.387  0.00  0.00     0.016 A 
HETATM    9  C   UNK N   1       3.479  -1.302  -0.400  0.00  0.00     0.030 A 
HETATM   10  C   UNK N   1       3.449   0.062  -0.048  0.00  0.00     0.032 A 
HETATM   11  C   UNK N   1       2.228   0.635   0.335  0.00  0.00     0.067 A 
ENDROOT
BRANCH   4  12
HETATM   12  C   UNK N   1      -2.555  -2.353   0.368  0.00  0.00     0.261 C 
HETATM   13  N   UNK N   1      -3.694  -1.665   0.576  0.00  0.00    -0.331 N 
HETATM   14  H   UNK N   1      -3.595  -0.742   0.904  0.00  0.00     0.168 HD
HETATM   15  O   UNK N   1      -2.588  -3.530   0.035  0.00  0.00    -0.267 OA
BRANCH  13  16
HETATM   16  C   UNK N   1      -5.011  -2.124   0.374  0.00  0.00     0.109 C 
HETATM   17  C   UNK N   1      -5.958  -1.203   0.134  0.00  0.00     0.120 C 
BRANCH  17  18
HETATM   18  N   UNK N   1      -5.616   0.171  -0.109  0.00  0.00    -0.262 N 
HETATM   19  C   UNK N   1      -4.633   0.621  -0.909  0.00  0.00     0.231 A 
HETATM   20  C   UNK N   1      -4.517   2.111  -0.916  0.00  0.00     0.113 A 
HETATM   21  O   UNK N   1      -3.921  -0.110  -1.584  0.00  0.00    -0.273 OA
HETATM   22  C   UNK N   1      -5.662   2.531   0.045  0.00  0.00     0.113 A 
HETATM   23  C   UNK N   1      -6.245   1.210   0.445  0.00  0.00     0.231 A 
HETATM   24  O   UNK N   1      -7.183   1.087   1.218  0.00  0.00    -0.273 OA
ENDBRANCH  17  18
ENDBRANCH  13  16
ENDBRANCH   4  12
BRANCH  10  25
HETATM   25  N   UNK N   1       4.646   0.851  -0.042  0.00  0.00    -0.382 N 
BRANCH  25  26
HETATM   26  C   UNK N   1       5.947   0.240  -0.195  0.00  0.00     0.118 C 
HETATM   27  C   UNK N   1       6.159  -0.246  -1.617  0.00  0.00     0.026 C 
ENDBRANCH  25  26
BRANCH  25  28
HETATM   28  C   UNK N   1       4.601   2.268   0.247  0.00  0.00     0.118 C 
HETATM   29  C   UNK N   1       3.977   3.027  -0.912  0.00  0.00     0.026 C 
ENDBRANCH  25  28
ENDBRANCH  10  25
TORSDOF 6
