REMARK  14 active torsions:
REMARK  status: ('A' for Active; 'I' for Inactive)
REMARK    1  A    between atoms: O_1  and  P_2 
REMARK    2  A    between atoms: P_2  and  O_4 
REMARK    3  A    between atoms: P_2  and  O_5 
REMARK    4  A    between atoms: C_6  and  O_4 
REMARK    5  A    between atoms: C_6  and  C_7 
REMARK    6  A    between atoms: C_6  and  C_8 
REMARK       I    between atoms: C_7  and  N_13 
REMARK    7  A    between atoms: C_8  and  C_9 
REMARK    8  A    between atoms: C_9  and  C_10 
REMARK    9  A    between atoms: C_14  and  N_13 
REMARK   10  A    between atoms: C_14  and  C_15 
REMARK   11  A    between atoms: C_14  and  C_19 
REMARK   12  A    between atoms: C_15  and  C_16 
REMARK       I    between atoms: C_19  and  N_20 
REMARK   13  A    between atoms: N_20  and  C_22 
REMARK   14  A    between atoms: C_25  and  N_28 
ROOT
HETATM    1  C   UNK N   1       3.722  -1.065  -0.800  0.00  0.00     0.177 C 
ENDROOT
BRANCH   1   2
HETATM    2  N   UNK N   1       4.716  -1.492   0.174  0.00  0.00    -0.346 N 
HETATM    3  C   UNK N   1       5.743  -0.832   0.779  0.00  0.00     0.248 C 
HETATM    4  O   UNK N   1       6.413  -1.454   1.590  0.00  0.00    -0.271 OA
HETATM    5  H   UNK N   1       4.630  -2.434   0.446  0.00  0.00     0.163 HD
BRANCH   3   6
HETATM    6  C   UNK N   1       6.071   0.637   0.579  0.00  0.00     0.225 C 
BRANCH   6   7
HETATM    7  O   UNK N   1       5.393   1.203  -0.518  0.00  0.00    -0.282 OA
BRANCH   7   8
HETATM    8  P   UNK N   1       5.074   2.897  -0.200  0.00  0.00     0.391 P 
HETATM    9  O   UNK N   1       6.398   3.683  -0.396  0.00  0.00    -0.632 OA
BRANCH   8  10
HETATM   10  O   UNK N   1       3.937   3.527  -1.348  0.00  0.00    -0.307 OA
HETATM   11  H   UNK N   1       3.924   4.255  -1.990  0.00  0.00     0.222 HD
ENDBRANCH   8  10
BRANCH   8  12
HETATM   12  O   UNK N   1       4.516   3.186   1.420  0.00  0.00    -0.307 OA
HETATM   13  H   UNK N   1       4.500   3.536   2.324  0.00  0.00     0.222 HD
ENDBRANCH   8  12
ENDBRANCH   7   8
ENDBRANCH   6   7
BRANCH   6  14
HETATM   14  C   UNK N   1       7.585   0.858   0.454  0.00  0.00     0.042 C 
BRANCH  14  15
HETATM   15  C   UNK N   1       8.177   0.309  -0.832  0.00  0.00     0.003 C 
BRANCH  15  16
HETATM   16  C   UNK N   1       9.592  -0.172  -0.573  0.00  0.00    -0.004 C 
HETATM   17  C   UNK N   1       9.560  -1.627  -0.146  0.00  0.00     0.005 C 
ENDBRANCH  15  16
ENDBRANCH  14  15
ENDBRANCH   6  14
ENDBRANCH   3   6
ENDBRANCH   1   2
BRANCH   1  18
HETATM   18  C   UNK N   1       2.877  -2.312  -1.116  0.00  0.00     0.038 C 
BRANCH  18  19
HETATM   19  C   UNK N   1       2.141  -2.854   0.122  0.00  0.00    -0.020 C 
HETATM   20  C   UNK N   1       2.089  -4.364   0.084  0.00  0.00     0.009 C 
HETATM   21  C   UNK N   1       0.724  -2.318   0.205  0.00  0.00     0.009 C 
ENDBRANCH  18  19
ENDBRANCH   1  18
BRANCH   1  22
HETATM   22  C   UNK N   1       2.764   0.018  -0.342  0.00  0.00     0.245 C 
HETATM   23  N   UNK N   1       1.738   0.342  -1.176  0.00  0.00    -0.325 N 
HETATM   24  H   UNK N   1       1.784   0.020  -2.105  0.00  0.00     0.169 HD
HETATM   25  O   UNK N   1       2.825   0.482   0.788  0.00  0.00    -0.271 OA
BRANCH  23  26
HETATM   26  C   UNK N   1       0.610   1.108  -0.800  0.00  0.00     0.034 A 
HETATM   27  C   UNK N   1      -0.626   0.463  -0.763  0.00  0.00     0.032 A 
HETATM   28  C   UNK N   1      -1.767   1.135  -0.343  0.00  0.00     0.038 A 
HETATM   29  C   UNK N   1      -1.696   2.481   0.026  0.00  0.00     0.103 A 
HETATM   30  C   UNK N   1      -0.457   3.151  -0.046  0.00  0.00     0.038 A 
HETATM   31  C   UNK N   1       0.700   2.462  -0.448  0.00  0.00     0.032 A 
BRANCH  29  32
HETATM   32  N   UNK N   1      -2.865   3.141   0.493  0.00  0.00    -0.116 N 
HETATM   33  O   UNK N   1      -3.984   2.465   0.654  0.00  0.00    -0.532 OA
HETATM   34  O   UNK N   1      -2.829   4.296   0.794  0.00  0.00    -0.532 OA
ENDBRANCH  29  32
ENDBRANCH  23  26
ENDBRANCH   1  22
TORSDOF 14
