REMARK  3 active torsions:
REMARK  status: ('A' for Active; 'I' for Inactive)
REMARK    1  A    between atoms: C_1  and  S_14 
REMARK    2  A    between atoms: C_6  and  N_11 
REMARK    3  A    between atoms: S_14  and  N_17 
ROOT
HETATM    1  C   UNK N   1      -1.179  -1.325   0.005  0.00  0.00     0.090 A 
HETATM    2  C   UNK N   1      -2.298  -0.524   0.259  0.00  0.00     0.026 A 
HETATM    3  C   UNK N   1      -2.160   0.845   0.446  0.00  0.00     0.003 A 
HETATM    4  C   UNK N   1      -0.902   1.435   0.374  0.00  0.00     0.014 A 
HETATM    5  C   UNK N   1       0.248   0.675   0.108  0.00  0.00     0.002 A 
HETATM    6  C   UNK N   1       1.543   1.277   0.022  0.00  0.00     0.040 A 
HETATM    7  C   UNK N   1       2.642   0.441  -0.255  0.00  0.00     0.030 A 
HETATM    8  C   UNK N   1       2.489  -0.931  -0.439  0.00  0.00     0.003 A 
HETATM    9  C   UNK N   1       1.229  -1.513  -0.352  0.00  0.00     0.014 A 
HETATM   10  C   UNK N   1       0.101  -0.730  -0.081  0.00  0.00    -0.000 A 
ENDROOT
BRANCH   1  11
HETATM   11  S   UNK N   1      -1.447  -3.094  -0.226  0.00  0.00     0.257 S 
HETATM   12  O   UNK N   1      -0.393  -4.186   0.011  0.00  0.00    -0.201 OA
HETATM   13  O   UNK N   1      -2.830  -3.710   0.028  0.00  0.00    -0.201 OA
BRANCH  11  14
HETATM   14  N   UNK N   1      -1.385  -2.973   1.535  0.00  0.00    -0.324 N 
HETATM   15  H   UNK N   1      -1.306  -2.969   2.552  0.00  0.00     0.169 HD
HETATM   16  H   UNK N   1      -1.938  -2.116   1.535  0.00  0.00     0.169 HD
ENDBRANCH  11  14
ENDBRANCH   1  11
BRANCH   6  17
HETATM   17  N   UNK N   1       1.787   2.689   0.199  0.00  0.00    -0.389 N 
HETATM   18  C   UNK N   1       3.124   3.214   0.071  0.00  0.00     0.149 C 
HETATM   19  C   UNK N   1       0.748   3.639   0.511  0.00  0.00     0.149 C 
ENDBRANCH   6  17
TORSDOF 3
