REMARK  3 active torsions:
REMARK  status: ('A' for Active; 'I' for Inactive)
REMARK    1  A    between atoms: C_1  and  O_16 
REMARK    2  A    between atoms: C_11  and  O_17 
REMARK    3  A    between atoms: C_14  and  N_18 
ROOT
HETATM    1  C   UNK N   1       2.898  -1.451   0.000  0.00  0.00     0.082 A 
HETATM    2  C   UNK N   1       1.631  -0.814   0.000  0.00  0.00     0.082 A 
HETATM    3  C   UNK N   1       1.585   0.598  -0.000  0.00  0.00     0.093 A 
HETATM    4  C   UNK N   1       2.762   1.347  -0.000  0.00  0.00     0.038 A 
HETATM    5  C   UNK N   1       4.000   0.711  -0.000  0.00  0.00     0.006 A 
HETATM    6  C   UNK N   1       4.067  -0.682   0.000  0.00  0.00     0.037 A 
HETATM    7  O   UNK N   1       0.430   1.236  -0.000  0.00  0.00    -0.306 OA
HETATM    8  C   UNK N   1      -0.745   0.623  -0.000  0.00  0.00     0.126 A 
HETATM    9  C   UNK N   1      -0.811  -0.795   0.000  0.00  0.00     0.085 A 
HETATM   10  C   UNK N   1       0.406  -1.520   0.000  0.00  0.00     0.203 A 
HETATM   11  C   UNK N   1      -2.083  -1.422   0.000  0.00  0.00     0.082 A 
HETATM   12  C   UNK N   1      -3.242  -0.645   0.000  0.00  0.00     0.040 A 
HETATM   13  C   UNK N   1      -3.166   0.747  -0.000  0.00  0.00     0.042 A 
HETATM   14  C   UNK N   1      -1.926   1.397  -0.000  0.00  0.00     0.137 A 
HETATM   15  O   UNK N   1       0.398  -2.741   0.000  0.00  0.00    -0.286 OA
ENDROOT
BRANCH  14  16
HETATM   16  N   UNK N   1      -1.881   2.828  -0.000  0.00  0.00    -0.113 N 
HETATM   17  O   UNK N   1      -3.000   3.521  -0.000  0.00  0.00    -0.532 OA
HETATM   18  O   UNK N   1      -0.839   3.411  -0.000  0.00  0.00    -0.532 OA
ENDBRANCH  14  16
BRANCH  11  19
HETATM   19  O   UNK N   1      -2.203  -2.762   0.000  0.00  0.00    -0.360 OA
HETATM   20  H   UNK N   1      -3.054  -3.156   0.000  0.00  0.00     0.217 HD
ENDBRANCH  11  19
BRANCH   1  21
HETATM   21  O   UNK N   1       3.007  -2.791   0.000  0.00  0.00    -0.360 OA
HETATM   22  H   UNK N   1       2.236  -3.324   0.000  0.00  0.00     0.217 HD
ENDBRANCH   1  21
TORSDOF 3
