REMARK  6 active torsions:
REMARK  status: ('A' for Active; 'I' for Inactive)
REMARK    1  A    between atoms: S_2  and  C_3 
REMARK    2  A    between atoms: C_4  and  C_3 
REMARK    3  A    between atoms: C_6  and  O_7 
REMARK    4  A    between atoms: C_8  and  O_9 
REMARK    5  A    between atoms: C_10  and  N_11 
REMARK    6  A    between atoms: C_15  and  N_16 
ROOT
HETATM    1  N   UNK N   1       0.072   1.382   0.173  0.00  0.00    -0.312 N 
HETATM    2  C   UNK N   1      -0.752   2.455   0.054  0.00  0.00     0.096 A 
HETATM    3  C   UNK N   1       0.004   3.620  -0.119  0.00  0.00     0.036 A 
HETATM    4  C   UNK N   1       1.320   3.208  -0.068  0.00  0.00     0.053 A 
HETATM    5  C   UNK N   1       2.518   3.907  -0.126  0.00  0.00     0.113 A 
HETATM    6  N   UNK N   1       3.682   3.205  -0.004  0.00  0.00    -0.338 N 
ATOM      7  HN  UNK N   1       4.574   3.698  -0.046  1.00  0.00     0.168 HD
HETATM    8  C   UNK N   1       3.670   1.845   0.174  0.00  0.00     0.183 A 
HETATM    9  N   UNK N   1       2.485   1.166   0.236  0.00  0.00    -0.338 N 
ATOM     10  HN  UNK N   1       2.470   0.156   0.378  1.00  0.00     0.168 HD
HETATM   11  C   UNK N   1       1.328   1.863   0.105  0.00  0.00     0.124 A 
ENDROOT
BRANCH   1  12
HETATM   12  C   UNK N   1      -0.384   0.020   0.491  0.00  0.00     0.261 C 
HETATM   13  O   UNK N   1      -1.561  -0.324  -0.213  0.00  0.00    -0.355 OA
HETATM   14  C   UNK N   1      -1.644  -1.744  -0.143  0.00  0.00     0.165 C 
HETATM   15  C   UNK N   1      -0.302  -2.253   0.422  0.00  0.00     0.180 C 
HETATM   16  C   UNK N   1       0.607  -1.089   0.162  0.00  0.00     0.198 C 
BRANCH  14  17
HETATM   17  C   UNK N   1      -2.009  -2.302  -1.522  0.00  0.00     0.108 C 
BRANCH  17  18
HETATM   18  S   UNK N   1      -2.424  -4.086  -1.443  0.00  0.00    -0.171 SA
HETATM   19  C   UNK N   1      -4.039  -3.825  -0.647  0.00  0.00     0.089 C 
ENDBRANCH  17  18
ENDBRANCH  14  17
BRANCH  15  20
HETATM   20  O   UNK N   1       0.171  -3.451  -0.121  0.00  0.00    -0.390 OA
HETATM   21  H   UNK N   1      -0.385  -4.151  -0.498  0.00  0.00     0.210 HD
ENDBRANCH  15  20
BRANCH  16  22
HETATM   22  O   UNK N   1       0.955  -1.032  -1.194  0.00  0.00    -0.388 OA
HETATM   23  H   UNK N   1       1.109  -1.221  -2.133  0.00  0.00     0.210 HD
ENDBRANCH  16  22
ENDBRANCH   1  12
BRANCH   5  24
HETATM   24  N   UNK N   1       2.541   5.308  -0.280  0.00  0.00    -0.385 N 
HETATM   25  H   UNK N   1       3.396   5.783  -0.387  0.00  0.00     0.157 HD
HETATM   26  H   UNK N   1       1.697   5.814  -0.280  0.00  0.00     0.157 HD
ENDBRANCH   5  24
TORSDOF 6
