REMARK  7 active torsions:
REMARK  status: ('A' for Active; 'I' for Inactive)
REMARK    1  A    between atoms: C_2  and  O_3 
REMARK    2  A    between atoms: O_3  and  C_4 
REMARK    3  A    between atoms: C_5  and  C_6 
REMARK       I    between atoms: C_6  and  N_8 
REMARK    4  A    between atoms: N_8  and  C_9 
REMARK    5  A    between atoms: C_9  and  B_10 
REMARK    6  A    between atoms: B_10  and  O_11 
REMARK    7  A    between atoms: B_10  and  O_12 
ROOT
HETATM    1  C   UNK N   1      -1.806   0.533  -0.099  0.00  0.00     0.085 A 
HETATM    2  C   UNK N   1      -0.510  -0.062   0.007  0.00  0.00     0.076 A 
HETATM    3  C   UNK N   1       0.620   0.820   0.050  0.00  0.00    -0.007 A 
HETATM    4  C   UNK N   1       0.431   2.226  -0.064  0.00  0.00    -0.025 A 
HETATM    5  C   UNK N   1       1.521   3.100  -0.001  0.00  0.00     0.012 A 
HETATM    6  C   UNK N   1       2.809   2.605   0.190  0.00  0.00     0.001 A 
HETATM    7  C   UNK N   1       3.008   1.235   0.334  0.00  0.00     0.001 A 
HETATM    8  C   UNK N   1       1.922   0.359   0.271  0.00  0.00     0.013 A 
HETATM    9  C   UNK N   1      -0.841   2.757  -0.210  0.00  0.00     0.015 A 
HETATM   10  C   UNK N   1      -1.946   1.924  -0.216  0.00  0.00     0.039 A 
ENDROOT
BRANCH   2  11
HETATM   11  C   UNK N   1      -0.450  -1.586   0.138  0.00  0.00     0.254 C 
HETATM   12  O   UNK N   1      -1.427  -2.150   0.603  0.00  0.00    -0.268 OA
HETATM   13  N   UNK N   1       0.571  -2.393  -0.273  0.00  0.00    -0.360 N 
HETATM   14  H   UNK N   1       0.474  -3.345  -0.041  0.00  0.00     0.161 HD
BRANCH  13  15
HETATM   15  C   UNK N   1       1.767  -2.056  -0.993  0.00  0.00     0.143 C 
BRANCH  15  16
HETATM   16  B   UNK N   1       3.013  -2.695  -0.233  0.00  0.00     0.510 B 
BRANCH  16  17
HETATM   17  O   UNK N   1       4.090  -1.841   0.259  0.00  0.00    -0.436 OA
HETATM   18  H   UNK N   1       4.939  -2.177   0.586  0.00  0.00     0.184 HD
ENDBRANCH  16  17
BRANCH  16  19
HETATM   19  O   UNK N   1       3.035  -4.127   0.055  0.00  0.00    -0.436 OA
HETATM   20  H   UNK N   1       2.219  -4.615   0.247  0.00  0.00     0.184 HD
ENDBRANCH  16  19
ENDBRANCH  15  16
ENDBRANCH  13  15
ENDBRANCH   2  11
BRANCH   1  21
HETATM   21  O   UNK N   1      -2.912  -0.253  -0.081  0.00  0.00    -0.350 OA
BRANCH  21  22
HETATM   22  C   UNK N   1      -4.202   0.223  -0.038  0.00  0.00     0.171 C 
HETATM   23  C   UNK N   1      -5.135  -0.920   0.302  0.00  0.00     0.034 C 
ENDBRANCH  21  22
ENDBRANCH   1  21
TORSDOF 7
