REMARK  7 active torsions:
REMARK  status: ('A' for Active; 'I' for Inactive)
REMARK    1  A    between atoms: C_1  and  O_2 
REMARK    2  A    between atoms: O_2  and  C_13 
REMARK    3  A    between atoms: C_5  and  O_6 
REMARK    4  A    between atoms: C_7  and  O_8 
REMARK    5  A    between atoms: C_9  and  C_10 
REMARK    6  A    between atoms: C_14  and  N_15 
REMARK    7  A    between atoms: C_19  and  N_20 
ROOT
HETATM    1  C   UNK N   1      -3.723  -2.685  -0.206  0.00  0.00     0.198 C 
HETATM    2  O   UNK N   1      -3.926  -2.690  -1.586  0.00  0.00    -0.398 OA
HETATM    3  H   UNK N   1      -3.999  -2.570  -2.546  0.00  0.00     0.209 HD
ENDROOT
BRANCH   1   4
HETATM    4  C   UNK N   1      -2.418  -1.984   0.150  0.00  0.00     0.179 C 
HETATM    5  C   UNK N   1      -1.166  -2.796  -0.294  0.00  0.00     0.180 C 
HETATM    6  C   UNK N   1       0.118  -1.924  -0.212  0.00  0.00     0.188 C 
HETATM    7  C   UNK N   1      -0.134  -0.758   0.740  0.00  0.00     0.256 C 
HETATM    8  C   UNK N   1      -1.286   0.104   0.090  0.00  0.00     0.303 C 
HETATM    9  F   UNK N   1       1.011  -0.025   0.989  0.00  0.00    -0.241 F 
HETATM   10  O   UNK N   1      -2.399  -0.672  -0.378  0.00  0.00    -0.348 OA
BRANCH   5  11
HETATM   11  O   UNK N   1      -1.057  -3.911   0.544  0.00  0.00    -0.390 OA
HETATM   12  H   UNK N   1      -1.688  -4.364   1.124  0.00  0.00     0.210 HD
ENDBRANCH   5  11
BRANCH   6  13
HETATM   13  O   UNK N   1       1.225  -2.682   0.180  0.00  0.00    -0.390 OA
HETATM   14  H   UNK N   1       1.154  -3.611   0.452  0.00  0.00     0.210 HD
ENDBRANCH   6  13
BRANCH   8  15
HETATM   15  O   UNK N   1      -0.816   0.830  -1.006  0.00  0.00    -0.315 OA
BRANCH  15  16
HETATM   16  C   UNK N   1       0.143   1.777  -0.885  0.00  0.00     0.105 A 
HETATM   17  C   UNK N   1      -0.144   3.074  -0.384  0.00  0.00     0.138 A 
HETATM   18  C   UNK N   1       0.924   3.950  -0.136  0.00  0.00     0.075 A 
HETATM   19  C   UNK N   1       2.249   3.572  -0.394  0.00  0.00     0.105 A 
HETATM   20  C   UNK N   1       2.506   2.321  -0.965  0.00  0.00     0.039 A 
HETATM   21  C   UNK N   1       1.461   1.436  -1.213  0.00  0.00     0.042 A 
BRANCH  17  22
HETATM   22  N   UNK N   1      -1.478   3.515  -0.118  0.00  0.00    -0.113 N 
HETATM   23  O   UNK N   1      -1.684   4.728   0.354  0.00  0.00    -0.532 OA
HETATM   24  O   UNK N   1      -2.417   2.843  -0.418  0.00  0.00    -0.532 OA
ENDBRANCH  17  22
BRANCH  19  25
HETATM   25  N   UNK N   1       3.322   4.437  -0.048  0.00  0.00    -0.116 N 
HETATM   26  O   UNK N   1       3.079   5.589   0.541  0.00  0.00    -0.532 OA
HETATM   27  O   UNK N   1       4.453   4.091  -0.214  0.00  0.00    -0.532 OA
ENDBRANCH  19  25
ENDBRANCH  15  16
ENDBRANCH   8  15
ENDBRANCH   1   4
TORSDOF 7
