REMARK  6 active torsions:
REMARK  status: ('A' for Active; 'I' for Inactive)
REMARK    1  A    between atoms: C_7  and  C_8 
REMARK    2  A    between atoms: C_12  and  S_13 
REMARK    3  A    between atoms: S_13  and  N_16 
REMARK    4  A    between atoms: N_16  and  C_18 
REMARK    5  A    between atoms: C_23  and  C_24 
REMARK       I    between atoms: C_24  and  N_26 
REMARK    6  A    between atoms: N_26  and  O_27 
ROOT
HETATM    1  S   UNK N   1       1.089   0.013   1.071  0.00  0.00     0.271 S 
HETATM    2  O   UNK N   1       0.600  -0.582   2.400  0.00  0.00    -0.199 OA
HETATM    3  O   UNK N   1       2.104   1.062   1.552  0.00  0.00    -0.199 OA
ENDROOT
BRANCH   1   4
HETATM    4  C   UNK N   1      -0.204   0.773   0.139  0.00  0.00     0.121 A 
HETATM    5  S   UNK N   1       0.181   2.002  -0.838  0.00  0.00    -0.074 SA
HETATM    6  C   UNK N   1      -1.206   2.862  -0.755  0.00  0.00     0.033 A 
HETATM    7  C   UNK N   1      -2.110   2.144   0.039  0.00  0.00     0.023 A 
HETATM    8  C   UNK N   1      -1.526   0.956   0.569  0.00  0.00     0.034 A 
BRANCH   6   9
HETATM    9  C   UNK N   1      -1.125   4.315  -0.771  0.00  0.00     0.049 A 
HETATM   10  C   UNK N   1      -2.231   5.116  -0.485  0.00  0.00     0.031 A 
HETATM   11  C   UNK N   1      -2.030   6.476  -0.236  0.00  0.00     0.004 A 
HETATM   12  C   UNK N   1      -0.736   7.004  -0.220  0.00  0.00     0.017 A 
HETATM   13  C   UNK N   1       0.342   6.171  -0.499  0.00  0.00     0.088 A 
HETATM   14  N   UNK N   1       0.125   4.863  -0.768  0.00  0.00    -0.365 N 
ATOM     15  HN  UNK N   1       0.924   4.265  -0.975  1.00  0.00     0.165 HD
ENDBRANCH   6   9
ENDBRANCH   1   4
BRANCH   1  16
HETATM   16  N   UNK N   1       2.029  -1.251   0.313  0.00  0.00    -0.276 N 
HETATM   17  C   UNK N   1       3.449  -1.302   0.562  0.00  0.00     0.170 C 
BRANCH  16  18
HETATM   18  C   UNK N   1       1.310  -2.412  -0.047  0.00  0.00     0.044 A 
HETATM   19  C   UNK N   1       1.832  -3.685   0.212  0.00  0.00     0.031 A 
HETATM   20  C   UNK N   1       0.994  -4.800   0.141  0.00  0.00     0.019 A 
HETATM   21  C   UNK N   1      -0.357  -4.647  -0.207  0.00  0.00     0.034 A 
HETATM   22  C   UNK N   1      -0.846  -3.384  -0.550  0.00  0.00     0.019 A 
HETATM   23  C   UNK N   1      -0.022  -2.280  -0.456  0.00  0.00     0.031 A 
BRANCH  21  24
HETATM   24  C   UNK N   1      -1.302  -5.763  -0.114  0.00  0.00     0.275 C 
HETATM   25  O   UNK N   1      -0.917  -6.862   0.282  0.00  0.00    -0.265 OA
HETATM   26  N   UNK N   1      -2.610  -5.567  -0.389  0.00  0.00    -0.233 N 
HETATM   27  H   UNK N   1      -2.908  -4.684  -0.703  0.00  0.00     0.197 HD
BRANCH  26  28
HETATM   28  O   UNK N   1      -3.507  -6.547  -0.244  0.00  0.00    -0.287 OA
HETATM   29  H   UNK N   1      -4.449  -6.339  -0.139  0.00  0.00     0.244 HD
ENDBRANCH  26  28
ENDBRANCH  21  24
ENDBRANCH  16  18
ENDBRANCH   1  16
TORSDOF 6
