REMARK  1 active torsions:
REMARK  status: ('A' for Active; 'I' for Inactive)
REMARK    1  A    between atoms: C_1  and  O_2 
ROOT
HETATM    1  C   UNK N   1      -1.460   1.172  -0.000  0.00  0.00     0.093 A 
HETATM    2  C   UNK N   1      -0.252   0.466   0.000  0.00  0.00     0.082 A 
HETATM    3  N   UNK N   1       0.929   1.136   0.000  0.00  0.00    -0.343 N 
ATOM      4  HN  UNK N   1       0.927   2.156   0.000  1.00  0.00     0.167 HD
HETATM    5  C   UNK N   1       2.113   0.473   0.000  0.00  0.00     0.080 A 
HETATM    6  C   UNK N   1       3.384   1.241   0.000  0.00  0.00     0.089 C 
HETATM    7  N   UNK N   1       2.137  -0.887   0.000  0.00  0.00    -0.313 N 
HETATM    8  C   UNK N   1       0.974  -1.613  -0.000  0.00  0.00     0.259 A 
HETATM    9  O   UNK N   1       1.023  -2.832  -0.000  0.00  0.00    -0.267 OA
HETATM   10  C   UNK N   1      -0.258  -0.944  -0.000  0.00  0.00     0.061 A 
HETATM   11  C   UNK N   1      -1.480  -1.634  -0.000  0.00  0.00     0.019 A 
HETATM   12  C   UNK N   1      -2.684  -0.921  -0.000  0.00  0.00     0.004 A 
HETATM   13  C   UNK N   1      -2.673   0.477  -0.000  0.00  0.00     0.039 A 
HETATM   14  H   UNK N   1       3.002  -1.356   0.000  0.00  0.00     0.170 HD
ENDROOT
BRANCH   1  15
HETATM   15  O   UNK N   1      -1.460   2.516   0.000  0.00  0.00    -0.358 OA
HETATM   16  H   UNK N   1      -0.648   2.984   0.000  0.00  0.00     0.217 HD
ENDBRANCH   1  15
TORSDOF 1
