REMARK  5 active torsions:
REMARK  status: ('A' for Active; 'I' for Inactive)
REMARK    1  A    between atoms: C_3  and  N_10 
REMARK    2  A    between atoms: C_4  and  C_7 
REMARK    3  A    between atoms: C_7  and  O_9 
REMARK       I    between atoms: N_10  and  C_11 
REMARK    4  A    between atoms: C_11  and  C_13 
REMARK    5  A    between atoms: C_13  and  O_15 
ROOT
HETATM    1  C   UNK N   1       1.097   2.549   0.000  0.00  0.00     0.002 A 
HETATM    2  C   UNK N   1       1.250   1.161   0.000  0.00  0.00     0.030 A 
HETATM    3  C   UNK N   1       0.126   0.316  -0.000  0.00  0.00     0.052 A 
HETATM    4  C   UNK N   1      -1.171   0.886  -0.000  0.00  0.00     0.064 A 
HETATM    5  C   UNK N   1      -1.304   2.284  -0.000  0.00  0.00     0.020 A 
HETATM    6  C   UNK N   1      -0.180   3.110  -0.000  0.00  0.00     0.001 A 
ENDROOT
BRANCH   3   7
HETATM    7  N   UNK N   1       0.263  -1.102  -0.000  0.00  0.00    -0.317 N 
HETATM    8  C   UNK N   1       1.408  -1.832   0.000  0.00  0.00     0.319 C 
HETATM    9  O   UNK N   1       2.505  -1.293   0.000  0.00  0.00    -0.261 OA
HETATM   10  H   UNK N   1      -0.576  -1.617  -0.000  0.00  0.00     0.169 HD
BRANCH   8  11
HETATM   11  C   UNK N   1       1.305  -3.302   0.000  0.00  0.00     0.237 C 
HETATM   12  O   UNK N   1       2.310  -3.994   0.000  0.00  0.00    -0.643 OA
BRANCH  11  13
HETATM   13  O   UNK N   1       0.091  -3.889   0.000  0.00  0.00    -0.769 OA
HETATM   14  H   UNK N   1      -0.684  -3.362   0.000  0.00  0.00     0.168 HD
ENDBRANCH  11  13
ENDBRANCH   8  11
ENDBRANCH   3   7
BRANCH   4  15
HETATM   15  C   UNK N   1      -2.405   0.049  -0.000  0.00  0.00     0.178 C 
HETATM   16  O   UNK N   1      -3.503   0.583  -0.000  0.00  0.00    -0.646 OA
BRANCH  15  17
HETATM   17  O   UNK N   1      -2.335  -1.297  -0.000  0.00  0.00    -0.773 OA
HETATM   18  H   UNK N   1      -3.121  -1.807  -0.000  0.00  0.00     0.167 HD
ENDBRANCH  15  17
ENDBRANCH   4  15
TORSDOF 5
