REMARK  5 active torsions:
REMARK  status: ('A' for Active; 'I' for Inactive)
REMARK    1  A    between atoms: C_3  and  N_8 
REMARK    2  A    between atoms: C_4  and  C_7 
REMARK    3  A    between atoms: N_8  and  C_13 
REMARK    4  A    between atoms: C_12  and  C_15 
REMARK    5  A    between atoms: C_15  and  O_16 
ROOT
HETATM    1  N   UNK N   1      -0.193  -0.475  -0.186  0.00  0.00    -0.355 N 
HETATM    2  H   UNK N   1      -0.260  -1.457  -0.217  0.00  0.00     0.166 HD
ENDROOT
BRANCH   1   3
HETATM    3  C   UNK N   1      -1.433   0.240  -0.161  0.00  0.00     0.047 A 
HETATM    4  C   UNK N   1      -1.457   1.645  -0.176  0.00  0.00     0.030 A 
HETATM    5  C   UNK N   1      -2.660   2.350  -0.144  0.00  0.00     0.002 A 
HETATM    6  C   UNK N   1      -3.867   1.660  -0.093  0.00  0.00     0.001 A 
HETATM    7  C   UNK N   1      -3.871   0.267  -0.075  0.00  0.00     0.018 A 
HETATM    8  C   UNK N   1      -2.673  -0.462  -0.112  0.00  0.00     0.074 A 
BRANCH   8   9
HETATM    9  C   UNK N   1      -2.791  -1.971  -0.092  0.00  0.00     0.419 C 
HETATM   10  F   UNK N   1      -3.409  -2.365   1.080  0.00  0.00    -0.166 F 
HETATM   11  F   UNK N   1      -3.563  -2.380  -1.164  0.00  0.00    -0.166 F 
HETATM   12  F   UNK N   1      -1.581  -2.618  -0.173  0.00  0.00    -0.166 F 
ENDBRANCH   8   9
ENDBRANCH   1   3
BRANCH   1  13
HETATM   13  C   UNK N   1       1.136   0.064  -0.171  0.00  0.00     0.049 A 
HETATM   14  C   UNK N   1       2.262  -0.804  -0.160  0.00  0.00     0.064 A 
HETATM   15  C   UNK N   1       3.553  -0.250  -0.112  0.00  0.00     0.020 A 
HETATM   16  C   UNK N   1       3.743   1.130  -0.087  0.00  0.00     0.001 A 
HETATM   17  C   UNK N   1       2.643   1.982  -0.104  0.00  0.00     0.002 A 
HETATM   18  C   UNK N   1       1.352   1.453  -0.140  0.00  0.00     0.030 A 
BRANCH  14  19
HETATM   19  C   UNK N   1       2.144  -2.286  -0.198  0.00  0.00     0.178 C 
HETATM   20  O   UNK N   1       3.138  -2.981  -0.073  0.00  0.00    -0.646 OA
BRANCH  19  21
HETATM   21  O   UNK N   1       0.956  -2.883  -0.395  0.00  0.00    -0.773 OA
HETATM   22  H   UNK N   1       0.182  -2.374  -0.533  0.00  0.00     0.167 HD
ENDBRANCH  19  21
ENDBRANCH  14  19
ENDBRANCH   1  13
TORSDOF 5
