REMARK  7 active torsions:
REMARK  status: ('A' for Active; 'I' for Inactive)
REMARK    1  A    between atoms: O_1  and  C_3 
REMARK    2  A    between atoms: C_3  and  C_8 
REMARK    3  A    between atoms: C_9  and  C_10 
REMARK    4  A    between atoms: C_10  and  C_11 
REMARK    5  A    between atoms: C_11  and  C_13 
REMARK    6  A    between atoms: C_13  and  C_14 
REMARK    7  A    between atoms: C_14  and  O_16 
ROOT
HETATM    1  C   UNK N   1      -0.333  -1.332  -0.142  0.00  0.00     0.016 A 
HETATM    2  C   UNK N   1      -1.449  -2.162  -0.096  0.00  0.00     0.001 A 
HETATM    3  C   UNK N   1      -2.717  -1.610   0.024  0.00  0.00     0.001 A 
HETATM    4  C   UNK N   1      -2.869  -0.228   0.076  0.00  0.00     0.019 A 
HETATM    5  C   UNK N   1      -1.766   0.641   0.028  0.00  0.00     0.051 A 
HETATM    6  C   UNK N   1      -0.445   0.069  -0.066  0.00  0.00     0.026 A 
ENDROOT
BRANCH   6   7
HETATM    7  C   UNK N   1       0.841   0.842  -0.088  0.00  0.00     0.161 C 
HETATM    8  O   UNK N   1       0.898   1.993   0.300  0.00  0.00    -0.292 OA
BRANCH   7   9
HETATM    9  C   UNK N   1       2.113   0.216  -0.574  0.00  0.00     0.094 C 
BRANCH   9  10
HETATM   10  C   UNK N   1       2.716  -0.732   0.445  0.00  0.00     0.117 C 
BRANCH  10  11
HETATM   11  C   UNK N   1       4.161  -0.934   0.129  0.00  0.00     0.139 C 
HETATM   12  O   UNK N   1       4.928   0.017   0.135  0.00  0.00    -0.650 OA
BRANCH  11  13
HETATM   13  O   UNK N   1       4.623  -2.165  -0.156  0.00  0.00    -0.776 OA
HETATM   14  H   UNK N   1       4.042  -2.872  -0.354  0.00  0.00     0.167 HD
ENDBRANCH  11  13
ENDBRANCH  10  11
ENDBRANCH   9  10
ENDBRANCH   7   9
ENDBRANCH   6   7
BRANCH   5  15
HETATM   15  C   UNK N   1      -2.102   2.101   0.017  0.00  0.00     0.177 C 
HETATM   16  O   UNK N   1      -1.264   2.960  -0.170  0.00  0.00    -0.646 OA
BRANCH  15  17
HETATM   17  O   UNK N   1      -3.391   2.481   0.140  0.00  0.00    -0.773 OA
HETATM   18  H   UNK N   1      -3.611   3.388   0.225  0.00  0.00     0.167 HD
ENDBRANCH  15  17
ENDBRANCH   5  15
TORSDOF 7
