REMARK  21 active torsions:
REMARK  status: ('A' for Active; 'I' for Inactive)
REMARK    1  A    between atoms: S_1  and  C_2 
REMARK    2  A    between atoms: C_2  and  C_3 
REMARK    3  A    between atoms: C_3  and  O_4 
REMARK    4  A    between atoms: O_4  and  C_5 
REMARK    5  A    between atoms: C_5  and  C_6 
REMARK    6  A    between atoms: C_6  and  O_7 
REMARK    7  A    between atoms: O_7  and  C_8 
REMARK    8  A    between atoms: C_8  and  C_9 
REMARK    9  A    between atoms: C_9  and  O_10 
REMARK   10  A    between atoms: O_10  and  C_11 
REMARK   11  A    between atoms: C_11  and  C_12 
REMARK   12  A    between atoms: C_12  and  O_13 
REMARK   13  A    between atoms: O_13  and  C_14 
REMARK   14  A    between atoms: C_14  and  C_15 
REMARK   15  A    between atoms: C_15  and  O_16 
REMARK   16  A    between atoms: O_16  and  C_17 
REMARK   17  A    between atoms: C_17  and  C_18 
REMARK   18  A    between atoms: C_18  and  O_19 
REMARK   19  A    between atoms: O_19  and  C_20 
REMARK   20  A    between atoms: C_20  and  C_21 
REMARK   21  A    between atoms: C_21  and  O_22 
ROOT
HETATM    1  C   UNK N   1      -0.677  -0.078   0.394  0.00  0.00     0.193 C 
ENDROOT
BRANCH   1   2
HETATM    2  O   UNK N   1      -1.752   0.768   0.108  0.00  0.00    -0.387 OA
BRANCH   2   3
HETATM    3  C   UNK N   1      -2.769  -0.068  -0.367  0.00  0.00     0.193 C 
BRANCH   3   4
HETATM    4  C   UNK N   1      -4.035   0.141   0.452  0.00  0.00     0.193 C 
BRANCH   4   5
HETATM    5  O   UNK N   1      -5.050  -0.702  -0.015  0.00  0.00    -0.387 OA
BRANCH   5   6
HETATM    6  C   UNK N   1      -6.092   0.146  -0.403  0.00  0.00     0.193 C 
BRANCH   6   7
HETATM    7  C   UNK N   1      -7.339  -0.156   0.413  0.00  0.00     0.193 C 
BRANCH   7   8
HETATM    8  O   UNK N   1      -8.399   0.635  -0.038  0.00  0.00    -0.388 OA
BRANCH   8   9
HETATM    9  C   UNK N   1      -9.451  -0.255  -0.267  0.00  0.00     0.177 C 
BRANCH   9  10
HETATM   10  C   UNK N   1     -10.750   0.368   0.207  0.00  0.00     0.097 C 
BRANCH  10  11
HETATM   11  S   UNK N   1     -12.122  -0.790  -0.058  0.00  0.00    -0.180 SA
HETATM   12  H   UNK N   1     -13.387  -0.333  -0.257  0.00  0.00     0.101 HD
ENDBRANCH  10  11
ENDBRANCH   9  10
ENDBRANCH   8   9
ENDBRANCH   7   8
ENDBRANCH   6   7
ENDBRANCH   5   6
ENDBRANCH   4   5
ENDBRANCH   3   4
ENDBRANCH   2   3
ENDBRANCH   1   2
BRANCH   1  13
HETATM   13  C   UNK N   1       0.541   0.336  -0.418  0.00  0.00     0.193 C 
BRANCH  13  14
HETATM   14  O   UNK N   1       1.608  -0.521  -0.140  0.00  0.00    -0.387 OA
BRANCH  14  15
HETATM   15  C   UNK N   1       2.702   0.317   0.082  0.00  0.00     0.193 C 
BRANCH  15  16
HETATM   16  C   UNK N   1       3.989  -0.488   0.024  0.00  0.00     0.193 C 
BRANCH  16  17
HETATM   17  O   UNK N   1       5.080   0.380  -0.015  0.00  0.00    -0.387 OA
BRANCH  17  18
HETATM   18  C   UNK N   1       6.173  -0.413  -0.367  0.00  0.00     0.193 C 
BRANCH  18  19
HETATM   19  C   UNK N   1       7.351  -0.079   0.533  0.00  0.00     0.193 C 
BRANCH  19  20
HETATM   20  O   UNK N   1       8.512  -0.676   0.038  0.00  0.00    -0.387 OA
BRANCH  20  21
HETATM   21  C   UNK N   1       9.325   0.388  -0.362  0.00  0.00     0.193 C 
BRANCH  21  22
HETATM   22  C   UNK N   1      10.688   0.266   0.293  0.00  0.00     0.190 C 
BRANCH  22  23
HETATM   23  O   UNK N   1      11.490   1.338  -0.095  0.00  0.00    -0.399 OA
HETATM   24  H   UNK N   1      12.416   1.228  -0.364  0.00  0.00     0.209 HD
ENDBRANCH  22  23
ENDBRANCH  21  22
ENDBRANCH  20  21
ENDBRANCH  19  20
ENDBRANCH  18  19
ENDBRANCH  17  18
ENDBRANCH  16  17
ENDBRANCH  15  16
ENDBRANCH  14  15
ENDBRANCH  13  14
ENDBRANCH   1  13
TORSDOF 21
