REMARK  5 active torsions:
REMARK  status: ('A' for Active; 'I' for Inactive)
REMARK    1  A    between atoms: N_6  and  C_10 
REMARK    2  A    between atoms: C_17  and  O_18 
REMARK    3  A    between atoms: O_18  and  C_19 
REMARK    4  A    between atoms: C_22  and  C_23 
REMARK    5  A    between atoms: C_26  and  O_28 
ROOT
HETATM    1  C   UNK N   1       3.354  -0.563  -0.000  0.00  0.00     0.062 A 
HETATM    2  C   UNK N   1       2.266  -1.416   0.001  0.00  0.00     0.041 A 
HETATM    3  C   UNK N   1       0.959  -0.982   0.001  0.00  0.00    -0.025 A 
HETATM    4  C   UNK N   1       0.003  -2.105   0.002  0.00  0.00     0.051 C 
HETATM    5  C   UNK N   1       3.110   0.818  -0.000  0.00  0.00     0.041 A 
HETATM    6  C   UNK N   1       1.788   1.310  -0.000  0.00  0.00    -0.025 A 
HETATM    7  C   UNK N   1       1.585   2.789  -0.001  0.00  0.00     0.051 C 
HETATM    8  C   UNK N   1       0.670   0.428   0.000  0.00  0.00     0.088 A 
ENDROOT
BRANCH   8   9
HETATM    9  O   UNK N   1      -0.589   1.012   0.000  0.00  0.00    -0.310 OA
BRANCH   9  10
HETATM   10  C   UNK N   1      -1.892   0.577  -0.000  0.00  0.00     0.076 A 
HETATM   11  C   UNK N   1      -2.236  -0.766  -0.003  0.00  0.00     0.040 A 
HETATM   12  C   UNK N   1      -3.550  -1.201  -0.002  0.00  0.00     0.040 A 
HETATM   13  C   UNK N   1      -4.584  -0.281  -0.000  0.00  0.00     0.072 A 
HETATM   14  C   UNK N   1      -4.295   1.103   0.002  0.00  0.00    -0.019 A 
HETATM   15  C   UNK N   1      -2.940   1.519   0.002  0.00  0.00     0.047 A 
BRANCH  13  16
HETATM   16  O   UNK N   1      -5.846  -0.741   0.000  0.00  0.00    -0.360 OA
HETATM   17  H   UNK N   1      -6.564  -0.139   0.001  0.00  0.00     0.217 HD
ENDBRANCH  13  16
BRANCH  14  18
HETATM   18  C   UNK N   1      -5.400   2.141   0.005  0.00  0.00     0.013 C 
HETATM   19  C   UNK N   1      -6.876   1.774  -0.003  0.00  0.00     0.015 C 
HETATM   20  C   UNK N   1      -5.065   3.621  -0.002  0.00  0.00     0.015 C 
ENDBRANCH  14  18
ENDBRANCH   9  10
ENDBRANCH   8   9
BRANCH   1  21
HETATM   21  N   UNK N   1       4.675  -1.166  -0.000  0.00  0.00    -0.206 N 
HETATM   22  C   UNK N   1       5.861  -0.448  -0.000  0.00  0.00     0.348 A 
HETATM   23  O   UNK N   1       5.862   0.769  -0.000  0.00  0.00    -0.245 OA
HETATM   24  N   UNK N   1       7.056  -1.121  -0.000  0.00  0.00    -0.273 N 
HETATM   25  C   UNK N   1       7.083  -2.488  -0.000  0.00  0.00     0.266 A 
HETATM   26  H   UNK N   1       7.901  -0.616  -0.000  0.00  0.00     0.173 HD
HETATM   27  O   UNK N   1       8.144  -3.084  -0.000  0.00  0.00    -0.267 OA
HETATM   28  C   UNK N   1       5.895  -3.191   0.000  0.00  0.00     0.182 A 
HETATM   29  N   UNK N   1       4.728  -2.505   0.000  0.00  0.00    -0.296 N 
ATOM     30  HN  UNK N   1       3.853  -3.029   0.000  1.00  0.00     0.187 HD
ENDBRANCH   1  21
TORSDOF 5
