REMARK  8 active torsions:
REMARK  status: ('A' for Active; 'I' for Inactive)
REMARK    1  A    between atoms: C_1  and  C_9 
REMARK    2  A    between atoms: C_2  and  C_10 
REMARK    3  A    between atoms: C_4  and  C_7 
REMARK    4  A    between atoms: C_5  and  C_8 
REMARK    5  A    between atoms: C_7  and  O_16 
REMARK    6  A    between atoms: C_8  and  O_18 
REMARK    7  A    between atoms: C_9  and  O_12 
REMARK    8  A    between atoms: C_10  and  O_14 
ROOT
HETATM    1  C   UNK N   1       1.257   0.660  -0.000  0.00  0.00     0.055 A 
HETATM    2  C   UNK N   1       1.300  -0.773  -0.001  0.00  0.00     0.055 A 
HETATM    3  C   UNK N   1       0.002   1.277   0.000  0.00  0.00     0.038 A 
HETATM    4  C   UNK N   1      -1.181  -0.842   0.001  0.00  0.00     0.055 A 
HETATM    5  C   UNK N   1      -1.217   0.591   0.001  0.00  0.00     0.055 A 
HETATM    6  C   UNK N   1       0.078  -1.462  -0.000  0.00  0.00     0.038 A 
ENDROOT
BRANCH   1   7
HETATM    7  C   UNK N   1       2.416   1.608  -0.000  0.00  0.00     0.177 C 
HETATM    8  O   UNK N   1       3.570   1.232   0.002  0.00  0.00    -0.646 OA
BRANCH   7   9
HETATM    9  O   UNK N   1       2.178   2.936  -0.002  0.00  0.00    -0.773 OA
HETATM   10  H   UNK N   1       2.894   3.541  -0.004  0.00  0.00     0.167 HD
ENDBRANCH   7   9
ENDBRANCH   1   7
BRANCH   2  11
HETATM   11  C   UNK N   1       2.521  -1.649  -0.002  0.00  0.00     0.177 C 
HETATM   12  O   UNK N   1       2.382  -2.863  -0.001  0.00  0.00    -0.646 OA
BRANCH  11  13
HETATM   13  O   UNK N   1       3.769  -1.160  -0.004  0.00  0.00    -0.773 OA
HETATM   14  H   UNK N   1       4.502  -1.745  -0.005  0.00  0.00     0.167 HD
ENDBRANCH  11  13
ENDBRANCH   2  11
BRANCH   5  15
HETATM   15  C   UNK N   1      -2.426   1.475   0.001  0.00  0.00     0.177 C 
HETATM   16  O   UNK N   1      -3.558   1.035   0.002  0.00  0.00    -0.646 OA
BRANCH  15  17
HETATM   17  O   UNK N   1      -2.262   2.814   0.001  0.00  0.00    -0.773 OA
HETATM   18  H   UNK N   1      -1.399   3.180   0.001  0.00  0.00     0.167 HD
ENDBRANCH  15  17
ENDBRANCH   5  15
BRANCH   4  19
HETATM   19  C   UNK N   1      -2.352  -1.783   0.001  0.00  0.00     0.177 C 
HETATM   20  O   UNK N   1      -2.146  -2.988   0.001  0.00  0.00    -0.646 OA
BRANCH  19  21
HETATM   21  O   UNK N   1      -3.625  -1.364   0.001  0.00  0.00    -0.773 OA
HETATM   22  H   UNK N   1      -3.816  -0.447   0.001  0.00  0.00     0.167 HD
ENDBRANCH  19  21
ENDBRANCH   4  19
TORSDOF 8
