REMARK  3 active torsions:
REMARK  status: ('A' for Active; 'I' for Inactive)
REMARK    1  A    between atoms: N_1  and  C_21 
REMARK    2  A    between atoms: C_7  and  N_13 
REMARK    3  A    between atoms: C_12  and  C_14 
ROOT
HETATM    1  N   UNK N   1      -0.089  -1.779  -0.260  0.00  0.00    -0.266 N 
HETATM    2  C   UNK N   1       3.506  -1.562   0.059  0.00  0.00     0.183 A 
HETATM    3  N   UNK N   1       2.288  -2.159  -0.087  0.00  0.00    -0.336 N 
ATOM      4  HN  UNK N   1       2.210  -3.173  -0.174  1.00  0.00     0.168 HD
HETATM    5  C   UNK N   1       1.186  -1.375  -0.112  0.00  0.00     0.140 A 
HETATM    6  C   UNK N   1       1.237  -0.014  -0.003  0.00  0.00     0.082 A 
HETATM    7  C   UNK N   1       2.491   0.595   0.152  0.00  0.00     0.116 A 
HETATM    8  N   UNK N   1       3.600  -0.201   0.178  0.00  0.00    -0.338 N 
ATOM      9  HN  UNK N   1       4.519   0.227   0.289  1.00  0.00     0.168 HD
HETATM   10  N   UNK N   1      -0.873  -0.710  -0.238  0.00  0.00    -0.294 N 
ATOM     11  HN  UNK N   1      -1.889  -0.717  -0.324  1.00  0.00     0.187 HD
HETATM   12  C   UNK N   1      -0.101   0.397  -0.081  0.00  0.00     0.076 A 
ENDROOT
BRANCH  12  13
HETATM   13  C   UNK N   1      -0.702   1.751  -0.034  0.00  0.00    -0.007 A 
HETATM   14  C   UNK N   1      -2.100   1.868   0.039  0.00  0.00     0.014 A 
HETATM   15  C   UNK N   1      -2.710   3.124   0.067  0.00  0.00     0.007 A 
HETATM   16  C   UNK N   1      -1.928   4.279   0.008  0.00  0.00    -0.062 A 
HETATM   17  C   UNK N   1      -0.537   4.176  -0.069  0.00  0.00     0.007 A 
HETATM   18  C   UNK N   1      -2.576   5.616   0.021  0.00  0.00     0.048 C 
HETATM   19  C   UNK N   1       0.071   2.916  -0.085  0.00  0.00     0.014 A 
ENDBRANCH  12  13
BRANCH   7  20
HETATM   20  N   UNK N   1       2.638   1.988   0.288  0.00  0.00    -0.385 N 
HETATM   21  H   UNK N   1       3.533   2.386   0.383  0.00  0.00     0.157 HD
HETATM   22  H   UNK N   1       1.842   2.567   0.288  0.00  0.00     0.157 HD
ENDBRANCH   7  20
BRANCH   1  23
HETATM   23  C   UNK N   1      -0.574  -3.158  -0.428  0.00  0.00     0.044 C 
HETATM   24  C   UNK N   1      -0.321  -3.954   0.838  0.00  0.00     0.039 C 
HETATM   25  C   UNK N   1      -2.067  -3.182  -0.718  0.00  0.00     0.039 C 
HETATM   26  C   UNK N   1       0.137  -3.829  -1.591  0.00  0.00     0.039 C 
ENDBRANCH   1  23
TORSDOF 3
