REMARK  3 active torsions:
REMARK  status: ('A' for Active; 'I' for Inactive)
REMARK    1  A    between atoms: C_7  and  N_22 
REMARK    2  A    between atoms: C_9  and  C_12 
REMARK    3  A    between atoms: N_11  and  C_18 
ROOT
HETATM    1  C   UNK N   1       1.384   1.346   0.100  0.00  0.00     0.140 A 
HETATM    2  N   UNK N   1       2.445   2.146   0.373  0.00  0.00    -0.336 N 
ATOM      3  HN  UNK N   1       2.353   3.161   0.353  1.00  0.00     0.168 HD
HETATM    4  C   UNK N   1       3.637   1.559   0.676  0.00  0.00     0.183 A 
HETATM    5  N   UNK N   1       3.752   0.195   0.696  0.00  0.00    -0.338 N 
ATOM      6  HN  UNK N   1       4.654  -0.225   0.921  1.00  0.00     0.168 HD
HETATM    7  C   UNK N   1       2.688  -0.616   0.424  0.00  0.00     0.116 A 
HETATM    8  C   UNK N   1       1.457  -0.016   0.116  0.00  0.00     0.082 A 
HETATM    9  C   UNK N   1       0.152  -0.439  -0.182  0.00  0.00     0.076 A 
HETATM   10  N   UNK N   1      -0.617   0.664  -0.375  0.00  0.00    -0.294 N 
HETATM   11  N   UNK N   1       0.138   1.746  -0.203  0.00  0.00    -0.266 N 
HETATM   12  H   UNK N   1      -1.575   0.664  -0.604  0.00  0.00     0.187 HD
ENDROOT
BRANCH   9  13
HETATM   13  C   UNK N   1      -0.427  -1.804  -0.219  0.00  0.00    -0.007 A 
HETATM   14  C   UNK N   1       0.361  -2.951  -0.077  0.00  0.00     0.015 A 
HETATM   15  C   UNK N   1      -0.224  -4.217  -0.009  0.00  0.00     0.024 A 
HETATM   16  C   UNK N   1      -1.612  -4.348  -0.072  0.00  0.00     0.034 A 
HETATM   17  C   UNK N   1      -2.412  -3.214  -0.231  0.00  0.00     0.024 A 
HETATM   18 Cl   UNK N   1      -2.349  -5.928   0.077  0.00  0.00    -0.084 Cl
HETATM   19  C   UNK N   1      -1.821  -1.948  -0.308  0.00  0.00     0.015 A 
ENDBRANCH   9  13
BRANCH   7  20
HETATM   20  N   UNK N   1       2.860  -2.011   0.461  0.00  0.00    -0.385 N 
HETATM   21  H   UNK N   1       2.074  -2.603   0.487  0.00  0.00     0.157 HD
HETATM   22  H   UNK N   1       3.766  -2.395   0.461  0.00  0.00     0.157 HD
ENDBRANCH   7  20
BRANCH  11  23
HETATM   23  C   UNK N   1      -0.352   3.129  -0.304  0.00  0.00     0.044 C 
HETATM   24  C   UNK N   1      -0.248   3.810   1.049  0.00  0.00     0.039 C 
HETATM   25  C   UNK N   1      -1.806   3.168  -0.746  0.00  0.00     0.039 C 
HETATM   26  C   UNK N   1       0.470   3.907  -1.317  0.00  0.00     0.039 C 
ENDBRANCH  11  23
TORSDOF 3
