REMARK  6 active torsions:
REMARK  status: ('A' for Active; 'I' for Inactive)
REMARK    1  A    between atoms: C_8  and  N_9 
REMARK    2  A    between atoms: N_9  and  C_18 
REMARK    3  A    between atoms: C_12  and  N_13 
REMARK       I    between atoms: C_16  and  N_17 
REMARK    4  A    between atoms: C_18  and  C_19 
REMARK    5  A    between atoms: C_20  and  O_25 
REMARK    6  A    between atoms: C_23  and  O_27 
ROOT
HETATM    1  C   UNK N   1       3.548   0.751   0.118  0.00  0.00     0.055 A 
HETATM    2  C   UNK N   1       3.312   2.125  -0.041  0.00  0.00     0.135 A 
HETATM    3  N   UNK N   1       4.357   2.994  -0.001  0.00  0.00    -0.176 N 
ATOM      4  HN  UNK N   1       4.185   3.994  -0.110  1.00  0.00     0.186 HD
HETATM    5  N   UNK N   1       2.045   2.577  -0.255  0.00  0.00    -0.349 N 
ATOM      6  HN  UNK N   1       1.884   3.580  -0.352  1.00  0.00     0.167 HD
HETATM    7  C   UNK N   1       0.984   1.721  -0.343  0.00  0.00     0.119 A 
HETATM    8  C   UNK N   1       1.173   0.337  -0.181  0.00  0.00     0.046 A 
HETATM    9  C   UNK N   1       2.474  -0.133   0.061  0.00  0.00     0.050 A 
HETATM   10  C   UNK N   1       4.862   0.310   0.305  0.00  0.00     0.128 A 
HETATM   11  N   UNK N   1       5.874   1.216   0.331  0.00  0.00    -0.176 N 
ATOM     12  HN  UNK N   1       6.833   0.893   0.463  1.00  0.00     0.186 HD
HETATM   13  C   UNK N   1       5.630   2.546   0.183  0.00  0.00     0.679 A 
HETATM   14  N   UNK N   1       6.701   3.460   0.209  0.00  0.00    -0.234 N 
HETATM   15  H   UNK N   1       7.629   3.132   0.226  0.00  0.00     0.174 HD
HETATM   16  H   UNK N   1       6.521   4.428   0.209  0.00  0.00     0.174 HD
ENDROOT
BRANCH   8  17
HETATM   17  N   UNK N   1       0.098  -0.596  -0.339  0.00  0.00    -0.380 N 
HETATM   18  C   UNK N   1       0.387  -1.997  -0.148  0.00  0.00     0.150 C 
BRANCH  17  19
HETATM   19  C   UNK N   1      -1.102  -0.216  -1.075  0.00  0.00     0.164 C 
BRANCH  19  20
HETATM   20  C   UNK N   1      -2.450  -0.516  -0.441  0.00  0.00    -0.004 A 
HETATM   21  C   UNK N   1      -2.891  -1.828  -0.130  0.00  0.00     0.076 A 
HETATM   22  C   UNK N   1      -4.193  -2.021   0.365  0.00  0.00     0.040 A 
HETATM   23  C   UNK N   1      -5.065  -0.949   0.513  0.00  0.00     0.039 A 
HETATM   24  C   UNK N   1      -4.652   0.347   0.179  0.00  0.00     0.069 A 
HETATM   25  C   UNK N   1      -3.345   0.555  -0.284  0.00  0.00     0.048 A 
BRANCH  21  26
HETATM   26  O   UNK N   1      -2.082  -2.892  -0.334  0.00  0.00    -0.355 OA
HETATM   27  C   UNK N   1      -2.425  -4.187  -0.015  0.00  0.00     0.210 C 
ENDBRANCH  21  26
BRANCH  24  28
HETATM   28  O   UNK N   1      -5.501   1.399   0.266  0.00  0.00    -0.356 OA
HETATM   29  C   UNK N   1      -6.830   1.267   0.609  0.00  0.00     0.210 C 
ENDBRANCH  24  28
ENDBRANCH  19  20
ENDBRANCH  17  19
ENDBRANCH   8  17
BRANCH  10  30
HETATM   30  N   UNK N   1       5.151  -1.065   0.446  0.00  0.00    -0.384 N 
HETATM   31  H   UNK N   1       4.422  -1.719   0.544  0.00  0.00     0.157 HD
HETATM   32  H   UNK N   1       6.087  -1.371   0.446  0.00  0.00     0.157 HD
ENDBRANCH  10  30
TORSDOF 6
