REMARK  9 active torsions:
REMARK  status: ('A' for Active; 'I' for Inactive)
REMARK    1  A    between atoms: C_3  and  C_8 
REMARK    2  A    between atoms: C_4  and  C_11 
REMARK    3  A    between atoms: C_5  and  C_15 
REMARK    4  A    between atoms: C_6  and  C_7 
REMARK    5  A    between atoms: C_6  and  O_10 
REMARK    6  A    between atoms: C_7  and  C_8 
REMARK    7  A    between atoms: C_11  and  C_12 
REMARK    8  A    between atoms: C_12  and  O_14 
REMARK    9  A    between atoms: C_15  and  N_16 
ROOT
HETATM    1  N   UNK N   1       1.865  -2.979   0.000  0.00  0.00    -0.367 N 
HETATM    2  C   UNK N   1       0.524  -2.882   0.000  0.00  0.00     0.096 A 
HETATM    3  C   UNK N   1       0.153  -1.550   0.000  0.00  0.00    -0.034 A 
HETATM    4  C   UNK N   1       1.321  -0.794   0.000  0.00  0.00    -0.016 A 
HETATM    5  C   UNK N   1       2.361  -1.727  -0.000  0.00  0.00     0.033 A 
HETATM    6  H   UNK N   1       2.389  -3.813   0.000  0.00  0.00     0.165 HD
ENDROOT
BRANCH   3   7
HETATM    7  C   UNK N   1      -1.252  -1.057   0.000  0.00  0.00     0.051 C 
BRANCH   7   8
HETATM    8  C   UNK N   1      -2.314  -2.142   0.000  0.00  0.00     0.114 C 
BRANCH   8   9
HETATM    9  C   UNK N   1      -3.683  -1.534   0.000  0.00  0.00     0.139 C 
HETATM   10  O   UNK N   1      -4.662  -2.259  -0.000  0.00  0.00    -0.650 OA
BRANCH   9  11
HETATM   11  O   UNK N   1      -3.848  -0.194   0.000  0.00  0.00    -0.776 OA
HETATM   12  H   UNK N   1      -3.099   0.370  -0.000  0.00  0.00     0.167 HD
ENDBRANCH   9  11
ENDBRANCH   8   9
ENDBRANCH   7   8
ENDBRANCH   3   7
BRANCH   4  13
HETATM   13  C   UNK N   1       1.539   0.714  -0.000  0.00  0.00     0.151 C 
BRANCH  13  14
HETATM   14  C   UNK N   1       0.463   1.778  -0.000  0.00  0.00     0.143 C 
HETATM   15  O   UNK N   1       0.806   2.948  -0.000  0.00  0.00    -0.650 OA
BRANCH  14  16
HETATM   16  O   UNK N   1      -0.847   1.494  -0.000  0.00  0.00    -0.776 OA
HETATM   17  H   UNK N   1      -1.477   2.188  -0.000  0.00  0.00     0.167 HD
ENDBRANCH  14  16
ENDBRANCH  13  14
ENDBRANCH   4  13
BRANCH   5  18
HETATM   18  C   UNK N   1       3.848  -1.493  -0.000  0.00  0.00     0.169 C 
BRANCH  18  19
HETATM   19  N   UNK N   1       4.215  -0.088  -0.000  0.00  0.00    -0.425 N 
HETATM   20  H   UNK N   1       5.199   0.183  -0.000  0.00  0.00     0.150 HD
HETATM   21  H   UNK N   1       3.489   0.628  -0.000  0.00  0.00     0.150 HD
ENDBRANCH  18  19
ENDBRANCH   5  18
TORSDOF 9
