REMARK  8 active torsions:
REMARK  status: ('A' for Active; 'I' for Inactive)
REMARK    1  A    between atoms: C_3  and  C_4 
REMARK    2  A    between atoms: C_4  and  C_5 
REMARK    3  A    between atoms: C_5  and  N_6 
REMARK    4  A    between atoms: C_11  and  N_12 
REMARK    5  A    between atoms: C_19  and  C_20 
REMARK    6  A    between atoms: C_20  and  C_21 
REMARK    7  A    between atoms: C_22  and  O_23 
REMARK    8  A    between atoms: C_27  and  O_29 
ROOT
HETATM    1  C   UNK N   1      -5.461   1.781  -1.135  0.00  0.00     0.012 C 
HETATM    2  C   UNK N   1      -5.212   0.844  -0.417  0.00  0.00    -0.117 C 
HETATM    3  C   UNK N   1      -4.891  -0.301   0.446  0.00  0.00     0.094 C 
ENDROOT
BRANCH   3   4
HETATM    4  C   UNK N   1      -3.436  -0.249   0.891  0.00  0.00     0.032 C 
BRANCH   4   5
HETATM    5  C   UNK N   1      -2.516  -0.406  -0.311  0.00  0.00     0.133 C 
BRANCH   5   6
HETATM    6  N   UNK N   1      -1.384   0.511  -0.229  0.00  0.00    -0.320 N 
HETATM    7  C   UNK N   1      -1.414   1.844  -0.075  0.00  0.00     0.143 A 
HETATM    8  N   UNK N   1      -2.494   2.647   0.075  0.00  0.00    -0.302 N 
HETATM    9  C   UNK N   1      -0.156   2.321  -0.075  0.00  0.00     0.122 A 
HETATM   10  C   UNK N   1      -2.278   3.991   0.235  0.00  0.00     0.269 A 
ATOM     11  HN  UNK N   1      -3.440   2.263   0.069  1.00  0.00     0.171 HD
HETATM   12  N   UNK N   1      -0.999   4.496   0.233  0.00  0.00    -0.303 N 
HETATM   13  F   UNK N   1      -3.330   4.827   0.403  0.00  0.00    -0.165 F 
HETATM   14  C   UNK N   1       0.080   3.674   0.076  0.00  0.00     0.133 A 
ATOM     15  HN  UNK N   1      -0.854   5.499   0.350  1.00  0.00     0.171 HD
HETATM   16  N   UNK N   1       0.715   1.313  -0.230  0.00  0.00    -0.339 N 
HETATM   17  C   UNK N   1      -0.062   0.203  -0.309  0.00  0.00     0.090 A 
ATOM     18  HN  UNK N   1       1.733   1.368  -0.278  1.00  0.00     0.167 HD
BRANCH  14  19
HETATM   19  N   UNK N   1       1.390   4.193   0.076  0.00  0.00    -0.383 N 
HETATM   20  H   UNK N   1       2.162   3.582   0.075  0.00  0.00     0.157 HD
HETATM   21  H   UNK N   1       1.533   5.167   0.076  0.00  0.00     0.157 HD
ENDBRANCH  14  19
BRANCH  17  22
HETATM   22  C   UNK N   1       0.444  -1.211  -0.480  0.00  0.00     0.118 C 
BRANCH  22  23
HETATM   23  C   UNK N   1       1.857  -1.710  -0.199  0.00  0.00    -0.015 A 
HETATM   24  C   UNK N   1       3.005  -0.931   0.138  0.00  0.00     0.075 A 
HETATM   25  C   UNK N   1       4.229  -1.580   0.383  0.00  0.00     0.040 A 
HETATM   26  C   UNK N   1       4.335  -2.963   0.314  0.00  0.00     0.039 A 
HETATM   27  C   UNK N   1       3.216  -3.736  -0.008  0.00  0.00     0.068 A 
HETATM   28  C   UNK N   1       1.998  -3.104  -0.267  0.00  0.00     0.047 A 
BRANCH  24  29
HETATM   29  O   UNK N   1       2.944   0.414   0.229  0.00  0.00    -0.355 OA
HETATM   30  C   UNK N   1       4.010   1.215   0.575  0.00  0.00     0.210 C 
ENDBRANCH  24  29
BRANCH  27  31
HETATM   31  O   UNK N   1       3.282  -5.087  -0.062  0.00  0.00    -0.356 OA
HETATM   32  C   UNK N   1       4.424  -5.797   0.235  0.00  0.00     0.210 C 
ENDBRANCH  27  31
ENDBRANCH  22  23
ENDBRANCH  17  22
ENDBRANCH   5   6
ENDBRANCH   4   5
ENDBRANCH   3   4
TORSDOF 8
