REMARK  2 active torsions:
REMARK  status: ('A' for Active; 'I' for Inactive)
REMARK    1  A    between atoms: C_3  and  C_12 
REMARK    2  A    between atoms: C_12  and  O_14 
ROOT
HETATM    1  N   UNK N   1      -0.493  -1.282   0.000  0.00  0.00    -0.350 N 
ATOM      2  HN  UNK N   1      -0.483  -2.302   0.000  1.00  0.00     0.166 HD
HETATM    3  C   UNK N   1      -1.688  -0.626  -0.000  0.00  0.00     0.107 A 
HETATM    4  C   UNK N   1      -1.719   0.774  -0.000  0.00  0.00     0.037 A 
HETATM    5  C   UNK N   1      -0.525   1.492  -0.000  0.00  0.00     0.016 A 
HETATM    6  C   UNK N   1       1.895   1.502  -0.000  0.00  0.00     0.013 A 
HETATM    7  C   UNK N   1       3.103   0.798   0.000  0.00  0.00     0.001 A 
HETATM    8  C   UNK N   1       3.102  -0.602   0.000  0.00  0.00     0.002 A 
HETATM    9  C   UNK N   1       1.894  -1.305   0.000  0.00  0.00     0.030 A 
HETATM   10  C   UNK N   1       0.687   0.805  -0.000  0.00  0.00    -0.009 A 
HETATM   11  C   UNK N   1       0.684  -0.606   0.000  0.00  0.00     0.043 A 
ENDROOT
BRANCH   3  12
HETATM   12  C   UNK N   1      -2.941  -1.389   0.000  0.00  0.00     0.193 C 
HETATM   13  O   UNK N   1      -2.916  -2.608   0.000  0.00  0.00    -0.645 OA
BRANCH  12  14
HETATM   14  O   UNK N   1      -4.125  -0.745   0.000  0.00  0.00    -0.772 OA
HETATM   15  H   UNK N   1      -4.149   0.191   0.000  0.00  0.00     0.167 HD
ENDBRANCH  12  14
ENDBRANCH   3  12
TORSDOF 2
