REMARK  5 active torsions:
REMARK  status: ('A' for Active; 'I' for Inactive)
REMARK    1  A    between atoms: C_2  and  C_3 
REMARK    2  A    between atoms: C_2  and  O_18 
REMARK    3  A    between atoms: C_8  and  C_13 
REMARK    4  A    between atoms: C_9  and  O_11 
REMARK    5  A    between atoms: C_13  and  O_14 
ROOT
HETATM    1  C   UNK N   1      -1.252   1.711  -0.137  0.00  0.00     0.107 A 
HETATM    2  N   UNK N   1      -0.038   2.318  -0.096  0.00  0.00    -0.351 N 
ATOM      3  HN  UNK N   1       0.006   3.336  -0.137  1.00  0.00     0.166 HD
HETATM    4  C   UNK N   1      -1.334   0.319  -0.057  0.00  0.00     0.047 A 
HETATM    5  C   UNK N   1       1.124   1.613   0.000  0.00  0.00     0.050 A 
HETATM    6  C   UNK N   1      -0.170  -0.451   0.070  0.00  0.00    -0.015 A 
HETATM    7  C   UNK N   1       2.429   2.367   0.070  0.00  0.00     0.172 C 
HETATM    8  C   UNK N   1       1.081   0.207   0.090  0.00  0.00    -0.002 A 
HETATM    9  C   UNK N   1       3.698   1.506  -0.012  0.00  0.00     0.065 C 
HETATM   10  C   UNK N   1       2.331  -0.557   0.256  0.00  0.00     0.010 C 
HETATM   11  C   UNK N   1       3.527   0.033   0.230  0.00  0.00    -0.023 C 
ENDROOT
BRANCH   1  12
HETATM   12  C   UNK N   1      -2.477   2.524  -0.237  0.00  0.00     0.193 C 
HETATM   13  O   UNK N   1      -3.574   1.991  -0.280  0.00  0.00    -0.645 OA
BRANCH  12  14
HETATM   14  O   UNK N   1      -2.390   3.869  -0.267  0.00  0.00    -0.772 OA
HETATM   15  H   UNK N   1      -1.551   4.284  -0.288  0.00  0.00     0.167 HD
ENDBRANCH  12  14
ENDBRANCH   1  12
BRANCH   6  16
HETATM   16  C   UNK N   1      -0.265  -1.958   0.234  0.00  0.00     0.148 C 
HETATM   17  C   UNK N   1      -1.694  -2.483   0.203  0.00  0.00     0.044 C 
BRANCH  16  18
HETATM   18  O   UNK N   1       0.463  -2.600  -0.769  0.00  0.00    -0.391 OA
HETATM   19  H   UNK N   1       0.329  -3.262  -1.466  0.00  0.00     0.210 HD
ENDBRANCH  16  18
ENDBRANCH   6  16
BRANCH   7  20
HETATM   20  O   UNK N   1       2.483   3.302  -0.965  0.00  0.00    -0.389 OA
HETATM   21  H   UNK N   1       3.064   3.594  -1.685  0.00  0.00     0.210 HD
ENDBRANCH   7  20
TORSDOF 5
