REMARK  14 active torsions:
REMARK  status: ('A' for Active; 'I' for Inactive)
REMARK    1  A    between atoms: N_3  and  C_26 
REMARK    2  A    between atoms: C_8  and  N_9 
REMARK       I    between atoms: N_9  and  C_10 
REMARK    3  A    between atoms: C_10  and  C_11 
REMARK    4  A    between atoms: C_11  and  C_12 
REMARK    5  A    between atoms: C_11  and  C_21 
REMARK    6  A    between atoms: C_12  and  C_13 
REMARK    7  A    between atoms: C_12  and  C_17 
REMARK       I    between atoms: C_13  and  N_15 
REMARK    8  A    between atoms: N_15  and  O_16 
REMARK    9  A    between atoms: C_17  and  C_18 
REMARK   10  A    between atoms: C_18  and  C_19 
REMARK   11  A    between atoms: C_19  and  O_20 
REMARK   12  A    between atoms: C_21  and  C_22 
REMARK   13  A    between atoms: C_26  and  C_27 
REMARK   14  A    between atoms: C_27  and  O_28 
ROOT
HETATM    1  C   UNK N   1      -1.255   0.641   0.410  0.00  0.00     0.091 C 
ENDROOT
BRANCH   1   2
HETATM    2  C   UNK N   1      -0.513  -0.680   0.471  0.00  0.00     0.223 C 
HETATM    3  N   UNK N   1       0.606  -0.870  -0.286  0.00  0.00    -0.347 N 
HETATM    4  H   UNK N   1       0.842  -0.125  -0.885  0.00  0.00     0.163 HD
HETATM    5  O   UNK N   1      -0.906  -1.544   1.241  0.00  0.00    -0.273 OA
BRANCH   3   6
HETATM    6  C   UNK N   1       1.504  -2.020  -0.336  0.00  0.00     0.176 C 
HETATM    7  C   UNK N   1       2.911  -1.545   0.006  0.00  0.00     0.242 C 
HETATM    8  O   UNK N   1       3.047  -0.385   0.379  0.00  0.00    -0.271 OA
HETATM    9  N   UNK N   1       4.010  -2.367  -0.110  0.00  0.00    -0.348 N 
HETATM   10  C   UNK N   1       3.855  -3.724  -0.586  0.00  0.00     0.126 C 
HETATM   11  C   UNK N   1       3.141  -4.578   0.446  0.00  0.00     0.020 C 
HETATM   12  C   UNK N   1       1.646  -4.521   0.216  0.00  0.00     0.004 C 
HETATM   13  C   UNK N   1       1.066  -3.166   0.593  0.00  0.00     0.035 C 
BRANCH   9  14
HETATM   14  C   UNK N   1       5.385  -1.969   0.190  0.00  0.00     0.152 C 
BRANCH  14  15
HETATM   15  C   UNK N   1       5.630  -0.559   0.724  0.00  0.00     0.186 C 
BRANCH  15  16
HETATM   16  O   UNK N   1       6.067   0.271  -0.310  0.00  0.00    -0.394 OA
HETATM   17  C   UNK N   1       5.407   1.482  -0.102  0.00  0.00     0.201 C 
ENDBRANCH  15  16
ENDBRANCH  14  15
ENDBRANCH   9  14
ENDBRANCH   3   6
ENDBRANCH   1   2
BRANCH   1  18
HETATM   18  C   UNK N   1      -2.684   0.557  -0.234  0.00  0.00     0.093 C 
BRANCH  18  19
HETATM   19  C   UNK N   1      -3.501  -0.659   0.216  0.00  0.00     0.245 C 
HETATM   20  O   UNK N   1      -4.440  -0.516   0.985  0.00  0.00    -0.271 OA
HETATM   21  N   UNK N   1      -3.245  -1.901  -0.270  0.00  0.00    -0.237 N 
HETATM   22  H   UNK N   1      -3.774  -2.663   0.060  0.00  0.00     0.197 HD
BRANCH  21  23
HETATM   23  O   UNK N   1      -2.292  -2.118  -1.188  0.00  0.00    -0.287 OA
HETATM   24  H   UNK N   1      -2.083  -2.794  -1.852  0.00  0.00     0.244 HD
ENDBRANCH  21  23
ENDBRANCH  18  19
BRANCH  18  25
HETATM   25  C   UNK N   1      -3.406   1.864   0.130  0.00  0.00     0.017 C 
BRANCH  25  26
HETATM   26  C   UNK N   1      -4.768   2.060  -0.507  0.00  0.00     0.027 C 
BRANCH  26  27
HETATM   27  C   UNK N   1      -5.310   3.387  -0.010  0.00  0.00     0.164 C 
BRANCH  27  28
HETATM   28  O   UNK N   1      -6.605   3.582  -0.483  0.00  0.00    -0.401 OA
HETATM   29  H   UNK N   1      -6.939   4.431  -0.813  0.00  0.00     0.209 HD
ENDBRANCH  27  28
ENDBRANCH  26  27
ENDBRANCH  25  26
ENDBRANCH  18  25
ENDBRANCH   1  18
BRANCH   1  30
HETATM   30  C   UNK N   1      -0.336   1.671  -0.298  0.00  0.00     0.018 C 
BRANCH  30  31
HETATM   31  C   UNK N   1      -0.725   3.147  -0.312  0.00  0.00    -0.022 C 
HETATM   32  C   UNK N   1      -1.095   3.661   1.066  0.00  0.00     0.009 C 
HETATM   33  C   UNK N   1       0.480   3.931  -0.794  0.00  0.00     0.009 C 
ENDBRANCH  30  31
ENDBRANCH   1  30
TORSDOF 14
