REMARK  0 active torsions:
REMARK  status: ('A' for Active; 'I' for Inactive)
ROOT
HETATM    1  C   UNK N   1      -2.494  -1.792   0.011  0.00  0.00     0.117 A 
HETATM    2  F   UNK N   1      -2.917  -3.077   0.002  0.00  0.00    -0.206 F 
HETATM    3  C   UNK N   1      -3.396  -0.744   0.007  0.00  0.00     0.045 A 
HETATM    4  C   UNK N   1      -2.923   0.561   0.010  0.00  0.00     0.040 A 
HETATM    5  C   UNK N   1      -1.549   0.842   0.007  0.00  0.00     0.078 A 
HETATM    6  O   UNK N   1      -1.217   2.135  -0.000  0.00  0.00    -0.350 OA
HETATM    7  C   UNK N   1       0.054   2.592  -0.020  0.00  0.00     0.179 A 
HETATM    8  C   UNK N   1       1.074   1.490  -0.014  0.00  0.00     0.073 A 
HETATM    9  C   UNK N   1       1.054  -0.066  -0.031  0.00  0.00     0.148 A 
HETATM   10  C   UNK N   1       2.718   0.136   0.015  0.00  0.00     0.259 A 
HETATM   11  O   UNK N   1       3.391   1.180   0.024  0.00  0.00    -0.270 OA
HETATM   12  N   UNK N   1       3.404  -1.003   0.033  0.00  0.00    -0.277 N 
HETATM   13  C   UNK N   1       2.546  -1.959  -0.007  0.00  0.00     0.324 A 
HETATM   14  O   UNK N   1       2.851  -3.139  -0.000  0.00  0.00    -0.247 OA
HETATM   15  N   UNK N   1       1.301  -1.533  -0.048  0.00  0.00    -0.320 N 
HETATM   16  C   UNK N   1      -0.571  -0.218   0.002  0.00  0.00     0.016 A 
HETATM   17  C   UNK N   1      -1.140  -1.530   0.010  0.00  0.00     0.055 A 
HETATM   18  H   UNK N   1       4.384  -1.096   0.070  0.00  0.00     0.173 HD
HETATM   19  H   UNK N   1       0.552  -2.170  -0.090  0.00  0.00     0.165 HD
ENDROOT
TORSDOF 0
