REMARK  7 active torsions:
REMARK  status: ('A' for Active; 'I' for Inactive)
REMARK    1  A    between atoms: C_6  and  C_9 
REMARK    2  A    between atoms: C_9  and  C_10 
REMARK    3  A    between atoms: C_10  and  C_11 
REMARK    4  A    between atoms: C_11  and  C_12 
REMARK    5  A    between atoms: C_12  and  C_13 
REMARK    6  A    between atoms: C_13  and  C_14 
REMARK    7  A    between atoms: C_14  and  O_16 
ROOT
HETATM    1  C   UNK N   1      -2.974  -1.171   0.096  0.00  0.00     0.119 C 
HETATM    2  C   UNK N   1      -1.818  -0.194   0.118  0.00  0.00     0.123 C 
HETATM    3  N   UNK N   1      -2.461   1.046  -0.212  0.00  0.00    -0.335 N 
HETATM    4  C   UNK N   1      -3.742   0.921   0.192  0.00  0.00     0.316 C 
HETATM    5  N   UNK N   1      -4.064  -0.344   0.533  0.00  0.00    -0.336 N 
HETATM    6  C   UNK N   1      -0.766  -0.888  -0.714  0.00  0.00     0.072 C 
HETATM    7  S   UNK N   1      -0.744  -2.569   0.074  0.00  0.00    -0.160 SA
HETATM    8  C   UNK N   1      -2.428  -2.354   0.849  0.00  0.00     0.101 C 
HETATM    9  O   UNK N   1      -4.523   1.848   0.240  0.00  0.00    -0.247 OA
HETATM   10  H   UNK N   1      -2.051   1.829  -0.645  0.00  0.00     0.164 HD
HETATM   11  H   UNK N   1      -4.883  -0.641   0.991  0.00  0.00     0.164 HD
ENDROOT
BRANCH   6  12
HETATM   12  C   UNK N   1       0.592  -0.185  -0.724  0.00  0.00     0.017 C 
BRANCH  12  13
HETATM   13  C   UNK N   1       1.124   0.196   0.647  0.00  0.00     0.001 C 
BRANCH  13  14
HETATM   14  C   UNK N   1       1.625   1.629   0.561  0.00  0.00     0.001 C 
BRANCH  14  15
HETATM   15  C   UNK N   1       3.145   1.716   0.523  0.00  0.00     0.010 C 
BRANCH  15  16
HETATM   16  C   UNK N   1       3.749   0.931  -0.633  0.00  0.00     0.110 C 
BRANCH  16  17
HETATM   17  C   UNK N   1       4.483  -0.256  -0.101  0.00  0.00     0.139 C 
HETATM   18  O   UNK N   1       5.425  -0.103   0.660  0.00  0.00    -0.650 OA
BRANCH  17  19
HETATM   19  O   UNK N   1       4.107  -1.497  -0.460  0.00  0.00    -0.776 OA
HETATM   20  H   UNK N   1       3.228  -1.703  -0.711  0.00  0.00     0.167 HD
ENDBRANCH  17  19
ENDBRANCH  16  17
ENDBRANCH  15  16
ENDBRANCH  14  15
ENDBRANCH  13  14
ENDBRANCH  12  13
ENDBRANCH   6  12
TORSDOF 7
