REMARK  8 active torsions:
REMARK  status: ('A' for Active; 'I' for Inactive)
REMARK    1  A    between atoms: C_1  and  N_19 
REMARK    2  A    between atoms: C_3  and  C_11 
REMARK    3  A    between atoms: C_4  and  N_17 
REMARK    4  A    between atoms: C_6  and  N_18 
REMARK    5  A    between atoms: C_7  and  C_9 
REMARK    6  A    between atoms: C_7  and  N_19 
REMARK    7  A    between atoms: C_8  and  C_10 
REMARK    8  A    between atoms: C_8  and  N_19 
REMARK       I    between atoms: C_11  and  N_20 
ROOT
HETATM    1  C   UNK N   1       0.608  -0.373  -0.109  0.00  0.00     0.064 A 
HETATM    2  C   UNK N   1      -0.573   0.379  -0.209  0.00  0.00     0.051 A 
HETATM    3  C   UNK N   1      -0.623   1.783  -0.164  0.00  0.00     0.067 A 
HETATM    4  C   UNK N   1       0.618   2.493  -0.001  0.00  0.00     0.121 A 
HETATM    5  C   UNK N   1       1.795   1.741   0.081  0.00  0.00     0.075 A 
HETATM    6  C   UNK N   1       1.841   0.343   0.012  0.00  0.00     0.131 A 
ENDROOT
BRANCH   1   7
HETATM    7  N   UNK N   1       0.481  -1.813  -0.069  0.00  0.00    -0.377 N 
BRANCH   7   8
HETATM    8  C   UNK N   1      -0.769  -2.433  -0.478  0.00  0.00     0.138 C 
BRANCH   8   9
HETATM    9  C   UNK N   1      -1.426  -3.185   0.668  0.00  0.00     0.134 C 
HETATM   10 Cl   UNK N   1      -2.703  -4.238   0.016  0.00  0.00    -0.129 Cl
ENDBRANCH   8   9
ENDBRANCH   7   8
BRANCH   7  11
HETATM   11  C   UNK N   1       1.487  -2.659   0.542  0.00  0.00     0.138 C 
BRANCH  11  12
HETATM   12  C   UNK N   1       1.886  -3.790  -0.396  0.00  0.00     0.134 C 
HETATM   13 Cl   UNK N   1       3.454  -4.460   0.109  0.00  0.00    -0.129 Cl
ENDBRANCH  11  12
ENDBRANCH   7  11
ENDBRANCH   1   7
BRANCH   6  14
HETATM   14  N   UNK N   1       3.138  -0.262  -0.012  0.00  0.00    -0.113 N 
HETATM   15  O   UNK N   1       4.090   0.385   0.308  0.00  0.00    -0.532 OA
HETATM   16  O   UNK N   1       3.341  -1.351  -0.718  0.00  0.00    -0.532 OA
ENDBRANCH   6  14
BRANCH   3  17
HETATM   17  C   UNK N   1      -2.005   2.370  -0.264  0.00  0.00     0.252 C 
HETATM   18  O   UNK N   1      -2.229   3.547  -0.059  0.00  0.00    -0.268 OA
HETATM   19  N   UNK N   1      -3.049   1.561  -0.545  0.00  0.00    -0.366 N 
HETATM   20  H   UNK N   1      -3.940   1.926  -0.750  0.00  0.00     0.159 HD
HETATM   21  H   UNK N   1      -2.916   0.586  -0.545  0.00  0.00     0.159 HD
ENDBRANCH   3  17
BRANCH   4  22
HETATM   22  N   UNK N   1       0.776   3.922   0.042  0.00  0.00    -0.115 N 
HETATM   23  O   UNK N   1       1.977   4.432   0.217  0.00  0.00    -0.532 OA
HETATM   24  O   UNK N   1      -0.129   4.664  -0.172  0.00  0.00    -0.532 OA
ENDBRANCH   4  22
TORSDOF 8
