REMARK  4 active torsions:
REMARK  status: ('A' for Active; 'I' for Inactive)
REMARK    1  A    between atoms: C_1  and  O_3 
REMARK    2  A    between atoms: C_1  and  C_4 
REMARK    3  A    between atoms: C_6  and  N_7 
REMARK    4  A    between atoms: C_8  and  N_9 
REMARK       I    between atoms: N_9  and  C_10 
ROOT
HETATM    1  C   UNK N   1       1.893   0.941   0.004  0.00  0.00     0.040 A 
HETATM    2  C   UNK N   1       1.910  -0.459   0.002  0.00  0.00     0.049 A 
HETATM    3  C   UNK N   1       0.715  -1.185   0.001  0.00  0.00     0.053 A 
HETATM    4  C   UNK N   1      -0.522  -0.516   0.001  0.00  0.00     0.061 A 
HETATM    5  C   UNK N   1      -0.532   0.889   0.004  0.00  0.00     0.033 A 
HETATM    6  C   UNK N   1       0.663   1.611   0.005  0.00  0.00     0.021 A 
ENDROOT
BRANCH   4   7
HETATM    7  N   UNK N   1      -1.725  -1.287  -0.001  0.00  0.00    -0.326 N 
HETATM    8  C   UNK N   1      -3.010  -0.835  -0.006  0.00  0.00     0.218 C 
HETATM    9  O   UNK N   1      -3.921  -1.646  -0.009  0.00  0.00    -0.274 OA
HETATM   10  C   UNK N   1      -3.357   0.620  -0.010  0.00  0.00     0.117 C 
HETATM   11  H   UNK N   1      -1.611  -2.265   0.001  0.00  0.00     0.169 HD
ENDBRANCH   4   7
BRANCH   3  12
HETATM   12  N   UNK N   1       0.762  -2.594  -0.001  0.00  0.00    -0.397 N 
HETATM   13  H   UNK N   1      -0.073  -3.115  -0.003  0.00  0.00     0.156 HD
HETATM   14  H   UNK N   1       1.631  -3.058  -0.001  0.00  0.00     0.156 HD
ENDBRANCH   3  12
BRANCH   1  15
HETATM   15  C   UNK N   1       3.161   1.697   0.004  0.00  0.00     0.176 C 
HETATM   16  O   UNK N   1       3.151   2.919   0.006  0.00  0.00    -0.646 OA
BRANCH  15  17
HETATM   17  O   UNK N   1       4.340   1.045   0.002  0.00  0.00    -0.773 OA
HETATM   18  H   UNK N   1       4.357   0.108   0.001  0.00  0.00     0.167 HD
ENDBRANCH  15  17
ENDBRANCH   1  15
TORSDOF 4
