REMARK  1 active torsions:
REMARK  status: ('A' for Active; 'I' for Inactive)
REMARK    1  A    between atoms: C_6  and  O_15 
ROOT
HETATM    1  C   UNK N   1      -1.359  -2.841   0.005  0.00  0.00     0.102 C 
HETATM    2  C   UNK N   1      -1.518  -0.311  -0.001  0.00  0.00     0.113 A 
HETATM    3  C   UNK N   1      -0.812  -1.512   0.002  0.00  0.00     0.078 A 
HETATM    4  C   UNK N   1       0.516  -1.184   0.001  0.00  0.00     0.082 A 
HETATM    5  C   UNK N   1       0.585   0.169  -0.003  0.00  0.00     0.137 A 
HETATM    6  C   UNK N   1       1.680  -1.938   0.003  0.00  0.00     0.171 A 
HETATM    7  C   UNK N   1       2.924   0.094  -0.004  0.00  0.00     0.679 A 
HETATM    8  N   UNK N   1      -1.776  -3.920   0.007  0.00  0.00    -0.191 NA
HETATM    9  N   UNK N   1       4.055   0.687  -0.006  0.00  0.00    -0.234 N 
ATOM     10  HN  UNK N   1       4.097   1.706  -0.006  1.00  0.00     0.174 HD
HETATM   11  N   UNK N   1      -0.640   0.727  -0.004  0.00  0.00    -0.350 N 
HETATM   12  N   UNK N   1       1.768   0.828  -0.006  0.00  0.00    -0.176 N 
HETATM   13  N   UNK N   1       2.874  -1.278   0.000  0.00  0.00    -0.170 N 
ATOM     14  HN  UNK N   1       3.743  -1.812   0.002  1.00  0.00     0.186 HD
HETATM   15  H   UNK N   1       4.887   0.160  -0.008  0.00  0.00     0.174 HD
HETATM   16  H   UNK N   1      -0.855   1.688  -0.007  0.00  0.00     0.166 HD
HETATM   17  H   UNK N   1       1.796   1.813  -0.009  0.00  0.00     0.186 HD
ENDROOT
BRANCH   6  18
HETATM   18  O   UNK N   1       1.642  -3.282   0.007  0.00  0.00    -0.345 OA
HETATM   19  H   UNK N   1       0.818  -3.727   0.010  0.00  0.00     0.219 HD
ENDBRANCH   6  18
TORSDOF 1
