REMARK  8 active torsions:
REMARK  status: ('A' for Active; 'I' for Inactive)
REMARK    1  A    between atoms: S_1  and  N_4 
REMARK    2  A    between atoms: S_1  and  C_7 
REMARK    3  A    between atoms: C_10  and  N_11 
REMARK    4  A    between atoms: N_11  and  C_12 
REMARK    5  A    between atoms: C_12  and  O_14 
REMARK    6  A    between atoms: O_14  and  C_15 
REMARK    7  A    between atoms: C_15  and  C_16 
REMARK    8  A    between atoms: C_16  and  C_17 
ROOT
HETATM    1  C   UNK N   1      -1.450  -1.123  -0.012  0.00  0.00     0.031 A 
HETATM    2  C   UNK N   1      -2.603  -1.900  -0.065  0.00  0.00     0.027 A 
HETATM    3  C   UNK N   1      -3.832  -1.308  -0.362  0.00  0.00     0.079 A 
HETATM    4  C   UNK N   1      -3.895   0.064  -0.640  0.00  0.00     0.027 A 
HETATM    5  C   UNK N   1      -2.730   0.841  -0.591  0.00  0.00     0.031 A 
HETATM    6  C   UNK N   1      -1.498   0.255  -0.262  0.00  0.00     0.034 A 
ENDROOT
BRANCH   6   7
HETATM    7  N   UNK N   1      -0.337   1.086  -0.178  0.00  0.00    -0.328 N 
HETATM    8  H   UNK N   1      -0.453   2.011  -0.495  0.00  0.00     0.169 HD
BRANCH   7   9
HETATM    9  C   UNK N   1       0.976   0.757   0.305  0.00  0.00     0.214 C 
HETATM   10  S   UNK N   1       1.286  -0.558   0.831  0.00  0.00    -0.033 SA
BRANCH   9  11
HETATM   11  O   UNK N   1       1.927   1.736   0.281  0.00  0.00    -0.327 OA
BRANCH  11  12
HETATM   12  C   UNK N   1       3.182   1.631   0.854  0.00  0.00     0.183 C 
BRANCH  12  13
HETATM   13  C   UNK N   1       4.251   1.634  -0.223  0.00  0.00     0.066 C 
BRANCH  13  14
HETATM   14  C   UNK N   1       5.019   0.354  -0.200  0.00  0.00    -0.049 A 
HETATM   15  C   UNK N   1       6.406   0.307   0.106  0.00  0.00     0.015 A 
HETATM   16  C   UNK N   1       6.941  -0.984   0.068  0.00  0.00     0.050 A 
HETATM   17  S   UNK N   1       5.679  -1.981  -0.342  0.00  0.00    -0.113 SA
HETATM   18  C   UNK N   1       4.444  -0.887  -0.487  0.00  0.00     0.056 A 
ENDBRANCH  13  14
ENDBRANCH  12  13
ENDBRANCH  11  12
ENDBRANCH   9  11
ENDBRANCH   7   9
ENDBRANCH   6   7
BRANCH   3  19
HETATM   19  S   UNK N   1      -5.312  -2.319  -0.389  0.00  0.00     0.256 S 
HETATM   20  O   UNK N   1      -6.729  -1.785  -0.134  0.00  0.00    -0.201 OA
HETATM   21  O   UNK N   1      -5.276  -3.800   0.014  0.00  0.00    -0.201 OA
BRANCH  19  22
HETATM   22  N   UNK N   1      -5.128  -2.036   1.346  0.00  0.00    -0.324 N 
HETATM   23  H   UNK N   1      -4.933  -2.046   2.347  0.00  0.00     0.169 HD
HETATM   24  H   UNK N   1      -5.589  -1.126   1.346  0.00  0.00     0.169 HD
ENDBRANCH  19  22
ENDBRANCH   3  19
TORSDOF 8
