REMARK  0 active torsions:
REMARK  status: ('A' for Active; 'I' for Inactive)
ROOT
HETATM    1  C   UNK N   1      -0.168  -0.902  -0.602  0.00  0.00    -0.003 C 
HETATM    2  C   UNK N   1      -1.183  -1.230   0.463  0.00  0.00    -0.004 C 
HETATM    3  C   UNK N   1      -1.154  -0.165   1.507  0.00  0.00     0.052 C 
HETATM    4  C   UNK N   1      -0.036   0.727   0.913  0.00  0.00    -0.001 C 
HETATM    5  C   UNK N   1       1.291  -0.034   1.101  0.00  0.00     0.007 C 
HETATM    6  C   UNK N   1       1.199  -1.156   0.046  0.00  0.00     0.015 C 
HETATM    7  C   UNK N   1      -0.258   0.627  -0.604  0.00  0.00    -0.032 C 
HETATM    8  C   UNK N   1      -1.614   1.181  -1.060  0.00  0.00     0.016 C 
HETATM    9  C   UNK N   1       0.826   1.325  -1.434  0.00  0.00     0.016 C 
HETATM   10  C   UNK N   1      -0.323  -1.583  -1.960  0.00  0.00     0.021 C 
HETATM   11  S   UNK N   1      -2.312  -2.106   0.289  0.00  0.00    -0.089 SA
ENDROOT
TORSDOF 0
