REMARK  12 active torsions:
REMARK  status: ('A' for Active; 'I' for Inactive)
REMARK    1  A    between atoms: O_1  and  C_3 
REMARK    2  A    between atoms: C_3  and  C_4 
REMARK    3  A    between atoms: C_4  and  C_5 
REMARK    4  A    between atoms: C_5  and  C_6 
REMARK    5  A    between atoms: C_6  and  C_7 
REMARK    6  A    between atoms: C_7  and  C_8 
REMARK    7  A    between atoms: C_8  and  C_9 
REMARK    8  A    between atoms: C_9  and  C_10 
REMARK    9  A    between atoms: C_10  and  C_11 
REMARK   10  A    between atoms: C_11  and  C_12 
REMARK   11  A    between atoms: C_12  and  C_13 
REMARK   12  A    between atoms: C_13  and  C_14 
ROOT
HETATM    1  C   UNK N   1      -1.814   0.065  -0.000  0.00  0.00     0.000 C 
ENDROOT
BRANCH   1   2
HETATM    2  C   UNK N   1      -3.041  -0.811  -0.000  0.00  0.00     0.001 C 
BRANCH   2   3
HETATM    3  C   UNK N   1      -4.218   0.130   0.000  0.00  0.00     0.010 C 
BRANCH   3   4
HETATM    4  C   UNK N   1      -5.534  -0.619   0.000  0.00  0.00     0.110 C 
BRANCH   4   5
HETATM    5  C   UNK N   1      -6.696   0.332   0.000  0.00  0.00     0.139 C 
HETATM    6  O   UNK N   1      -6.518   1.543   0.000  0.00  0.00    -0.650 OA
BRANCH   5   7
HETATM    7  O   UNK N   1      -7.949  -0.153  -0.000  0.00  0.00    -0.776 OA
HETATM    8  H   UNK N   1      -8.678   0.435  -0.000  0.00  0.00     0.167 HD
ENDBRANCH   5   7
ENDBRANCH   4   5
ENDBRANCH   3   4
ENDBRANCH   2   3
ENDBRANCH   1   2
BRANCH   1   9
HETATM    9  C   UNK N   1      -0.555  -0.759  -0.000  0.00  0.00     0.000 C 
BRANCH   9  10
HETATM   10  C   UNK N   1       0.604   0.207  -0.000  0.00  0.00     0.000 C 
BRANCH  10  11
HETATM   11  C   UNK N   1       1.899  -0.560   0.000  0.00  0.00     0.000 C 
BRANCH  11  12
HETATM   12  C   UNK N   1       3.045   0.421   0.000  0.00  0.00     0.000 C 
BRANCH  12  13
HETATM   13  C   UNK N   1       4.337  -0.357   0.000  0.00  0.00     0.000 C 
BRANCH  13  14
HETATM   14  C   UNK N   1       5.505   0.600  -0.000  0.00  0.00    -0.000 C 
BRANCH  14  15
HETATM   15  C   UNK N   1       6.786  -0.203  -0.000  0.00  0.00    -0.005 C 
HETATM   16  C   UNK N   1       7.969   0.738  -0.000  0.00  0.00     0.005 C 
ENDBRANCH  14  15
ENDBRANCH  13  14
ENDBRANCH  12  13
ENDBRANCH  11  12
ENDBRANCH  10  11
ENDBRANCH   9  10
ENDBRANCH   1   9
TORSDOF 12
