REMARK  10 active torsions:
REMARK  status: ('A' for Active; 'I' for Inactive)
REMARK    1  A    between atoms: C_1  and  C_2 
REMARK    2  A    between atoms: C_2  and  C_3 
REMARK    3  A    between atoms: C_3  and  C_4 
REMARK    4  A    between atoms: C_3  and  N_20 
REMARK    5  A    between atoms: C_7  and  C_8 
REMARK       I    between atoms: C_7  and  N_20 
REMARK    6  A    between atoms: C_8  and  N_21 
REMARK    7  A    between atoms: C_10  and  N_24 
REMARK    8  A    between atoms: C_12  and  C_13 
REMARK    9  A    between atoms: C_16  and  N_25 
REMARK   10  A    between atoms: N_24  and  S_34 
ROOT
HETATM    1  C   UNK N   1       0.607   1.699  -0.605  0.00  0.00     0.278 A 
HETATM    2  C   UNK N   1       0.785   3.065  -0.328  0.00  0.00     0.126 A 
HETATM    3  C   UNK N   1       2.065   3.522  -0.080  0.00  0.00     0.125 A 
HETATM    4  C   UNK N   1       2.954   1.328  -0.299  0.00  0.00     0.121 A 
HETATM    5  N   UNK N   1       1.693   0.830  -0.581  0.00  0.00    -0.289 N 
HETATM    6  N   UNK N   1       3.105   2.661  -0.066  0.00  0.00    -0.349 N 
ATOM      7  HN  UNK N   1       4.039   3.023   0.127  1.00  0.00     0.167 HD
HETATM    8  O   UNK N   1      -0.507   1.277  -0.868  0.00  0.00    -0.265 OA
ENDROOT
BRANCH   5   9
HETATM    9  C   UNK N   1       1.466  -0.601  -0.849  0.00  0.00     0.236 C 
BRANCH   9  10
HETATM   10  C   UNK N   1       0.449  -1.189   0.088  0.00  0.00     0.236 C 
HETATM   11  N   UNK N   1      -0.710  -1.673  -0.429  0.00  0.00    -0.348 N 
HETATM   12  H   UNK N   1      -0.779  -1.738  -1.408  0.00  0.00     0.163 HD
HETATM   13  O   UNK N   1       0.644  -1.171   1.294  0.00  0.00    -0.272 OA
BRANCH  11  14
HETATM   14  C   UNK N   1      -1.859  -2.102   0.356  0.00  0.00     0.167 C 
BRANCH  14  15
HETATM   15  C   UNK N   1      -3.067  -1.266  -0.028  0.00  0.00     0.255 C 
HETATM   16  O   UNK N   1      -2.963  -0.409  -0.895  0.00  0.00    -0.286 OA
BRANCH  15  17
HETATM   17  C   UNK N   1      -4.407  -1.466   0.628  0.00  0.00     0.453 C 
HETATM   18  F   UNK N   1      -5.331  -1.830  -0.335  0.00  0.00    -0.163 F 
HETATM   19  F   UNK N   1      -4.812  -0.282   1.216  0.00  0.00    -0.163 F 
HETATM   20  F   UNK N   1      -4.357  -2.451   1.597  0.00  0.00    -0.163 F 
ENDBRANCH  15  17
ENDBRANCH  14  15
BRANCH  14  21
HETATM   21  C   UNK N   1      -2.148  -3.594   0.114  0.00  0.00     0.008 C 
HETATM   22  C   UNK N   1      -1.037  -4.480   0.647  0.00  0.00     0.012 C 
HETATM   23  C   UNK N   1      -2.402  -3.914  -1.352  0.00  0.00     0.012 C 
ENDBRANCH  14  21
ENDBRANCH  11  14
ENDBRANCH   9  10
ENDBRANCH   5   9
BRANCH   4  24
HETATM   24  C   UNK N   1       4.192   0.486  -0.219  0.00  0.00     0.008 A 
HETATM   25  C   UNK N   1       5.387   1.093   0.210  0.00  0.00     0.017 A 
HETATM   26  C   UNK N   1       6.566   0.356   0.330  0.00  0.00     0.030 A 
HETATM   27  C   UNK N   1       6.573  -1.002   0.014  0.00  0.00     0.025 A 
HETATM   28  C   UNK N   1       5.400  -1.621  -0.425  0.00  0.00     0.030 A 
HETATM   29  C   UNK N   1       4.218  -0.882  -0.537  0.00  0.00     0.017 A 
BRANCH  27  30
HETATM   30  N   UNK N   1       7.760  -1.748   0.140  0.00  0.00    -0.399 N 
HETATM   31  H   UNK N   1       7.724  -2.728   0.229  0.00  0.00     0.156 HD
HETATM   32  H   UNK N   1       8.631  -1.288   0.140  0.00  0.00     0.156 HD
ENDBRANCH  27  30
ENDBRANCH   4  24
BRANCH   2  33
HETATM   33  N   UNK N   1      -0.287   3.996  -0.257  0.00  0.00    -0.278 N 
HETATM   34  H   UNK N   1      -0.107   4.930  -0.509  0.00  0.00     0.179 HD
BRANCH  33  35
HETATM   35  S   UNK N   1      -1.917   3.576   0.254  0.00  0.00     0.227 S 
HETATM   36  C   UNK N   1      -3.091   2.934  -0.970  0.00  0.00     0.186 C 
HETATM   37  O   UNK N   1      -1.725   2.651   1.466  0.00  0.00    -0.206 OA
HETATM   38  O   UNK N   1      -2.428   4.855   0.933  0.00  0.00    -0.206 OA
ENDBRANCH  33  35
ENDBRANCH   2  33
TORSDOF 10
