REMARK  6 active torsions:
REMARK  status: ('A' for Active; 'I' for Inactive)
REMARK    1  A    between atoms: C_1  and  C_12 
REMARK    2  A    between atoms: C_2  and  O_3 
REMARK    3  A    between atoms: C_4  and  O_5 
REMARK    4  A    between atoms: C_6  and  O_7 
REMARK    5  A    between atoms: C_8  and  C_10 
REMARK    6  A    between atoms: C_10  and  O_11 
ROOT
HETATM    1  C   UNK N   1      -1.636  -1.103   0.450  0.00  0.00     0.210 C 
HETATM    2  C   UNK N   1      -2.310  -2.133  -0.489  0.00  0.00     0.184 C 
HETATM    3  C   UNK N   1      -3.830  -2.090  -0.285  0.00  0.00     0.181 C 
HETATM    4  C   UNK N   1      -4.327  -0.646  -0.442  0.00  0.00     0.180 C 
HETATM    5  C   UNK N   1      -3.509   0.285   0.484  0.00  0.00     0.177 C 
HETATM    6  O   UNK N   1      -2.124   0.205   0.167  0.00  0.00    -0.366 OA
ENDROOT
BRANCH   1   7
HETATM    7  C   UNK N   1      -0.146  -1.160   0.272  0.00  0.00     0.084 A 
HETATM    8  N   UNK N   1       0.631  -0.137  -0.191  0.00  0.00    -0.351 N 
HETATM    9  C   UNK N   1       1.954  -0.511  -0.280  0.00  0.00     0.050 A 
ATOM     10  HN  UNK N   1       0.277   0.787  -0.440  1.00  0.00     0.166 HD
HETATM   11  C   UNK N   1       2.981   0.313  -0.743  0.00  0.00     0.037 A 
HETATM   12  C   UNK N   1       2.237  -1.819   0.116  0.00  0.00     0.033 A 
HETATM   13  C   UNK N   1       4.288  -0.207  -0.798  0.00  0.00    -0.060 A 
HETATM   14  C   UNK N   1       4.553  -1.533  -0.389  0.00  0.00     0.008 A 
HETATM   15  C   UNK N   1       5.399   0.643  -1.299  0.00  0.00     0.048 C 
HETATM   16  C   UNK N   1       3.515  -2.356   0.076  0.00  0.00     0.022 A 
HETATM   17  S   UNK N   1       0.808  -2.493   0.573  0.00  0.00    -0.072 SA
ENDBRANCH   1   7
BRANCH   2  18
HETATM   18  O   UNK N   1      -2.003  -1.829  -1.820  0.00  0.00    -0.390 OA
HETATM   19  H   UNK N   1      -1.714  -1.908  -2.743  0.00  0.00     0.210 HD
ENDBRANCH   2  18
BRANCH   3  20
HETATM   20  O   UNK N   1      -4.141  -2.564   0.994  0.00  0.00    -0.390 OA
HETATM   21  H   UNK N   1      -4.533  -2.541   1.881  0.00  0.00     0.210 HD
ENDBRANCH   3  20
BRANCH   5  22
HETATM   22  C   UNK N   1      -3.982   1.734   0.362  0.00  0.00     0.198 C 
BRANCH  22  23
HETATM   23  O   UNK N   1      -3.914   2.184  -0.958  0.00  0.00    -0.398 OA
HETATM   24  H   UNK N   1      -3.620   2.300  -1.875  0.00  0.00     0.209 HD
ENDBRANCH  22  23
ENDBRANCH   5  22
BRANCH   4  25
HETATM   25  O   UNK N   1      -5.689  -0.575  -0.136  0.00  0.00    -0.390 OA
HETATM   26  H   UNK N   1      -6.119   0.268   0.076  0.00  0.00     0.210 HD
ENDBRANCH   4  25
TORSDOF 6
