REMARK  9 active torsions:
REMARK  status: ('A' for Active; 'I' for Inactive)
REMARK    1  A    between atoms: C_2  and  S_1 
REMARK    2  A    between atoms: C_2  and  C_3 
REMARK    3  A    between atoms: C_2  and  C_10 
REMARK    4  A    between atoms: C_3  and  C_4 
REMARK       I    between atoms: C_10  and  N_12 
REMARK    5  A    between atoms: N_12  and  C_13 
REMARK    6  A    between atoms: C_13  and  C_14 
REMARK       I    between atoms: C_14  and  N_16 
REMARK    7  A    between atoms: C_17  and  C_21 
REMARK    8  A    between atoms: C_18  and  C_27 
REMARK    9  A    between atoms: C_27  and  O_29 
ROOT
HETATM    1  C   UNK N   1       1.259  -0.280   1.171  0.00  0.00     0.238 C 
HETATM    2  O   UNK N   1       1.354   0.730   1.856  0.00  0.00    -0.271 OA
HETATM    3  N   UNK N   1       2.379  -0.767   0.529  0.00  0.00    -0.327 N 
HETATM    4  C   UNK N   1       3.672  -0.112   0.655  0.00  0.00     0.121 C 
HETATM    5  C   UNK N   1       2.413  -1.971  -0.287  0.00  0.00     0.186 C 
HETATM    6  C   UNK N   1       3.810  -1.980  -0.901  0.00  0.00     0.039 C 
HETATM    7  C   UNK N   1       4.651  -0.991  -0.106  0.00  0.00     0.033 C 
ENDROOT
BRANCH   1   8
HETATM    8  C   UNK N   1      -0.100  -0.929   1.109  0.00  0.00     0.225 C 
BRANCH   8   9
HETATM    9  N   UNK N   1      -0.504  -1.304  -0.226  0.00  0.00    -0.351 N 
HETATM   10  C   UNK N   1      -1.407  -0.637  -0.989  0.00  0.00     0.232 C 
HETATM   11  O   UNK N   1      -1.725  -1.116  -2.066  0.00  0.00    -0.272 OA
HETATM   12  H   UNK N   1      -0.090  -2.109  -0.615  0.00  0.00     0.163 HD
BRANCH  10  13
HETATM   13  C   UNK N   1      -2.021   0.681  -0.573  0.00  0.00     0.140 C 
BRANCH  13  14
HETATM   14  S   UNK N   1      -0.750   1.965  -0.411  0.00  0.00    -0.168 SA
HETATM   15  H   UNK N   1       0.560   1.622  -0.291  0.00  0.00     0.102 HD
ENDBRANCH  13  14
BRANCH  13  16
HETATM   16  C   UNK N   1      -2.798   0.555   0.739  0.00  0.00     0.063 C 
BRANCH  16  17
HETATM   17  C   UNK N   1      -4.271   0.612   0.505  0.00  0.00    -0.057 A 
HETATM   18  C   UNK N   1      -5.015  -0.568   0.421  0.00  0.00     0.007 A 
HETATM   19  C   UNK N   1      -6.388  -0.510   0.165  0.00  0.00     0.001 A 
HETATM   20  C   UNK N   1      -7.018   0.727  -0.005  0.00  0.00     0.000 A 
HETATM   21  C   UNK N   1      -6.275   1.908   0.082  0.00  0.00     0.001 A 
HETATM   22  C   UNK N   1      -4.901   1.851   0.333  0.00  0.00     0.007 A 
ENDBRANCH  16  17
ENDBRANCH  13  16
ENDBRANCH  10  13
ENDBRANCH   8   9
ENDBRANCH   1   8
BRANCH   4  23
HETATM   23  C   UNK N   1       3.727   1.322   0.148  0.00  0.00    -0.035 A 
HETATM   24  C   UNK N   1       2.615   1.954  -0.432  0.00  0.00     0.009 A 
HETATM   25  C   UNK N   1       2.685   3.294  -0.830  0.00  0.00     0.001 A 
HETATM   26  C   UNK N   1       3.868   4.014  -0.654  0.00  0.00     0.000 A 
HETATM   27  C   UNK N   1       4.985   3.393  -0.090  0.00  0.00     0.001 A 
HETATM   28  C   UNK N   1       4.914   2.055   0.310  0.00  0.00     0.009 A 
ENDBRANCH   4  23
BRANCH   5  29
HETATM   29  C   UNK N   1       2.159  -3.235   0.523  0.00  0.00     0.163 C 
HETATM   30  O   UNK N   1       3.038  -4.073   0.660  0.00  0.00    -0.648 OA
BRANCH  29  31
HETATM   31  O   UNK N   1       0.949  -3.472   1.063  0.00  0.00    -0.775 OA
HETATM   32  H   UNK N   1       0.386  -2.824   1.440  0.00  0.00     0.167 HD
ENDBRANCH  29  31
ENDBRANCH   5  29
TORSDOF 9
