REMARK  5 active torsions:
REMARK  status: ('A' for Active; 'I' for Inactive)
REMARK    1  A    between atoms: C_1  and  N_5 
REMARK       I    between atoms: N_5  and  C_8 
REMARK    2  A    between atoms: C_6  and  N_9 
REMARK       I    between atoms: C_8  and  N_10 
REMARK    3  A    between atoms: N_10  and  C_14 
REMARK    4  A    between atoms: C_14  and  C_15 
REMARK    5  A    between atoms: C_20  and  O_21 
ROOT
HETATM    1  N   UNK N   1      -0.878   0.588  -0.195  0.00  0.00    -0.289 N 
HETATM    2  C   UNK N   1      -0.002   1.544   0.217  0.00  0.00     0.322 C 
HETATM    3  N   UNK N   1       1.307   1.458  -0.121  0.00  0.00    -0.339 N 
HETATM    4  O   UNK N   1      -0.387   2.489   0.890  0.00  0.00    -0.247 OA
HETATM    5  H   UNK N   1      -0.516  -0.243  -0.579  0.00  0.00     0.172 HD
HETATM    6  H   UNK N   1       1.954   2.088   0.270  0.00  0.00     0.164 HD
ENDROOT
BRANCH   1   7
HETATM    7  C   UNK N   1      -2.284   0.729  -0.101  0.00  0.00     0.154 A 
HETATM    8  S   UNK N   1      -3.359  -0.505   0.102  0.00  0.00    -0.028 SA
HETATM    9  C   UNK N   1      -4.728   0.420  -0.006  0.00  0.00     0.162 A 
HETATM   10  C   UNK N   1      -4.317   1.743  -0.231  0.00  0.00     0.134 A 
HETATM   11  N   UNK N   1      -2.946   1.902  -0.282  0.00  0.00    -0.343 N 
ATOM     12  HN  UNK N   1      -2.484   2.798  -0.438  1.00  0.00     0.167 HD
BRANCH   9  13
HETATM   13  N   UNK N   1      -6.065  -0.026   0.116  0.00  0.00    -0.107 N 
HETATM   14  O   UNK N   1      -7.060   0.816  -0.053  0.00  0.00    -0.531 OA
HETATM   15  O   UNK N   1      -6.295  -1.165   0.396  0.00  0.00    -0.531 OA
ENDBRANCH   9  13
ENDBRANCH   1   7
BRANCH   3  16
HETATM   16  C   UNK N   1       1.759   0.450  -1.048  0.00  0.00     0.162 C 
BRANCH  16  17
HETATM   17  C   UNK N   1       2.893  -0.356  -0.526  0.00  0.00    -0.040 A 
HETATM   18  C   UNK N   1       4.155   0.220  -0.339  0.00  0.00     0.011 A 
HETATM   19  C   UNK N   1       5.239  -0.582   0.031  0.00  0.00     0.037 A 
HETATM   20  C   UNK N   1       5.067  -1.969   0.210  0.00  0.00     0.068 A 
HETATM   21  C   UNK N   1       3.799  -2.530   0.035  0.00  0.00     0.037 A 
HETATM   22  C   UNK N   1       2.718  -1.729  -0.339  0.00  0.00     0.011 A 
BRANCH  20  23
HETATM   23  O   UNK N   1       6.102  -2.780   0.531  0.00  0.00    -0.356 OA
HETATM   24  C   UNK N   1       7.400  -2.338   0.645  0.00  0.00     0.210 C 
ENDBRANCH  20  23
ENDBRANCH  16  17
ENDBRANCH   3  16
TORSDOF 5
