REMARK  3 active torsions:
REMARK  status: ('A' for Active; 'I' for Inactive)
REMARK    1  A    between atoms: C_3  and  N_4 
REMARK    2  A    between atoms: C_8  and  N_9 
REMARK    3  A    between atoms: C_13  and  N_14 
ROOT
HETATM    1  C   UNK N   1       0.831   0.358  -0.000  0.00  0.00     0.004 A 
HETATM    2  C   UNK N   1       2.091   1.167  -0.000  0.00  0.00     0.053 C 
HETATM    3  C   UNK N   1       0.889  -1.072   0.000  0.00  0.00     0.113 A 
HETATM    4  C   UNK N   1      -0.314  -1.798   0.000  0.00  0.00     0.072 A 
HETATM    5  C   UNK N   1      -1.552  -1.155   0.000  0.00  0.00     0.107 A 
HETATM    6  C   UNK N   1      -1.599   0.230  -0.000  0.00  0.00     0.072 A 
HETATM    7  C   UNK N   1      -0.441   1.010  -0.000  0.00  0.00     0.113 A 
ENDROOT
BRANCH   3   8
HETATM    8  N   UNK N   1       2.121  -1.810   0.000  0.00  0.00    -0.115 N 
HETATM    9  O   UNK N   1       2.097  -3.004  -0.000  0.00  0.00    -0.532 OA
HETATM   10  O   UNK N   1       3.287  -1.200   0.000  0.00  0.00    -0.532 OA
ENDBRANCH   3   8
BRANCH   7  11
HETATM   11  N   UNK N   1      -0.602   2.435  -0.000  0.00  0.00    -0.115 N 
HETATM   12  O   UNK N   1      -1.702   2.905  -0.000  0.00  0.00    -0.532 OA
HETATM   13  O   UNK N   1       0.432   3.246  -0.000  0.00  0.00    -0.532 OA
ENDBRANCH   7  11
BRANCH   5  14
HETATM   14  N   UNK N   1      -2.763  -1.898   0.000  0.00  0.00    -0.116 N 
HETATM   15  O   UNK N   1      -2.742  -3.091   0.000  0.00  0.00    -0.532 OA
HETATM   16  O   UNK N   1      -3.921  -1.269  -0.000  0.00  0.00    -0.532 OA
ENDBRANCH   5  14
TORSDOF 3
