REMARK  4 active torsions:
REMARK  status: ('A' for Active; 'I' for Inactive)
REMARK    1  A    between atoms: C_5  and  S_8 
REMARK    2  A    between atoms: S_8  and  N_11 
REMARK    3  A    between atoms: C_15  and  C_16 
REMARK    4  A    between atoms: C_16  and  O_18 
ROOT
HETATM    1  S   UNK N   1       0.150  -1.102   0.238  0.00  0.00     0.244 S 
HETATM    2  O   UNK N   1       0.053  -0.075  -0.904  0.00  0.00    -0.206 OA
HETATM    3  O   UNK N   1      -0.252  -0.137   1.363  0.00  0.00    -0.206 OA
ENDROOT
BRANCH   1   4
HETATM    4  C   UNK N   1       1.738  -0.201   0.047  0.00  0.00     0.074 A 
HETATM    5  C   UNK N   1       2.874  -0.889  -0.401  0.00  0.00     0.025 A 
HETATM    6  C   UNK N   1       4.113  -0.236  -0.469  0.00  0.00     0.008 A 
HETATM    7  C   UNK N   1       4.228   1.105  -0.082  0.00  0.00    -0.062 A 
HETATM    8  C   UNK N   1       3.111   1.798   0.376  0.00  0.00     0.008 A 
HETATM    9  C   UNK N   1       5.543   1.795  -0.144  0.00  0.00     0.048 C 
HETATM   10  C   UNK N   1       1.881   1.153   0.454  0.00  0.00     0.025 A 
ENDBRANCH   1   4
BRANCH   1  11
HETATM   11  N   UNK N   1      -1.520  -1.212  -0.439  0.00  0.00    -0.192 NA
HETATM   12  C   UNK N   1      -1.948  -2.607  -0.391  0.00  0.00     0.109 C 
HETATM   13  C   UNK N   1      -3.458  -2.624  -0.187  0.00  0.00     0.018 C 
HETATM   14  C   UNK N   1      -3.871  -1.172  -0.181  0.00  0.00     0.033 C 
HETATM   15  C   UNK N   1      -2.604  -0.454   0.222  0.00  0.00     0.172 C 
BRANCH  15  16
HETATM   16  C   UNK N   1      -2.623   1.009  -0.183  0.00  0.00     0.159 C 
HETATM   17  O   UNK N   1      -3.585   1.477  -0.776  0.00  0.00    -0.649 OA
BRANCH  16  18
HETATM   18  O   UNK N   1      -1.592   1.817   0.125  0.00  0.00    -0.775 OA
HETATM   19  H   UNK N   1      -0.746   1.477   0.340  0.00  0.00     0.167 HD
ENDBRANCH  16  18
ENDBRANCH  15  16
ENDBRANCH   1  11
TORSDOF 4
