REMARK  4 active torsions:
REMARK  status: ('A' for Active; 'I' for Inactive)
REMARK    1  A    between atoms: C_1  and  N_14 
REMARK       I    between atoms: C_4  and  N_13 
REMARK    2  A    between atoms: C_8  and  S_15 
REMARK    3  A    between atoms: S_15  and  C_16 
REMARK    4  A    between atoms: C_19  and  N_24 
ROOT
HETATM    1  C   UNK N   1      -4.476   1.645  -0.189  0.00  0.00     0.128 A 
HETATM    2  N   UNK N   1      -5.555   2.352   0.230  0.00  0.00    -0.176 N 
ATOM      3  HN  UNK N   1      -6.471   1.903   0.236  1.00  0.00     0.186 HD
HETATM    4  C   UNK N   1      -5.450   3.640   0.640  0.00  0.00     0.677 A 
HETATM    5  N   UNK N   1      -4.242   4.252   0.652  0.00  0.00    -0.191 N 
ATOM      6  HN  UNK N   1      -4.173   5.218   0.972  1.00  0.00     0.184 HD
HETATM    7  C   UNK N   1      -0.799   2.357  -0.656  0.00  0.00     0.020 A 
HETATM    8  C   UNK N   1      -1.996   1.628  -0.665  0.00  0.00     0.021 A 
HETATM    9  C   UNK N   1      -3.194   2.260  -0.208  0.00  0.00     0.052 A 
HETATM   10  C   UNK N   1      -3.123   3.605   0.246  0.00  0.00     0.064 A 
HETATM   11  C   UNK N   1      -1.906   4.286   0.261  0.00  0.00     0.031 A 
HETATM   12  C   UNK N   1      -0.747   3.663  -0.182  0.00  0.00     0.004 A 
HETATM   13  N   UNK N   1      -6.599   4.345   1.045  0.00  0.00    -0.234 N 
HETATM   14  H   UNK N   1      -6.574   5.287   1.328  0.00  0.00     0.174 HD
HETATM   15  H   UNK N   1      -7.464   3.875   1.045  0.00  0.00     0.174 HD
ENDROOT
BRANCH   8  16
HETATM   16  S   UNK N   1      -1.978  -0.032  -1.397  0.00  0.00    -0.090 SA
BRANCH  16  17
HETATM   17  C   UNK N   1      -0.494  -0.743  -0.671  0.00  0.00     0.005 A 
HETATM   18  C   UNK N   1       0.740  -0.101  -0.798  0.00  0.00     0.021 A 
HETATM   19  C   UNK N   1       1.910  -0.730  -0.379  0.00  0.00     0.030 A 
HETATM   20  C   UNK N   1       1.872  -2.034   0.140  0.00  0.00     0.030 A 
HETATM   21  C   UNK N   1       0.627  -2.677   0.268  0.00  0.00     0.030 A 
HETATM   22  C   UNK N   1      -0.548  -2.033  -0.134  0.00  0.00     0.021 A 
BRANCH  20  23
HETATM   23  N   UNK N   1       3.088  -2.721   0.439  0.00  0.00    -0.377 N 
HETATM   24  C   UNK N   1       3.044  -4.157   0.708  0.00  0.00     0.149 C 
HETATM   25  C   UNK N   1       4.437  -4.790   0.762  0.00  0.00     0.187 C 
HETATM   26  O   UNK N   1       5.281  -4.162  -0.160  0.00  0.00    -0.388 OA
HETATM   27  C   UNK N   1       5.564  -2.929   0.433  0.00  0.00     0.187 C 
HETATM   28  C   UNK N   1       4.356  -2.011   0.275  0.00  0.00     0.149 C 
ENDBRANCH  20  23
ENDBRANCH  16  17
ENDBRANCH   8  16
BRANCH   1  29
HETATM   29  N   UNK N   1      -4.672   0.309  -0.593  0.00  0.00    -0.384 N 
HETATM   30  H   UNK N   1      -5.549  -0.039  -0.875  0.00  0.00     0.157 HD
HETATM   31  H   UNK N   1      -3.900  -0.302  -0.593  0.00  0.00     0.157 HD
ENDBRANCH   1  29
TORSDOF 4
