REMARK  13 active torsions:
REMARK  status: ('A' for Active; 'I' for Inactive)
REMARK    1  A    between atoms: O_2  and  C_3 
REMARK    2  A    between atoms: C_3  and  C_4 
REMARK    3  A    between atoms: C_4  and  O_5 
REMARK    4  A    between atoms: O_5  and  C_6 
REMARK    5  A    between atoms: C_6  and  C_7 
REMARK    6  A    between atoms: C_7  and  O_8 
REMARK    7  A    between atoms: O_8  and  C_9 
REMARK    8  A    between atoms: C_9  and  C_10 
REMARK    9  A    between atoms: C_10  and  O_11 
REMARK   10  A    between atoms: O_11  and  C_12 
REMARK   11  A    between atoms: C_17  and  C_18 
REMARK   12  A    between atoms: C_18  and  C_21 
REMARK   13  A    between atoms: C_21  and  C_22 
ROOT
HETATM    1  C   UNK N   1       0.551   1.563  -0.081  0.00  0.00     0.068 A 
HETATM    2  C   UNK N   1       1.691   1.445  -0.882  0.00  0.00     0.037 A 
HETATM    3  C   UNK N   1       2.559   0.359  -0.723  0.00  0.00     0.011 A 
HETATM    4  C   UNK N   1       0.292   0.583   0.890  0.00  0.00     0.037 A 
HETATM    5  C   UNK N   1       1.159  -0.498   1.047  0.00  0.00     0.011 A 
HETATM    6  C   UNK N   1       2.307  -0.625   0.245  0.00  0.00    -0.050 A 
ENDROOT
BRANCH   1   7
HETATM    7  O   UNK N   1      -0.292   2.607  -0.272  0.00  0.00    -0.349 OA
BRANCH   7   8
HETATM    8  C   UNK N   1      -1.436   2.800   0.477  0.00  0.00     0.201 C 
BRANCH   8   9
HETATM    9  C   UNK N   1      -2.650   2.271  -0.270  0.00  0.00     0.194 C 
BRANCH   9  10
HETATM   10  O   UNK N   1      -2.547   0.885  -0.400  0.00  0.00    -0.387 OA
BRANCH  10  11
HETATM   11  C   UNK N   1      -3.668   0.496  -1.133  0.00  0.00     0.193 C 
BRANCH  11  12
HETATM   12  C   UNK N   1      -4.337  -0.687  -0.452  0.00  0.00     0.193 C 
BRANCH  12  13
HETATM   13  O   UNK N   1      -5.020  -0.260   0.690  0.00  0.00    -0.387 OA
BRANCH  13  14
HETATM   14  C   UNK N   1      -6.368  -0.521   0.428  0.00  0.00     0.193 C 
BRANCH  14  15
HETATM   15  C   UNK N   1      -7.048   0.736  -0.086  0.00  0.00     0.193 C 
BRANCH  15  16
HETATM   16  O   UNK N   1      -8.388   0.467  -0.363  0.00  0.00    -0.394 OA
HETATM   17  C   UNK N   1      -9.089   1.489   0.275  0.00  0.00     0.201 C 
ENDBRANCH  15  16
ENDBRANCH  14  15
ENDBRANCH  13  14
ENDBRANCH  12  13
ENDBRANCH  11  12
ENDBRANCH  10  11
ENDBRANCH   9  10
ENDBRANCH   8   9
ENDBRANCH   7   8
ENDBRANCH   1   7
BRANCH   6  18
HETATM   18  C   UNK N   1       3.204  -1.840   0.427  0.00  0.00    -0.020 C 
HETATM   19  C   UNK N   1       2.365  -3.070   0.124  0.00  0.00     0.020 C 
HETATM   20  C   UNK N   1       3.628  -1.952   1.884  0.00  0.00     0.020 C 
BRANCH  18  21
HETATM   21  C   UNK N   1       4.441  -1.958  -0.505  0.00  0.00     0.022 C 
BRANCH  21  22
HETATM   22  C   UNK N   1       5.688  -1.051  -0.383  0.00  0.00    -0.050 C 
HETATM   23  C   UNK N   1       6.208  -0.931   1.037  0.00  0.00     0.014 C 
HETATM   24  C   UNK N   1       6.782  -1.694  -1.209  0.00  0.00     0.014 C 
HETATM   25  C   UNK N   1       5.457   0.333  -0.945  0.00  0.00     0.014 C 
ENDBRANCH  21  22
ENDBRANCH  18  21
ENDBRANCH   6  18
TORSDOF 13
