REMARK  8 active torsions:
REMARK  status: ('A' for Active; 'I' for Inactive)
REMARK    1  A    between atoms: N_3  and  C_4 
REMARK    2  A    between atoms: C_4  and  C_5 
REMARK    3  A    between atoms: N_7  and  C_8 
REMARK    4  A    between atoms: C_8  and  C_9 
REMARK    5  A    between atoms: C_9  and  C_10 
REMARK    6  A    between atoms: C_19  and  C_20 
REMARK    7  A    between atoms: C_20  and  C_21 
REMARK    8  A    between atoms: C_24  and  N_27 
REMARK       I    between atoms: N_27  and  C_28 
ROOT
HETATM    1  O   UNK N   1       4.412  -0.345  -0.219  0.00  0.00    -0.246 OA
HETATM    2  C   UNK N   1       3.448  -1.086  -0.100  0.00  0.00     0.333 A 
HETATM    3  N   UNK N   1       3.632  -2.422   0.270  0.00  0.00    -0.261 N 
HETATM    4  N   UNK N   1       2.172  -0.593  -0.324  0.00  0.00    -0.283 N 
HETATM    5  C   UNK N   1       1.125  -1.441  -0.156  0.00  0.00     0.145 A 
HETATM    6  N   UNK N   1      -0.173  -1.144  -0.274  0.00  0.00    -0.330 N 
ATOM      7  HN  UNK N   1      -0.593  -0.254  -0.541  1.00  0.00     0.168 HD
HETATM    8  C   UNK N   1       1.274  -2.729   0.208  0.00  0.00     0.147 A 
HETATM    9  C   UNK N   1       2.534  -3.257   0.423  0.00  0.00     0.282 A 
HETATM   10  O   UNK N   1       2.670  -4.423   0.758  0.00  0.00    -0.265 OA
HETATM   11  N   UNK N   1       0.067  -3.309   0.341  0.00  0.00    -0.338 N 
HETATM   12  C   UNK N   1      -0.802  -2.306   0.046  0.00  0.00     0.087 A 
HETATM   13  H   UNK N   1      -0.138  -4.238   0.593  0.00  0.00     0.167 HD
ENDROOT
BRANCH  12  14
HETATM   14  C   UNK N   1      -2.295  -2.418   0.218  0.00  0.00     0.115 C 
BRANCH  14  15
HETATM   15  C   UNK N   1      -2.920  -1.055   0.232  0.00  0.00    -0.051 A 
HETATM   16  C   UNK N   1      -3.869  -0.701  -0.731  0.00  0.00     0.010 A 
HETATM   17  C   UNK N   1      -4.353   0.612  -0.785  0.00  0.00     0.030 A 
HETATM   18  C   UNK N   1      -3.873   1.584   0.103  0.00  0.00     0.034 A 
HETATM   19  C   UNK N   1      -2.953   1.211   1.093  0.00  0.00     0.030 A 
HETATM   20  C   UNK N   1      -2.486  -0.100   1.162  0.00  0.00     0.010 A 
BRANCH  18  21
HETATM   21  N   UNK N   1      -4.318   2.930  -0.046  0.00  0.00    -0.328 N 
HETATM   22  C   UNK N   1      -3.709   4.047   0.442  0.00  0.00     0.218 C 
HETATM   23  O   UNK N   1      -4.221   5.135   0.242  0.00  0.00    -0.274 OA
HETATM   24  C   UNK N   1      -2.398   4.002   1.164  0.00  0.00     0.117 C 
HETATM   25  H   UNK N   1      -5.150   3.066  -0.554  0.00  0.00     0.169 HD
ENDBRANCH  18  21
ENDBRANCH  14  15
ENDBRANCH  12  14
BRANCH   4  26
HETATM   26  C   UNK N   1       1.958   0.796  -0.732  0.00  0.00     0.135 C 
BRANCH  26  27
HETATM   27  C   UNK N   1       1.105   1.551   0.279  0.00  0.00     0.020 C 
BRANCH  27  28
HETATM   28  C   UNK N   1       0.516   2.797  -0.361  0.00  0.00    -0.003 C 
HETATM   29  C   UNK N   1      -0.548   2.422  -1.378  0.00  0.00     0.005 C 
ENDBRANCH  27  28
ENDBRANCH  26  27
ENDBRANCH   4  26
BRANCH   3  30
HETATM   30  C   UNK N   1       4.974  -2.946   0.539  0.00  0.00     0.163 C 
BRANCH  30  31
HETATM   31  C   UNK N   1       5.827  -2.925  -0.687  0.00  0.00    -0.017 C 
HETATM   32  C   UNK N   1       6.978  -2.260  -0.680  0.00  0.00     0.008 C 
ENDBRANCH  30  31
ENDBRANCH   3  30
TORSDOF 8
