REMARK  5 active torsions:
REMARK  status: ('A' for Active; 'I' for Inactive)
REMARK    1  A    between atoms: N_1  and  C_2 
REMARK    2  A    between atoms: C_9  and  N_10 
REMARK    3  A    between atoms: N_10  and  C_11 
REMARK    4  A    between atoms: C_16  and  S_17 
REMARK    5  A    between atoms: S_17  and  N_20 
ROOT
HETATM    1  N   UNK N   1       1.241  -1.603  -0.149  0.00  0.00    -0.342 N 
HETATM    2  H   UNK N   1       1.217  -2.585  -0.216  0.00  0.00     0.167 HD
ENDROOT
BRANCH   1   3
HETATM    3  C   UNK N   1       2.525  -0.983   0.005  0.00  0.00     0.110 A 
HETATM    4  N   UNK N   1       3.647  -1.695  -0.255  0.00  0.00    -0.338 N 
HETATM    5  C   UNK N   1       4.884  -1.138  -0.122  0.00  0.00     0.183 A 
ATOM      6  HN  UNK N   1       3.565  -2.666  -0.555  1.00  0.00     0.168 HD
HETATM    7  N   UNK N   1       5.010   0.154   0.290  0.00  0.00    -0.339 N 
HETATM    8  C   UNK N   1       3.917   0.897   0.574  0.00  0.00     0.103 A 
ATOM      9  HN  UNK N   1       5.938   0.565   0.386  1.00  0.00     0.168 HD
HETATM   10  C   UNK N   1       2.645   0.348   0.439  0.00  0.00     0.096 A 
BRANCH   8  11
HETATM   11  N   UNK N   1       4.059   2.233   1.009  0.00  0.00    -0.385 N 
HETATM   12  H   UNK N   1       4.915   2.612   1.312  0.00  0.00     0.157 HD
HETATM   13  H   UNK N   1       3.263   2.812   1.009  0.00  0.00     0.157 HD
ENDBRANCH   8  11
ENDBRANCH   1   3
BRANCH   1  14
HETATM   14  C   UNK N   1      -0.003  -0.912  -0.214  0.00  0.00     0.033 A 
HETATM   15  C   UNK N   1      -1.217  -1.621  -0.156  0.00  0.00     0.031 A 
HETATM   16  C   UNK N   1      -2.448  -0.937  -0.237  0.00  0.00     0.027 A 
HETATM   17  C   UNK N   1      -2.456   0.468  -0.365  0.00  0.00     0.079 A 
HETATM   18  C   UNK N   1      -1.243   1.150  -0.452  0.00  0.00     0.027 A 
HETATM   19  C   UNK N   1      -0.039   0.475  -0.381  0.00  0.00     0.031 A 
BRANCH  17  20
HETATM   20  S   UNK N   1      -3.937   1.497  -0.477  0.00  0.00     0.256 S 
HETATM   21  O   UNK N   1      -5.406   1.363  -0.047  0.00  0.00    -0.201 OA
HETATM   22  O   UNK N   1      -3.560   2.895   0.030  0.00  0.00    -0.201 OA
BRANCH  20  23
HETATM   23  N   UNK N   1      -3.813   1.005   1.215  0.00  0.00    -0.324 N 
HETATM   24  H   UNK N   1      -4.023   0.801   2.192  0.00  0.00     0.169 HD
HETATM   25  H   UNK N   1      -2.832   0.726   1.215  0.00  0.00     0.169 HD
ENDBRANCH  20  23
ENDBRANCH  17  20
ENDBRANCH   1  14
TORSDOF 5
