REMARK  5 active torsions:
REMARK  status: ('A' for Active; 'I' for Inactive)
REMARK    1  A    between atoms: C_5  and  C_17 
REMARK    2  A    between atoms: C_6  and  O_15 
REMARK    3  A    between atoms: C_9  and  C_11 
REMARK    4  A    between atoms: C_11  and  N_14 
REMARK    5  A    between atoms: N_19  and  S_23 
ROOT
HETATM    1  C   UNK N   1      -1.768  -2.866  -0.038  0.00  0.00     0.038 A 
HETATM    2  C   UNK N   1      -0.523  -3.467   0.035  0.00  0.00     0.015 A 
HETATM    3  C   UNK N   1       0.623  -2.694   0.049  0.00  0.00    -0.025 A 
HETATM    4  C   UNK N   1       0.534  -1.281  -0.006  0.00  0.00    -0.011 A 
HETATM    5  C   UNK N   1      -0.747  -0.628  -0.068  0.00  0.00     0.021 A 
HETATM    6  C   UNK N   1      -1.922  -1.476  -0.079  0.00  0.00     0.080 A 
HETATM    7  C   UNK N   1       1.870  -3.328   0.103  0.00  0.00     0.013 A 
HETATM    8  C   UNK N   1       3.046  -2.576   0.094  0.00  0.00     0.016 A 
HETATM    9  C   UNK N   1       2.984  -1.180   0.031  0.00  0.00     0.008 A 
HETATM   10  C   UNK N   1       1.737  -0.555  -0.014  0.00  0.00     0.028 A 
ENDROOT
BRANCH   5  11
HETATM   11  C   UNK N   1      -0.804   0.892  -0.143  0.00  0.00     0.013 A 
HETATM   12  C   UNK N   1      -1.908   1.718  -0.257  0.00  0.00     0.142 A 
HETATM   13  N   UNK N   1      -1.475   2.990  -0.222  0.00  0.00    -0.192 N 
HETATM   14  N   UNK N   1      -0.168   3.025  -0.099  0.00  0.00    -0.295 N 
HETATM   15  C   UNK N   1       0.283   1.760  -0.057  0.00  0.00     0.122 A 
ATOM     16  HN  UNK N   1       0.405   3.867  -0.045  1.00  0.00     0.187 HD
BRANCH  13  17
HETATM   17  S   UNK N   1      -2.506   4.419  -0.135  0.00  0.00     0.245 S 
HETATM   18  O   UNK N   1      -2.644   4.675   1.373  0.00  0.00    -0.204 OA
HETATM   19  O   UNK N   1      -1.613   5.591  -0.571  0.00  0.00    -0.204 OA
HETATM   20  C   UNK N   1      -4.114   4.383  -0.972  0.00  0.00     0.188 C 
ENDBRANCH  13  17
ENDBRANCH   5  11
BRANCH   6  21
HETATM   21  O   UNK N   1      -3.208  -1.043  -0.152  0.00  0.00    -0.355 OA
HETATM   22  C   UNK N   1      -3.774  -0.060   0.620  0.00  0.00     0.210 C 
ENDBRANCH   6  21
BRANCH   9  23
HETATM   23  C   UNK N   1       4.216  -0.361   0.003  0.00  0.00     0.102 C 
HETATM   24  N   UNK N   1       5.370  -0.920   0.026  0.00  0.00    -0.385 N 
HETATM   25  H   UNK N   1       5.441  -1.902   0.042  0.00  0.00     0.157 HD
ATOM     26  HN  UNK N   1       6.214  -0.348   0.026  1.00  0.00     0.157 HD
BRANCH  23  27
HETATM   27  N   UNK N   1       4.129   1.049  -0.063  0.00  0.00    -0.385 N 
HETATM   28  H   UNK N   1       4.949   1.592  -0.109  0.00  0.00     0.157 HD
HETATM   29  H   UNK N   1       3.248   1.488  -0.063  0.00  0.00     0.157 HD
ENDBRANCH  23  27
ENDBRANCH   9  23
TORSDOF 5
