REMARK  6 active torsions:
REMARK  status: ('A' for Active; 'I' for Inactive)
REMARK    1  A    between atoms: C_1  and  N_2 
REMARK    2  A    between atoms: C_1  and  C_3 
REMARK    3  A    between atoms: C_1  and  C_8 
REMARK    4  A    between atoms: C_3  and  O_4 
REMARK    5  A    between atoms: O_4  and  C_5 
REMARK    6  A    between atoms: C_8  and  O_10 
ROOT
HETATM    1  C   UNK N   1       1.066  -0.768  -0.432  0.00  0.00     0.198 C 
ENDROOT
BRANCH   1   2
HETATM    2  N   UNK N   1       1.695  -2.063  -0.226  0.00  0.00    -0.416 N 
HETATM    3  H   UNK N   1       1.129  -2.900  -0.081  0.00  0.00     0.150 HD
HETATM    4  H   UNK N   1       2.712  -2.136  -0.226  0.00  0.00     0.150 HD
ENDBRANCH   1   2
BRANCH   1   5
HETATM    5  C   UNK N   1      -0.233  -0.715   0.365  0.00  0.00     0.214 C 
BRANCH   5   6
HETATM    6  O   UNK N   1      -0.899   0.466   0.117  0.00  0.00    -0.319 OA
BRANCH   6   7
HETATM    7  C   UNK N   1      -2.246   0.553   0.005  0.00  0.00     0.254 C 
HETATM    8  O   UNK N   1      -2.758   1.642  -0.198  0.00  0.00    -0.266 OA
HETATM    9  C   UNK N   1      -3.126  -0.650   0.144  0.00  0.00     0.126 C 
ENDBRANCH   6   7
ENDBRANCH   5   6
ENDBRANCH   1   5
BRANCH   1  10
HETATM   10  C   UNK N   1       2.007   0.342  -0.038  0.00  0.00     0.165 C 
HETATM   11  O   UNK N   1       1.660   1.507  -0.159  0.00  0.00    -0.648 OA
BRANCH  10  12
HETATM   12  O   UNK N   1       3.242   0.065   0.423  0.00  0.00    -0.775 OA
HETATM   13  H   UNK N   1       3.505  -0.775   0.744  0.00  0.00     0.167 HD
ENDBRANCH  10  12
ENDBRANCH   1  10
TORSDOF 6
