REMARK  6 active torsions:
REMARK  status: ('A' for Active; 'I' for Inactive)
REMARK    1  A    between atoms: N_7  and  C_18 
REMARK    2  A    between atoms: C_18  and  C_19 
REMARK    3  A    between atoms: C_19  and  C_20 
REMARK    4  A    between atoms: C_20  and  N_21 
REMARK    5  A    between atoms: N_21  and  S_22 
REMARK    6  A    between atoms: S_22  and  C_23 
ROOT
HETATM    1  C   UNK N   1      -3.369  -3.852  -0.532  0.00  0.00     0.002 A 
HETATM    2  C   UNK N   1      -2.217  -3.083  -0.779  0.00  0.00     0.030 A 
HETATM    3  C   UNK N   1      -2.282  -1.714  -0.528  0.00  0.00     0.046 A 
HETATM    4  C   UNK N   1      -3.426  -1.119  -0.059  0.00  0.00     0.007 A 
HETATM    5  C   UNK N   1      -4.584  -1.852   0.192  0.00  0.00     0.015 A 
HETATM    6  C   UNK N   1      -4.547  -3.238  -0.049  0.00  0.00     0.001 A 
HETATM    7  N   UNK N   1      -1.304  -0.796  -0.691  0.00  0.00    -0.347 N 
HETATM    8  C   UNK N   1      -1.840   0.402  -0.316  0.00  0.00     0.060 A 
HETATM    9  C   UNK N   1      -3.152   0.222   0.072  0.00  0.00     0.049 A 
HETATM   10  C   UNK N   1      -1.221   1.785  -0.193  0.00  0.00     0.274 C 
HETATM   11  N   UNK N   1      -2.259   2.813  -0.468  0.00  0.00     0.106 N 
HETATM   12  C   UNK N   1      -3.405   2.733   0.460  0.00  0.00     0.356 C 
HETATM   13  C   UNK N   1      -3.988   1.342   0.511  0.00  0.00     0.190 C 
HETATM   14  C   UNK N   1      -0.003   2.070  -1.070  0.00  0.00     0.042 C 
HETATM   15  C   UNK N   1       0.626   3.426  -0.712  0.00  0.00     0.004 C 
HETATM   16  C   UNK N   1      -0.327   4.342   0.063  0.00  0.00     0.030 C 
HETATM   17  C   UNK N   1      -1.761   4.202  -0.459  0.00  0.00     0.274 C 
HETATM   18  O   UNK N   1      -5.130   1.161   0.901  0.00  0.00    -0.290 OA
ENDROOT
BRANCH   7  19
HETATM   19  C   UNK N   1       0.019  -1.148  -1.200  0.00  0.00     0.131 C 
BRANCH  19  20
HETATM   20  C   UNK N   1       1.145  -0.421  -0.517  0.00  0.00     0.040 C 
BRANCH  20  21
HETATM   21  C   UNK N   1       1.423  -0.723   0.948  0.00  0.00     0.133 C 
BRANCH  21  22
HETATM   22  N   UNK N   1       2.482   0.186   1.427  0.00  0.00    -0.319 N 
HETATM   23  H   UNK N   1       2.318   0.952   2.080  0.00  0.00     0.172 HD
BRANCH  22  24
HETATM   24  S   UNK N   1       4.093  -0.208   0.734  0.00  0.00     0.230 S 
HETATM   25  O   UNK N   1       3.802  -1.423  -0.163  0.00  0.00    -0.206 OA
HETATM   26  O   UNK N   1       3.492   0.690  -0.360  0.00  0.00    -0.206 OA
BRANCH  24  27
HETATM   27  C   UNK N   1       5.357   0.792  -0.138  0.00  0.00     0.121 C 
HETATM   28  C   UNK N   1       6.449   1.242   0.803  0.00  0.00     0.027 C 
HETATM   29  C   UNK N   1       5.972   0.022  -1.307  0.00  0.00     0.027 C 
ENDBRANCH  24  27
ENDBRANCH  22  24
ENDBRANCH  21  22
ENDBRANCH  20  21
ENDBRANCH  19  20
ENDBRANCH   7  19
TORSDOF 6
