REMARK  8 active torsions:
REMARK  status: ('A' for Active; 'I' for Inactive)
REMARK    1  A    between atoms: C_1  and  N_12 
REMARK    2  A    between atoms: C_2  and  C_7 
REMARK       I    between atoms: C_7  and  N_9 
REMARK    3  A    between atoms: N_9  and  O_10 
REMARK    4  A    between atoms: N_12  and  S_13 
REMARK    5  A    between atoms: N_12  and  C_14 
REMARK    6  A    between atoms: S_13  and  C_22 
REMARK    7  A    between atoms: C_14  and  C_20 
REMARK    8  A    between atoms: C_25  and  O_28 
ROOT
HETATM    1  N   UNK N   1      -1.569  -0.776  -0.161  0.00  0.00    -0.266 N 
ENDROOT
BRANCH   1   2
HETATM    2  C   UNK N   1      -1.454  -2.224   0.009  0.00  0.00     0.067 A 
HETATM    3  C   UNK N   1      -0.186  -2.879   0.214  0.00  0.00     0.062 A 
HETATM    4  C   UNK N   1      -0.129  -4.280   0.267  0.00  0.00     0.019 A 
HETATM    5  C   UNK N   1      -1.267  -5.059   0.171  0.00  0.00     0.002 A 
HETATM    6  C   UNK N   1      -2.501  -4.456   0.027  0.00  0.00     0.009 A 
HETATM    7  C   UNK N   1      -2.621  -3.070  -0.061  0.00  0.00    -0.033 A 
HETATM    8  C   UNK N   1      -4.009  -2.570  -0.285  0.00  0.00     0.050 C 
BRANCH   3   9
HETATM    9  C   UNK N   1       1.093  -2.195   0.496  0.00  0.00     0.277 C 
HETATM   10  O   UNK N   1       1.092  -1.097   1.028  0.00  0.00    -0.265 OA
HETATM   11  N   UNK N   1       2.267  -2.835   0.287  0.00  0.00    -0.233 N 
HETATM   12  H   UNK N   1       2.261  -3.747  -0.084  0.00  0.00     0.197 HD
BRANCH  11  13
HETATM   13  O   UNK N   1       3.437  -2.251   0.576  0.00  0.00    -0.287 OA
HETATM   14  H   UNK N   1       4.228  -2.773   0.785  0.00  0.00     0.244 HD
ENDBRANCH  11  13
ENDBRANCH   3   9
ENDBRANCH   1   2
BRANCH   1  15
HETATM   15  S   UNK N   1      -0.418   0.095  -1.228  0.00  0.00     0.265 S 
HETATM   16  O   UNK N   1      -1.270   0.976  -2.154  0.00  0.00    -0.200 OA
HETATM   17  O   UNK N   1       0.018  -0.978  -2.239  0.00  0.00    -0.200 OA
BRANCH  15  18
HETATM   18  C   UNK N   1       1.045   0.972  -0.629  0.00  0.00     0.080 A 
HETATM   19  C   UNK N   1       0.974   1.797   0.500  0.00  0.00     0.028 A 
HETATM   20  C   UNK N   1       2.135   2.383   1.018  0.00  0.00     0.038 A 
HETATM   21  C   UNK N   1       3.383   2.145   0.413  0.00  0.00     0.068 A 
HETATM   22  C   UNK N   1       3.447   1.329  -0.721  0.00  0.00     0.038 A 
HETATM   23  C   UNK N   1       2.287   0.741  -1.236  0.00  0.00     0.028 A 
BRANCH  21  24
HETATM   24  O   UNK N   1       4.528   2.678   0.904  0.00  0.00    -0.356 OA
HETATM   25  C   UNK N   1       4.574   3.454   2.040  0.00  0.00     0.210 C 
ENDBRANCH  21  24
ENDBRANCH  15  18
ENDBRANCH   1  15
BRANCH   1  26
HETATM   26  C   UNK N   1      -2.842  -0.154   0.203  0.00  0.00     0.182 C 
BRANCH  26  27
HETATM   27  C   UNK N   1      -3.006   1.331   0.131  0.00  0.00    -0.024 A 
HETATM   28  C   UNK N   1      -2.115   2.185   0.779  0.00  0.00     0.096 A 
HETATM   29  N   UNK N   1      -2.358   3.523   0.823  0.00  0.00    -0.375 N 
HETATM   30  C   UNK N   1      -3.484   4.060   0.279  0.00  0.00     0.087 A 
ATOM     31  HN  UNK N   1      -1.681   4.138   1.275  1.00  0.00     0.164 HD
HETATM   32  C   UNK N   1      -4.416   3.238  -0.357  0.00  0.00     0.018 A 
HETATM   33  C   UNK N   1      -4.174   1.864  -0.427  0.00  0.00     0.011 A 
ENDBRANCH  26  27
ENDBRANCH   1  26
TORSDOF 8
