REMARK  9 active torsions:
REMARK  status: ('A' for Active; 'I' for Inactive)
REMARK    1  A    between atoms: C_1  and  O_7 
REMARK    2  A    between atoms: C_4  and  C_8 
REMARK    3  A    between atoms: C_8  and  C_9 
REMARK    4  A    between atoms: C_9  and  C_10 
REMARK    5  A    between atoms: C_9  and  N_22 
REMARK       I    between atoms: C_10  and  N_11 
REMARK    6  A    between atoms: N_11  and  C_13 
REMARK    7  A    between atoms: C_16  and  C_19 
REMARK    8  A    between atoms: C_19  and  O_21 
REMARK       I    between atoms: N_22  and  C_23 
REMARK    9  A    between atoms: C_23  and  C_24 
ROOT
HETATM    1  C   UNK N   1       6.632  -4.298   0.137  0.00  0.00     0.181 C 
ENDROOT
BRANCH   1   2
HETATM    2  C   UNK N   1       5.555  -4.131  -0.941  0.00  0.00     0.073 C 
BRANCH   2   3
HETATM    3  C   UNK N   1       4.271  -4.780  -0.506  0.00  0.00    -0.056 A 
HETATM    4  C   UNK N   1       3.153  -3.991  -0.212  0.00  0.00     0.010 A 
HETATM    5  C   UNK N   1       1.969  -4.590   0.238  0.00  0.00     0.037 A 
HETATM    6  C   UNK N   1       1.901  -5.978   0.396  0.00  0.00     0.065 A 
HETATM    7  C   UNK N   1       3.010  -6.771   0.091  0.00  0.00     0.037 A 
HETATM    8  C   UNK N   1       4.189  -6.174  -0.360  0.00  0.00     0.010 A 
BRANCH   6   9
HETATM    9  O   UNK N   1       0.771  -6.551   0.841  0.00  0.00    -0.361 OA
HETATM   10  H   UNK N   1       0.031  -6.068   1.152  0.00  0.00     0.217 HD
ENDBRANCH   6   9
ENDBRANCH   2   3
ENDBRANCH   1   2
BRANCH   1  11
HETATM   11  C   UNK N   1       7.880  -3.469  -0.071  0.00  0.00     0.245 C 
HETATM   12  N   UNK N   1       9.078  -4.093  -0.225  0.00  0.00    -0.325 N 
HETATM   13  H   UNK N   1       9.047  -5.066  -0.374  0.00  0.00     0.169 HD
HETATM   14  O   UNK N   1       7.805  -2.249  -0.056  0.00  0.00    -0.271 OA
BRANCH  12  15
HETATM   15  C   UNK N   1      10.367  -3.503  -0.195  0.00  0.00     0.034 A 
HETATM   16  C   UNK N   1      10.605  -2.279   0.449  0.00  0.00     0.030 A 
HETATM   17  C   UNK N   1      11.914  -1.805   0.590  0.00  0.00     0.020 A 
HETATM   18  C   UNK N   1      12.994  -2.549   0.089  0.00  0.00     0.037 A 
HETATM   19  C   UNK N   1      12.749  -3.760  -0.568  0.00  0.00     0.020 A 
HETATM   20  C   UNK N   1      11.445  -4.238  -0.695  0.00  0.00     0.030 A 
BRANCH  18  21
HETATM   21  C   UNK N   1      14.381  -2.083   0.275  0.00  0.00     0.176 C 
HETATM   22  O   UNK N   1      14.611  -1.059   0.898  0.00  0.00    -0.646 OA
BRANCH  21  23
HETATM   23  O   UNK N   1      15.409  -2.800  -0.224  0.00  0.00    -0.773 OA
HETATM   24  H   UNK N   1      15.334  -3.667  -0.571  0.00  0.00     0.167 HD
ENDBRANCH  21  23
ENDBRANCH  18  21
ENDBRANCH  12  15
ENDBRANCH   1  11
BRANCH   1  25
HETATM   25  N   UNK N   1       6.921  -5.698   0.405  0.00  0.00    -0.343 N 
HETATM   26  C   UNK N   1       7.525  -6.557  -0.457  0.00  0.00     0.252 C 
HETATM   27  O   UNK N   1       7.902  -6.173  -1.559  0.00  0.00    -0.268 OA
HETATM   28  H   UNK N   1       6.658  -6.053   1.285  0.00  0.00     0.163 HD
BRANCH  26  29
HETATM   29  C   UNK N   1       7.744  -7.958  -0.052  0.00  0.00     0.032 A 
HETATM   30  C   UNK N   1       8.527  -8.815  -0.837  0.00  0.00     0.017 A 
HETATM   31  C   UNK N   1       8.735 -10.139  -0.440  0.00  0.00     0.001 A 
HETATM   32  C   UNK N   1       8.149 -10.617   0.736  0.00  0.00     0.000 A 
HETATM   33  C   UNK N   1       7.362  -9.770   1.520  0.00  0.00     0.001 A 
HETATM   34  C   UNK N   1       7.166  -8.443   1.132  0.00  0.00     0.017 A 
ENDBRANCH  26  29
ENDBRANCH   1  25
TORSDOF 9
