REMARK  7 active torsions:
REMARK  status: ('A' for Active; 'I' for Inactive)
REMARK    1  A    between atoms: C_3  and  C_15 
REMARK    2  A    between atoms: C_7  and  N_9 
REMARK       I    between atoms: N_9  and  C_10 
REMARK    3  A    between atoms: C_10  and  C_13 
REMARK    4  A    between atoms: C_13  and  C_18 
REMARK    5  A    between atoms: C_13  and  N_24 
REMARK    6  A    between atoms: C_15  and  O_17 
REMARK    7  A    between atoms: C_21  and  O_25 
ROOT
HETATM    1  N   UNK N   1      16.311  -7.579   1.342  0.00  0.00    -0.343 N 
HETATM    2  C   UNK N   1      15.593  -7.599   0.192  0.00  0.00     0.245 C 
HETATM    3  O   UNK N   1      16.054  -8.064  -0.840  0.00  0.00    -0.271 OA
HETATM    4  H   UNK N   1      15.885  -7.125   2.105  0.00  0.00     0.163 HD
ENDROOT
BRANCH   1   5
HETATM    5  C   UNK N   1      17.627  -8.141   1.594  0.00  0.00     0.210 A 
HETATM    6  C   UNK N   1      18.754  -8.056   0.425  0.00  0.00     0.187 A 
HETATM    7  N   UNK N   1      18.630  -9.482   0.319  0.00  0.00    -0.293 N 
HETATM    8  S   UNK N   1      20.432  -7.706   1.028  0.00  0.00    -0.136 SA
HETATM    9  C   UNK N   1      19.558 -10.444  -0.198  0.00  0.00     0.115 C 
HETATM   10  C   UNK N   1      17.694  -9.577   1.219  0.00  0.00     0.251 A 
HETATM   11  C   UNK N   1      20.800  -9.994  -0.540  0.00  0.00    -0.041 C 
HETATM   12  C   UNK N   1      21.131  -8.521  -0.457  0.00  0.00     0.112 C 
HETATM   13  C   UNK N   1      21.895 -10.900  -1.008  0.00  0.00     0.047 C 
HETATM   14  O   UNK N   1      17.249 -10.583   1.752  0.00  0.00    -0.271 OA
BRANCH   9  15
HETATM   15  C   UNK N   1      19.185 -11.901  -0.264  0.00  0.00     0.194 C 
HETATM   16  O   UNK N   1      18.031 -12.245  -0.078  0.00  0.00    -0.645 OA
BRANCH  15  17
HETATM   17  O   UNK N   1      20.099 -12.845  -0.559  0.00  0.00    -0.772 OA
HETATM   18  H   UNK N   1      19.848 -13.724  -0.765  0.00  0.00     0.167 HD
ENDBRANCH  15  17
ENDBRANCH   9  15
ENDBRANCH   1   5
BRANCH   2  19
HETATM   19  C   UNK N   1      14.175  -7.110   0.238  0.00  0.00     0.201 C 
BRANCH  19  20
HETATM   20  C   UNK N   1      13.213  -8.238  -0.047  0.00  0.00    -0.027 A 
HETATM   21  C   UNK N   1      12.268  -8.154  -1.082  0.00  0.00     0.012 A 
HETATM   22  C   UNK N   1      11.401  -9.223  -1.331  0.00  0.00     0.037 A 
HETATM   23  C   UNK N   1      11.476 -10.382  -0.553  0.00  0.00     0.065 A 
HETATM   24  C   UNK N   1      12.408 -10.469   0.483  0.00  0.00     0.037 A 
HETATM   25  C   UNK N   1      13.270  -9.400   0.738  0.00  0.00     0.012 A 
BRANCH  23  26
HETATM   26  O   UNK N   1      10.651 -11.412  -0.801  0.00  0.00    -0.361 OA
HETATM   27  H   UNK N   1       9.741 -11.273  -0.974  0.00  0.00     0.217 HD
ENDBRANCH  23  26
ENDBRANCH  19  20
BRANCH  19  28
HETATM   28  N   UNK N   1      13.992  -5.983  -0.666  0.00  0.00    -0.415 N 
HETATM   29  H   UNK N   1      14.612  -5.478  -1.299  0.00  0.00     0.151 HD
HETATM   30  H   UNK N   1      13.039  -5.621  -0.666  0.00  0.00     0.151 HD
ENDBRANCH  19  28
ENDBRANCH   2  19
TORSDOF 7
