REMARK  5 active torsions:
REMARK  status: ('A' for Active; 'I' for Inactive)
REMARK    1  A    between atoms: C_2  and  C_1 
REMARK    2  A    between atoms: C_7  and  C_4 
REMARK    3  A    between atoms: C_10  and  C_7 
REMARK    4  A    between atoms: C_10  and  N_8 
REMARK    5  A    between atoms: N_8  and  C_15 
ROOT
HETATM    1  C   UNK N   1       3.913  -6.839   0.027  0.00  0.00     0.048 A 
HETATM    2  C   UNK N   1       5.216  -7.289  -0.245  0.00  0.00     0.023 A 
HETATM    3  C   UNK N   1       6.274  -6.376  -0.340  0.00  0.00    -0.056 A 
HETATM    4  C   UNK N   1       3.682  -5.470   0.216  0.00  0.00     0.016 A 
HETATM    5  C   UNK N   1       4.734  -4.558   0.122  0.00  0.00     0.001 A 
HETATM    6  C   UNK N   1       6.022  -5.010  -0.168  0.00  0.00     0.007 A 
ENDROOT
BRANCH   3   7
HETATM    7  C   UNK N   1       7.649  -6.863  -0.683  0.00  0.00     0.062 C 
BRANCH   7   8
HETATM    8  C   UNK N   1       8.721  -6.340   0.271  0.00  0.00     0.076 C 
HETATM    9  C   UNK N   1       9.666  -7.473   0.614  0.00  0.00     0.032 C 
BRANCH   8  10
HETATM   10  N   UNK N   1       9.489  -5.282  -0.378  0.00  0.00    -0.417 N 
HETATM   11  H   UNK N   1      10.329  -5.423  -0.939  0.00  0.00     0.153 HD
BRANCH  10  12
HETATM   12  C   UNK N   1       8.869  -3.994  -0.100  0.00  0.00     0.110 C 
HETATM   13  C   UNK N   1       9.330  -3.467   1.246  0.00  0.00     0.026 C 
ENDBRANCH  10  12
ENDBRANCH   8  10
ENDBRANCH   7   8
ENDBRANCH   3   7
BRANCH   1  14
HETATM   14  C   UNK N   1       2.775  -7.818   0.088  0.00  0.00     0.417 C 
HETATM   15  F   UNK N   1       3.012  -8.751   1.079  0.00  0.00    -0.166 F 
HETATM   16  F   UNK N   1       1.579  -7.173   0.361  0.00  0.00    -0.166 F 
HETATM   17  F   UNK N   1       2.660  -8.465  -1.128  0.00  0.00    -0.166 F 
ENDBRANCH   1  14
TORSDOF 5
