REMARK  6 active torsions:
REMARK  status: ('A' for Active; 'I' for Inactive)
REMARK       I    between atoms: N_2  and  C_1 
REMARK    1  A    between atoms: C_4  and  C_1 
REMARK    2  A    between atoms: C_3  and  N_2 
REMARK    3  A    between atoms: C_7  and  C_6 
REMARK    4  A    between atoms: C_7  and  C_19 
REMARK    5  A    between atoms: O_13  and  C_10 
REMARK    6  A    between atoms: C_21  and  C_19 
ROOT
HETATM    1  C   UNK N   1       7.080  -4.030   0.475  0.00  0.00     0.041 A 
HETATM    2  C   UNK N   1       8.160  -4.715  -0.112  0.00  0.00    -0.031 A 
HETATM    3  C   UNK N   1       6.077  -4.773   1.127  0.00  0.00     0.030 A 
HETATM    4  C   UNK N   1       8.189  -6.114  -0.104  0.00  0.00     0.009 A 
HETATM    5  C   UNK N   1       6.115  -6.167   1.137  0.00  0.00     0.002 A 
HETATM    6  C   UNK N   1       7.164  -6.838   0.509  0.00  0.00     0.001 A 
ENDROOT
BRANCH   1   7
HETATM    7  N   UNK N   1       7.037  -2.603   0.455  0.00  0.00    -0.322 N 
HETATM    8  C   UNK N   1       5.911  -1.828   0.387  0.00  0.00     0.256 C 
HETATM    9  O   UNK N   1       6.002  -0.645   0.668  0.00  0.00    -0.267 OA
HETATM   10  H   UNK N   1       7.901  -2.131   0.493  0.00  0.00     0.169 HD
BRANCH   8  11
HETATM   11  C   UNK N   1       4.580  -2.367  -0.028  0.00  0.00     0.032 A 
HETATM   12  C   UNK N   1       4.475  -3.535  -0.795  0.00  0.00     0.020 A 
HETATM   13  C   UNK N   1       3.233  -4.069  -1.121  0.00  0.00     0.038 A 
HETATM   14  C   UNK N   1       2.060  -3.430  -0.696  0.00  0.00     0.068 A 
HETATM   15  C   UNK N   1       2.153  -2.229   0.017  0.00  0.00     0.038 A 
HETATM   16  C   UNK N   1       3.406  -1.693   0.341  0.00  0.00     0.020 A 
BRANCH  14  17
HETATM   17  O   UNK N   1       0.840  -3.958  -0.951  0.00  0.00    -0.356 OA
HETATM   18  C   UNK N   1       0.664  -5.175  -1.573  0.00  0.00     0.210 C 
ENDBRANCH  14  17
ENDBRANCH   8  11
ENDBRANCH   1   7
BRANCH   2  19
HETATM   19  C   UNK N   1       9.286  -3.969  -0.739  0.00  0.00     0.043 C 
BRANCH  19  20
HETATM   20  C   UNK N   1      10.149  -3.394   0.369  0.00  0.00     0.040 C 
BRANCH  20  21
HETATM   21  C   UNK N   1      11.092  -2.339  -0.178  0.00  0.00     0.223 C 
HETATM   22  N   UNK N   1      12.451  -2.551   0.345  0.00  0.00     0.088 N 
HETATM   23  C   UNK N   1      12.969  -3.801  -0.195  0.00  0.00     0.310 C 
HETATM   24  C   UNK N   1      13.342  -1.504  -0.154  0.00  0.00     0.272 C 
HETATM   25  C   UNK N   1      12.891  -0.138   0.348  0.00  0.00     0.030 C 
HETATM   26  C   UNK N   1      11.486   0.139  -0.166  0.00  0.00     0.004 C 
HETATM   27  C   UNK N   1      10.550  -0.979   0.271  0.00  0.00     0.036 C 
ENDBRANCH  20  21
ENDBRANCH  19  20
ENDBRANCH   2  19
TORSDOF 6
