REMARK  9 active torsions:
REMARK  status: ('A' for Active; 'I' for Inactive)
REMARK    1  A    between atoms: C_4  and  O_16 
REMARK    2  A    between atoms: C_5  and  N_8 
REMARK    3  A    between atoms: C_27  and  N_8 
REMARK    4  A    between atoms: C_9  and  N_14 
REMARK    5  A    between atoms: C_10  and  O_19 
REMARK    6  A    between atoms: C_21  and  O_16 
REMARK    7  A    between atoms: C_22  and  O_19 
REMARK    8  A    between atoms: C_35  and  C_21 
REMARK    9  A    between atoms: C_26  and  C_27 
ROOT
HETATM    1  C   UNK N   1       1.607   1.201   0.038  0.00  0.00    -0.011 C 
HETATM    2  C   UNK N   1      -2.070  -1.005   1.067  0.00  0.00    -0.034 C 
HETATM    3  C   UNK N   1       1.318  -0.166  -0.579  0.00  0.00     0.003 C 
HETATM    4  C   UNK N   1       2.832   1.601  -0.803  0.00  0.00     0.171 C 
HETATM    5  C   UNK N   1       3.673   0.273  -0.904  0.00  0.00     0.221 C 
HETATM    6  C   UNK N   1      -1.008  -0.227   0.229  0.00  0.00    -0.002 C 
HETATM    7  C   UNK N   1       0.352  -0.954   0.293  0.00  0.00    -0.005 C 
HETATM    8  C   UNK N   1      -3.917  -0.672  -0.631  0.00  0.00     0.253 C 
HETATM    9  C   UNK N   1      -4.010  -2.177  -0.916  0.00  0.00     0.165 C 
HETATM   10  C   UNK N   1       2.636  -0.834  -0.770  0.00  0.00     0.042 C 
HETATM   11  C   UNK N   1      -3.465  -0.412   0.823  0.00  0.00     0.048 C 
HETATM   12  C   UNK N   1      -2.088  -2.524   0.689  0.00  0.00    -0.004 C 
HETATM   13  C   UNK N   1       0.303   2.007  -0.074  0.00  0.00     0.012 C 
HETATM   14  C   UNK N   1      -2.611  -2.753  -0.733  0.00  0.00     0.040 C 
HETATM   15  C   UNK N   1      -0.853   1.265   0.662  0.00  0.00     0.007 C 
HETATM   16  C   UNK N   1       0.238  -2.403  -0.173  0.00  0.00     0.006 C 
HETATM   17  C   UNK N   1      -0.698  -3.146   0.769  0.00  0.00     0.006 C 
HETATM   18  C   UNK N   1       2.012   1.144   1.520  0.00  0.00     0.018 C 
HETATM   19  C   UNK N   1      -1.757  -0.874   2.558  0.00  0.00     0.016 C 
ENDROOT
BRANCH   5  20
HETATM   20  N   UNK N   1       4.879   0.036  -0.033  0.00  0.00    -0.057 N 
HETATM   21  C   UNK N   1       4.909   0.919   1.154  0.00  0.00     0.238 C 
HETATM   22  C   UNK N   1       6.110   1.867   1.223  0.00  0.00     0.028 C 
HETATM   23  C   UNK N   1       7.401   1.070   1.076  0.00  0.00     0.003 C 
HETATM   24  C   UNK N   1       7.378   0.147  -0.144  0.00  0.00     0.028 C 
HETATM   25  C   UNK N   1       6.051   0.230  -0.910  0.00  0.00     0.238 C 
BRANCH  20  26
HETATM   26  C   UNK N   1       4.945  -1.331   0.555  0.00  0.00     0.264 C 
BRANCH  26  27
HETATM   27  C   UNK N   1       5.020  -2.461  -0.444  0.00  0.00    -0.009 C 
HETATM   28  C   UNK N   1       4.131  -3.454  -0.401  0.00  0.00     0.008 C 
ENDBRANCH  26  27
ENDBRANCH  20  26
ENDBRANCH   5  20
BRANCH   4  29
HETATM   29  O   UNK N   1       3.543   2.691  -0.327  0.00  0.00    -0.313 OA
BRANCH  29  30
HETATM   30  C   UNK N   1       3.098   3.973  -0.341  0.00  0.00     0.258 C 
HETATM   31  O   UNK N   1       2.076   4.279  -0.933  0.00  0.00    -0.265 OA
BRANCH  30  32
HETATM   32  C   UNK N   1       3.871   5.024   0.387  0.00  0.00     0.106 C 
HETATM   33  C   UNK N   1       5.286   5.113  -0.150  0.00  0.00     0.015 C 
ENDBRANCH  30  32
ENDBRANCH  29  30
ENDBRANCH   4  29
BRANCH   8  34
HETATM   34  N   UNK N   1      -5.117   0.069  -1.037  0.00  0.00     0.095 N 
HETATM   35  C   UNK N   1      -4.811   1.496  -1.234  0.00  0.00     0.273 C 
HETATM   36  C   UNK N   1      -4.707   2.277   0.086  0.00  0.00     0.030 C 
HETATM   37  C   UNK N   1      -5.740   1.840   1.127  0.00  0.00     0.003 C 
HETATM   38  C   UNK N   1      -6.866   1.034   0.497  0.00  0.00     0.030 C 
HETATM   39  C   UNK N   1      -6.286  -0.208  -0.178  0.00  0.00     0.273 C 
ENDBRANCH   8  34
BRANCH   9  40
HETATM   40  O   UNK N   1      -4.925  -2.769  -0.057  0.00  0.00    -0.314 OA
BRANCH  40  41
HETATM   41  C   UNK N   1      -5.114  -4.107   0.093  0.00  0.00     0.255 C 
HETATM   42  O   UNK N   1      -4.361  -4.916  -0.429  0.00  0.00    -0.266 OA
HETATM   43  C   UNK N   1      -6.226  -4.593   0.952  0.00  0.00     0.126 C 
ENDBRANCH  40  41
ENDBRANCH   9  40
TORSDOF 9
