REMARK  14 active torsions:
REMARK  status: ('A' for Active; 'I' for Inactive)
REMARK       I    between atoms: N_7  and  C_24 
REMARK       I    between atoms: N_8  and  C_23 
REMARK    1  A    between atoms: C_27  and  N_8 
REMARK    2  A    between atoms: C_25  and  N_9 
REMARK       I    between atoms: N_9  and  C_33 
REMARK    3  A    between atoms: C_32  and  N_10 
REMARK       I    between atoms: N_10  and  C_47 
REMARK    4  A    between atoms: N_11  and  C_41 
REMARK       I    between atoms: N_11  and  C_45 
REMARK    5  A    between atoms: C_18  and  C_23 
REMARK    6  A    between atoms: C_24  and  C_25 
REMARK    7  A    between atoms: C_25  and  C_26 
REMARK    8  A    between atoms: C_27  and  C_34 
REMARK    9  A    between atoms: C_27  and  C_37 
REMARK   10  A    between atoms: C_31  and  C_32 
REMARK   11  A    between atoms: C_32  and  C_33 
REMARK   12  A    between atoms: C_34  and  C_42 
REMARK   13  A    between atoms: C_37  and  C_45 
REMARK   14  A    between atoms: C_47  and  C_48 
ROOT
HETATM    1  C   UNK N   1       6.891  -3.631   0.076  0.00  0.00     0.184 C 
ENDROOT
BRANCH   1   2
HETATM    2  N   UNK N   1       5.965  -3.778  -1.031  0.00  0.00    -0.345 N 
HETATM    3  C   UNK N   1       4.645  -4.026  -0.825  0.00  0.00     0.241 C 
HETATM    4  O   UNK N   1       3.922  -4.269  -1.778  0.00  0.00    -0.271 OA
HETATM    5  H   UNK N   1       6.301  -3.697  -1.953  0.00  0.00     0.163 HD
BRANCH   3   6
HETATM    6  C   UNK N   1       4.057  -3.891   0.560  0.00  0.00     0.181 C 
BRANCH   6   7
HETATM    7  N   UNK N   1       3.390  -2.613   0.695  0.00  0.00    -0.342 N 
HETATM    8  C   UNK N   1       2.257  -2.253   0.027  0.00  0.00     0.270 C 
HETATM    9  O   UNK N   1       1.652  -3.055  -0.659  0.00  0.00    -0.266 OA
HETATM   10  H   UNK N   1       3.783  -1.956   1.314  0.00  0.00     0.163 HD
BRANCH   8  11
HETATM   11  C   UNK N   1       1.797  -0.860   0.091  0.00  0.00     0.116 A 
HETATM   12  N   UNK N   1       0.618  -0.505  -0.495  0.00  0.00    -0.359 N 
HETATM   13  C   UNK N   1       0.192   0.785  -0.480  0.00  0.00     0.105 A 
ATOM     14  HN  UNK N   1       0.048  -1.218  -0.950  1.00  0.00     0.165 HD
HETATM   15  C   UNK N   1       0.977   1.763   0.128  0.00  0.00     0.104 A 
HETATM   16  N   UNK N   1       2.153   1.409   0.708  0.00  0.00    -0.372 N 
HETATM   17  C   UNK N   1       2.579   0.121   0.702  0.00  0.00     0.122 A 
ATOM     18  HN  UNK N   1       2.726   2.124   1.157  1.00  0.00     0.164 HD
ENDBRANCH   8  11
ENDBRANCH   6   7
BRANCH   6  19
HETATM   19  C   UNK N   1       3.356  -5.085   1.254  0.00  0.00     0.018 C 
HETATM   20  C   UNK N   1       1.853  -5.289   1.020  0.00  0.00     0.007 C 
HETATM   21  C   UNK N   1       1.539  -6.029  -0.285  0.00  0.00     0.000 C 
HETATM   22  C   UNK N   1       2.613  -7.043  -0.692  0.00  0.00     0.000 C 
HETATM   23  C   UNK N   1       3.404  -7.542   0.512  0.00  0.00     0.000 C 
HETATM   24  C   UNK N   1       4.167  -6.389   1.173  0.00  0.00     0.007 C 
ENDBRANCH   6  19
ENDBRANCH   3   6
ENDBRANCH   1   2
BRANCH   1  25
HETATM   25  C   UNK N   1       7.162  -2.199   0.570  0.00  0.00     0.244 C 
HETATM   26  O   UNK N   1       6.431  -1.838   1.477  0.00  0.00    -0.271 OA
HETATM   27  N   UNK N   1       8.412  -1.639   0.515  0.00  0.00    -0.336 N 
HETATM   28  C   UNK N   1       8.990  -1.048  -0.683  0.00  0.00     0.183 C 
HETATM   29  C   UNK N   1       9.412  -1.946   1.522  0.00  0.00     0.132 C 
HETATM   30  C   UNK N   1      10.481  -0.970  -0.292  0.00  0.00     0.023 C 
HETATM   31  C   UNK N   1      10.639  -2.111   0.644  0.00  0.00     0.010 C 
HETATM   32  C   UNK N   1      11.643  -1.166  -1.230  0.00  0.00     0.007 C 
HETATM   33  C   UNK N   1      12.068  -1.955   1.091  0.00  0.00     0.007 C 
HETATM   34  C   UNK N   1      12.762  -1.587  -0.244  0.00  0.00     0.001 C 
BRANCH  28  35
HETATM   35  C   UNK N   1       8.487   0.383  -0.747  0.00  0.00     0.241 C 
HETATM   36  O   UNK N   1       8.041   0.846  -1.785  0.00  0.00    -0.271 OA
HETATM   37  N   UNK N   1       8.563   1.136   0.389  0.00  0.00    -0.347 N 
HETATM   38  H   UNK N   1       8.873   0.669   1.199  0.00  0.00     0.163 HD
BRANCH  37  39
HETATM   39  C   UNK N   1       8.243   2.537   0.545  0.00  0.00     0.164 C 
BRANCH  39  40
HETATM   40  C   UNK N   1       6.898   2.980   0.006  0.00  0.00     0.033 C 
BRANCH  40  41
HETATM   41  C   UNK N   1       5.749   2.345   0.737  0.00  0.00    -0.002 C 
HETATM   42  C   UNK N   1       4.500   3.031   0.241  0.00  0.00     0.005 C 
ENDBRANCH  40  41
ENDBRANCH  39  40
BRANCH  39  43
HETATM   43  C   UNK N   1       9.365   3.467   0.196  0.00  0.00     0.238 C 
HETATM   44  O   UNK N   1      10.164   3.770   1.069  0.00  0.00    -0.285 OA
BRANCH  43  45
HETATM   45  C   UNK N   1       9.431   4.105  -1.153  0.00  0.00     0.289 C 
HETATM   46  O   UNK N   1       8.817   3.598  -2.078  0.00  0.00    -0.264 OA
HETATM   47  N   UNK N   1      10.104   5.265  -1.381  0.00  0.00    -0.350 N 
HETATM   48  H   UNK N   1      10.173   5.577  -2.312  0.00  0.00     0.163 HD
BRANCH  47  49
HETATM   49  C   UNK N   1      10.726   6.074  -0.356  0.00  0.00     0.085 A 
HETATM   50  C   UNK N   1      10.207   7.496  -0.485  0.00  0.00     0.027 A 
HETATM   51  C   UNK N   1       9.675   6.610   0.612  0.00  0.00     0.027 A 
ENDBRANCH  47  49
ENDBRANCH  43  45
ENDBRANCH  39  43
ENDBRANCH  37  39
ENDBRANCH  28  35
ENDBRANCH   1  25
BRANCH   1  52
HETATM   52  C   UNK N   1       7.965  -4.736   0.082  0.00  0.00    -0.022 C 
HETATM   53  C   UNK N   1       7.304  -6.094  -0.070  0.00  0.00     0.017 C 
HETATM   54  C   UNK N   1       8.918  -4.557  -1.081  0.00  0.00     0.017 C 
HETATM   55  C   UNK N   1       8.713  -4.784   1.400  0.00  0.00     0.017 C 
ENDBRANCH   1  52
TORSDOF 14
