REMARK  8 active torsions:
REMARK  status: ('A' for Active; 'I' for Inactive)
REMARK    1  A    between atoms: C_2  and  C_1 
REMARK    2  A    between atoms: N_7  and  C_1 
REMARK    3  A    between atoms: C_3  and  C_2 
REMARK    4  A    between atoms: C_4  and  C_3 
REMARK    5  A    between atoms: C_5  and  C_4 
REMARK    6  A    between atoms: C_9  and  C_4 
REMARK    7  A    between atoms: C_4  and  N_12 
REMARK    8  A    between atoms: O_6  and  C_5 
ROOT
HETATM    1  C   UNK N   1       3.682  -0.301   0.307  0.00  0.00     0.169 C 
ENDROOT
BRANCH   1   2
HETATM    2  C   UNK N   1       2.875  -0.886  -0.870  0.00  0.00     0.049 C 
BRANCH   2   3
HETATM    3  C   UNK N   1       1.360  -0.740  -0.756  0.00  0.00     0.022 C 
BRANCH   3   4
HETATM    4  C   UNK N   1       0.720  -1.938  -0.087  0.00  0.00     0.111 C 
BRANCH   4   5
HETATM    5  N   UNK N   1      -0.679  -1.645   0.168  0.00  0.00    -0.430 N 
HETATM    6  H   UNK N   1      -0.992  -0.691   0.347  0.00  0.00     0.149 HD
HETATM    7  H   UNK N   1      -1.359  -2.405   0.168  0.00  0.00     0.149 HD
ENDBRANCH   4   5
ENDBRANCH   3   4
ENDBRANCH   2   3
ENDBRANCH   1   2
BRANCH   1   8
HETATM    8  C   UNK N   1       5.147  -0.316  -0.074  0.00  0.00     0.174 C 
HETATM    9  O   UNK N   1       5.698  -1.382  -0.334  0.00  0.00    -0.648 OA
BRANCH   8  10
HETATM   10  O   UNK N   1       5.865   0.821  -0.130  0.00  0.00    -0.774 OA
HETATM   11  H   UNK N   1       6.800   0.784  -0.170  0.00  0.00     0.167 HD
ENDBRANCH   8  10
ENDBRANCH   1   8
BRANCH   1  12
HETATM   12  C   UNK N   1       3.243   1.140   0.642  0.00  0.00     0.391 C 
HETATM   13  F   UNK N   1       1.961   1.181   1.164  0.00  0.00    -0.211 F 
HETATM   14  F   UNK N   1       3.316   1.957  -0.473  0.00  0.00    -0.211 F 
ENDBRANCH   1  12
BRANCH   1  15
HETATM   15  N   UNK N   1       3.503  -1.129   1.489  0.00  0.00    -0.409 N 
HETATM   16  H   UNK N   1       2.936  -1.311   2.317  0.00  0.00     0.151 HD
HETATM   17  H   UNK N   1       4.258  -1.815   1.489  0.00  0.00     0.151 HD
ENDBRANCH   1  15
TORSDOF 8
