REMARK  5 active torsions:
REMARK  status: ('A' for Active; 'I' for Inactive)
REMARK    1  A    between atoms: N_4  and  C_14 
REMARK    2  A    between atoms: N_5  and  C_23 
REMARK    3  A    between atoms: N_6  and  C_16 
REMARK    4  A    between atoms: C_8  and  C_13 
REMARK    5  A    between atoms: C_14  and  C_16 
ROOT
HETATM    1 Cl   UNK N   1      -1.446  -0.693  -0.066  0.00  0.00    -0.084 Cl
HETATM    2  N   UNK N   1       3.959  -2.980   0.014  0.00  0.00    -0.321 N 
HETATM    3  C   UNK N   1       3.803  -0.752  -0.149  0.00  0.00    -0.025 A 
HETATM    4  C   UNK N   1       2.528  -1.265  -0.067  0.00  0.00     0.001 A 
HETATM    5  C   UNK N   1       4.669  -1.834  -0.094  0.00  0.00     0.106 A 
HETATM    6  C   UNK N   1       2.650  -2.630   0.028  0.00  0.00     0.050 A 
HETATM    7  C   UNK N   1       1.288  -0.632  -0.101  0.00  0.00     0.038 A 
HETATM    8  C   UNK N   1       1.526  -3.456   0.101  0.00  0.00     0.032 A 
HETATM    9  C   UNK N   1       0.139  -1.438  -0.026  0.00  0.00     0.035 A 
HETATM   10  C   UNK N   1       0.257  -2.843   0.074  0.00  0.00     0.026 A 
ENDROOT
BRANCH   3  11
HETATM   11  C   UNK N   1       4.215   0.675  -0.345  0.00  0.00     0.024 C 
HETATM   12  C   UNK N   1       3.835   1.578   0.826  0.00  0.00     0.039 C 
HETATM   13  C   UNK N   1       4.297   3.010   0.523  0.00  0.00     0.273 C 
HETATM   14  N   UNK N   1       5.740   3.060   0.253  0.00  0.00     0.090 N 
HETATM   15  C   UNK N   1       6.041   2.217  -0.907  0.00  0.00     0.273 C 
HETATM   16  C   UNK N   1       5.716   0.776  -0.590  0.00  0.00     0.039 C 
BRANCH  14  17
HETATM   17  C   UNK N   1       6.056   4.452  -0.064  0.00  0.00     0.292 C 
BRANCH  17  18
HETATM   18  C   UNK N   1       7.446   4.624  -0.684  0.00  0.00     0.158 C 
BRANCH  18  19
HETATM   19  N   UNK N   1       8.065   5.848  -0.244  0.00  0.00    -0.331 N 
HETATM   20  C   UNK N   1       7.417   7.135  -0.226  0.00  0.00     0.147 A 
HETATM   21  C   UNK N   1       8.537   8.072   0.312  0.00  0.00     0.144 A 
HETATM   22  N   UNK N   1       9.670   7.191   0.497  0.00  0.00    -0.341 N 
HETATM   23  C   UNK N   1       9.326   5.953   0.163  0.00  0.00     0.318 A 
HETATM   24  H   UNK N   1      10.558   7.467   0.820  0.00  0.00     0.164 HD
HETATM   25  O   UNK N   1      10.104   5.010   0.211  0.00  0.00    -0.247 OA
ENDBRANCH  18  19
ENDBRANCH  17  18
ENDBRANCH  14  17
ENDBRANCH   3  11
BRANCH   2  26
HETATM   26  C   UNK N   1       4.585  -4.278   0.059  0.00  0.00     0.039 A 
HETATM   27  C   UNK N   1       5.989  -4.363   0.032  0.00  0.00     0.033 A 
HETATM   28  C   UNK N   1       6.631  -5.599   0.050  0.00  0.00     0.044 A 
HETATM   29  C   UNK N   1       5.877  -6.771   0.092  0.00  0.00     0.116 A 
HETATM   30  F   UNK N   1       6.504  -7.971   0.105  0.00  0.00    -0.206 F 
HETATM   31  C   UNK N   1       4.479  -6.704   0.120  0.00  0.00     0.044 A 
HETATM   32  C   UNK N   1       3.832  -5.461   0.104  0.00  0.00     0.033 A 
ENDBRANCH   2  26
TORSDOF 5
