REMARK  24 active torsions:
REMARK  status: ('A' for Active; 'I' for Inactive)
REMARK    1  A    between atoms: C_4  and  C_3 
REMARK    2  A    between atoms: N_27  and  C_3 
REMARK    3  A    between atoms: N_28  and  C_4 
REMARK    4  A    between atoms: C_15  and  C_7 
REMARK    5  A    between atoms: N_27  and  C_7 
REMARK    6  A    between atoms: C_16  and  C_8 
REMARK    7  A    between atoms: N_28  and  C_8 
REMARK    8  A    between atoms: C_19  and  C_9 
REMARK    9  A    between atoms: N_27  and  C_9 
REMARK   10  A    between atoms: C_20  and  C_10 
REMARK   11  A    between atoms: N_28  and  C_10 
REMARK   12  A    between atoms: C_17  and  C_11 
REMARK   13  A    between atoms: O_41  and  C_11 
REMARK   14  A    between atoms: C_18  and  C_12 
REMARK   15  A    between atoms: O_42  and  C_12 
REMARK   16  A    between atoms: O_33  and  C_21 
REMARK   17  A    between atoms: O_34  and  C_22 
REMARK   18  A    between atoms: P_43  and  O_35 
REMARK   19  A    between atoms: P_43  and  O_36 
REMARK   20  A    between atoms: P_44  and  O_38 
REMARK   21  A    between atoms: P_44  and  O_39 
REMARK   22  A    between atoms: P_43  and  O_41 
REMARK   23  A    between atoms: P_44  and  O_42 
REMARK   24  A    between atoms: Mn_45  and  Mn_45 
ROOT
HETATM    1 Mn   UNK N   1       5.949  -2.583   1.458  0.00  0.00     0.000 Mn
ENDROOT
TORSDOF 24
