REMARK  5 active torsions:
REMARK  status: ('A' for Active; 'I' for Inactive)
REMARK    1  A    between atoms: C_18  and  C_11 
REMARK    2  A    between atoms: O_24  and  C_11 
REMARK    3  A    between atoms: C_17  and  O_26 
REMARK    4  A    between atoms: C_22  and  C_18 
REMARK    5  A    between atoms: C_22  and  O_28 
ROOT
HETATM    1  C   UNK N   1       9.265  -1.920  -1.093  0.00  0.00     0.018 C 
HETATM    2  C   UNK N   1       3.393  -0.350   1.785  0.00  0.00     0.028 C 
HETATM    3  C   UNK N   1       7.414   0.131   2.220  0.00  0.00     0.020 C 
HETATM    4  C   UNK N   1       3.556  -3.007   0.197  0.00  0.00     0.036 C 
HETATM    5  C   UNK N   1       4.648  -2.731  -0.830  0.00  0.00     0.013 C 
HETATM    6  C   UNK N   1       0.649   0.205  -0.321  0.00  0.00     0.052 A 
HETATM    7  C   UNK N   1       1.878   0.534   0.097  0.00  0.00    -0.006 A 
HETATM    8  C   UNK N   1       7.380  -2.236   0.449  0.00  0.00     0.043 C 
HETATM    9  C   UNK N   1       1.312  -2.239  -0.359  0.00  0.00     0.058 A 
HETATM   10  C   UNK N   1       5.827   1.241   0.706  0.00  0.00     0.048 C 
HETATM   11  C   UNK N   1       8.398  -1.380  -0.236  0.00  0.00    -0.047 C 
HETATM   12  C   UNK N   1       2.542  -1.921   0.070  0.00  0.00    -0.061 A 
HETATM   13  C   UNK N   1       0.308  -1.196  -0.588  0.00  0.00     0.172 A 
HETATM   14  C   UNK N   1       5.275  -1.335  -0.656  0.00  0.00     0.035 C 
HETATM   15  C   UNK N   1       6.186  -1.287   0.606  0.00  0.00     0.009 C 
HETATM   16  C   UNK N   1       4.900   1.177  -0.517  0.00  0.00     0.160 C 
HETATM   17  C   UNK N   1       2.994  -0.480   0.320  0.00  0.00     0.036 A 
HETATM   18  C   UNK N   1       6.854   0.092   0.789  0.00  0.00     0.005 C 
HETATM   19  C   UNK N   1       4.185  -0.203  -0.678  0.00  0.00     0.147 C 
HETATM   20  C   UNK N   1       8.045   0.090  -0.237  0.00  0.00     0.150 C 
HETATM   21  F   UNK N   1       3.624  -0.218  -1.950  0.00  0.00    -0.238 F 
HETATM   22  O   UNK N   1      -0.796  -1.490  -1.016  0.00  0.00    -0.289 OA
ENDROOT
BRANCH  20  23
HETATM   23  C   UNK N   1       9.158   1.057   0.148  0.00  0.00     0.189 C 
HETATM   24  O   UNK N   1       8.913   2.252   0.205  0.00  0.00    -0.292 OA
BRANCH  23  25
HETATM   25  C   UNK N   1      10.545   0.597   0.481  0.00  0.00     0.246 C 
BRANCH  25  26
HETATM   26  O   UNK N   1      11.199   0.152  -0.668  0.00  0.00    -0.393 OA
HETATM   27  H   UNK N   1      11.158  -0.396  -1.467  0.00  0.00     0.209 HD
ENDBRANCH  25  26
ENDBRANCH  23  25
ENDBRANCH  20  23
BRANCH  20  28
HETATM   28  O   UNK N   1       7.637   0.424  -1.531  0.00  0.00    -0.377 OA
HETATM   29  H   UNK N   1       7.696   0.785  -2.429  0.00  0.00     0.211 HD
ENDBRANCH  20  28
BRANCH  16  30
HETATM   30  O   UNK N   1       3.986   2.229  -0.457  0.00  0.00    -0.392 OA
HETATM   31  H   UNK N   1       4.301   3.145  -0.414  0.00  0.00     0.210 HD
ENDBRANCH  16  30
TORSDOF 5
