REMARK  4 active torsions:
REMARK  status: ('A' for Active; 'I' for Inactive)
REMARK    1  A    between atoms: C_12  and  C_11 
REMARK    2  A    between atoms: C_17  and  C_11 
REMARK    3  A    between atoms: N_18  and  C_14 
REMARK    4  A    between atoms: O_21  and  C_17 
ROOT
HETATM    1  C   UNK N   1      -2.285   0.085  -0.000  0.00  0.00     0.010 A 
HETATM    2  C   UNK N   1      -2.306   2.499   0.000  0.00  0.00     0.010 A 
HETATM    3  C   UNK N   1      -0.884   0.101  -0.000  0.00  0.00     0.030 A 
HETATM    4  C   UNK N   1      -0.918   2.516  -0.000  0.00  0.00     0.030 A 
HETATM    5  C   UNK N   1      -3.006   1.290   0.000  0.00  0.00    -0.044 A 
HETATM    6  C   UNK N   1      -0.188   1.322  -0.000  0.00  0.00     0.037 A 
ENDROOT
BRANCH   6   7
HETATM    7  N   UNK N   1       1.241   1.345  -0.000  0.00  0.00    -0.310 N 
HETATM    8  C   UNK N   1       2.065   0.138  -0.000  0.00  0.00     0.172 A 
HETATM    9  C   UNK N   1       3.451   0.735  -0.000  0.00  0.00    -0.024 A 
HETATM   10  C   UNK N   1       4.677   0.073  -0.000  0.00  0.00     0.010 A 
HETATM   11  C   UNK N   1       3.391   2.105   0.000  0.00  0.00     0.040 A 
HETATM   12  C   UNK N   1       5.852   0.846  -0.000  0.00  0.00     0.001 A 
HETATM   13  C   UNK N   1       5.781   2.255   0.000  0.00  0.00     0.001 A 
HETATM   14  C   UNK N   1       4.534   2.900   0.000  0.00  0.00     0.017 A 
HETATM   15  C   UNK N   1       2.011   2.461   0.000  0.00  0.00     0.259 A 
HETATM   16  O   UNK N   1       1.581   3.606   0.000  0.00  0.00    -0.267 OA
ENDBRANCH   6   7
BRANCH   5  17
HETATM   17  C   UNK N   1      -4.516   1.290   0.000  0.00  0.00     0.112 C 
HETATM   18  C   UNK N   1      -5.263  -0.038   0.000  0.00  0.00     0.026 C 
BRANCH  17  19
HETATM   19  C   UNK N   1      -5.326   2.569   0.000  0.00  0.00     0.148 C 
HETATM   20  O   UNK N   1      -6.544   2.517   0.000  0.00  0.00    -0.649 OA
BRANCH  19  21
HETATM   21  O   UNK N   1      -4.720   3.773  -0.000  0.00  0.00    -0.776 OA
HETATM   22  H   UNK N   1      -3.785   3.827  -0.000  0.00  0.00     0.167 HD
ENDBRANCH  19  21
ENDBRANCH  17  19
ENDBRANCH   5  17
TORSDOF 4
