REMARK  5 active torsions:
REMARK  status: ('A' for Active; 'I' for Inactive)
REMARK    1  A    between atoms: C_6  and  C_3 
REMARK    2  A    between atoms: N_16  and  C_3 
REMARK    3  A    between atoms: O_20  and  C_4 
REMARK    4  A    between atoms: C_12  and  C_7 
REMARK    5  A    between atoms: O_23  and  C_12 
ROOT
HETATM    1  C   UNK N   1       1.388  -4.433   0.032  0.00  0.00     0.097 C 
HETATM    2  C   UNK N   1       0.488  -3.248  -0.031  0.00  0.00     0.111 C 
HETATM    3  C   UNK N   1       1.911   1.523  -0.027  0.00  0.00    -0.004 A 
HETATM    4  C   UNK N   1      -0.575   1.464  -0.018  0.00  0.00     0.073 A 
HETATM    5  C   UNK N   1       0.663   2.215  -0.030  0.00  0.00     0.034 A 
HETATM    6  C   UNK N   1       1.923   0.124  -0.017  0.00  0.00     0.043 A 
HETATM    7  C   UNK N   1      -0.517   0.010  -0.003  0.00  0.00     0.052 A 
HETATM    8  C   UNK N   1       0.759  -0.652  -0.006  0.00  0.00     0.069 A 
HETATM    9  I   UNK N   1       0.675   4.385  -0.050  0.00  0.00    -0.043 I 
HETATM   10  I   UNK N   1       3.824  -0.914  -0.015  0.00  0.00    -0.042 I 
HETATM   11  I   UNK N   1      -2.346  -1.130   0.049  0.00  0.00    -0.041 I 
HETATM   12  N   UNK N   1       1.025  -2.071   0.014  0.00  0.00    -0.339 N 
ATOM     13  HN  UNK N   1       2.034  -2.195   0.094  1.00  0.00     0.168 HD
HETATM   14  O   UNK N   1      -0.823  -3.464  -0.153  0.00  0.00    -0.350 OA
HETATM   15  H   UNK N   1      -1.414  -2.742  -0.238  0.00  0.00     0.219 HD
ENDROOT
BRANCH   3  16
HETATM   16  C   UNK N   1       3.307   2.148  -0.033  0.00  0.00     0.162 C 
BRANCH  16  17
HETATM   17  N   UNK N   1       3.471   3.575  -0.008  0.00  0.00    -0.370 N 
HETATM   18  C   UNK N   1       4.642   4.111  -0.002  0.00  0.00     0.107 C 
HETATM   19  C   UNK N   1       4.778   5.594   0.020  0.00  0.00     0.097 C 
ATOM     20  HN  UNK N   1       2.646   4.175   0.005  1.00  0.00     0.161 HD
BRANCH  18  21
HETATM   21  O   UNK N   1       5.754   3.345  -0.017  0.00  0.00    -0.350 OA
HETATM   22  H   UNK N   1       5.679   2.411  -0.027  0.00  0.00     0.219 HD
ENDBRANCH  18  21
ENDBRANCH  16  17
ENDBRANCH   3  16
BRANCH   4  23
HETATM   23  C   UNK N   1      -1.922   2.199  -0.019  0.00  0.00     0.178 C 
HETATM   24  O   UNK N   1      -2.976   1.596  -0.015  0.00  0.00    -0.646 OA
BRANCH  23  25
HETATM   25  O   UNK N   1      -2.004   3.536  -0.027  0.00  0.00    -0.773 OA
HETATM   26  H   UNK N   1      -1.223   4.054  -0.032  0.00  0.00     0.167 HD
ENDBRANCH  23  25
ENDBRANCH   4  23
TORSDOF 5
