REMARK  4 active torsions:
REMARK  status: ('A' for Active; 'I' for Inactive)
REMARK    1  A    between atoms: C_3  and  C_1 
REMARK    2  A    between atoms: O_11  and  C_1 
REMARK    3  A    between atoms: C_4  and  C_2 
REMARK    4  A    between atoms: O_11  and  C_2 
ROOT
HETATM    1  O   UNK N   1      -0.006  -0.147  -0.503  0.00  0.00    -0.374 OA
ENDROOT
BRANCH   1   2
HETATM    2  C   UNK N   1      -0.492  -1.372  -0.041  0.00  0.00     0.285 C 
BRANCH   2   3
HETATM    3  C   UNK N   1      -2.001  -1.316   0.167  0.00  0.00     0.408 C 
HETATM    4  F   UNK N   1      -2.639  -1.119  -1.044  0.00  0.00    -0.169 F 
HETATM    5  F   UNK N   1      -2.425  -2.511   0.713  0.00  0.00    -0.169 F 
HETATM    6  F   UNK N   1      -2.323  -0.284   1.030  0.00  0.00    -0.169 F 
ENDBRANCH   2   3
ENDBRANCH   1   2
BRANCH   1   7
HETATM    7  C   UNK N   1       0.845   0.304   0.510  0.00  0.00     0.285 C 
BRANCH   7   8
HETATM    8  C   UNK N   1       2.013   1.082  -0.077  0.00  0.00     0.408 C 
HETATM    9  F   UNK N   1       2.789   1.580   0.951  0.00  0.00    -0.169 F 
HETATM   10  F   UNK N   1       2.787   0.258  -0.873  0.00  0.00    -0.169 F 
HETATM   11  F   UNK N   1       1.534   2.136  -0.833  0.00  0.00    -0.169 F 
ENDBRANCH   7   8
ENDBRANCH   1   7
TORSDOF 4
