REMARK  3 active torsions:
REMARK  status: ('A' for Active; 'I' for Inactive)
REMARK    1  A    between atoms: N_15  and  C_11 
REMARK    2  A    between atoms: C_14  and  C_12 
REMARK    3  A    between atoms: O_19  and  C_13 
REMARK       I    between atoms: N_15  and  C_14 
ROOT
HETATM    1  C   UNK N   1       3.490  -2.377   0.511  0.00  0.00     0.170 C 
HETATM    2  C   UNK N   1      -2.918  -0.293  -0.258  0.00  0.00     0.001 A 
HETATM    3  C   UNK N   1      -3.001  -1.685  -0.306  0.00  0.00     0.002 A 
HETATM    4  C   UNK N   1      -1.673   0.327  -0.109  0.00  0.00     0.016 A 
HETATM    5  C   UNK N   1      -1.843  -2.453  -0.197  0.00  0.00     0.026 A 
HETATM    6  C   UNK N   1      -0.494  -0.432  -0.000  0.00  0.00     0.023 A 
HETATM    7  C   UNK N   1      -0.602  -1.827  -0.044  0.00  0.00     0.093 A 
HETATM    8  C   UNK N   1       2.068  -0.295   0.222  0.00  0.00     0.146 A 
HETATM    9  C   UNK N   1       0.817   0.298   0.122  0.00  0.00     0.110 A 
HETATM   10  N   UNK N   1       2.222  -1.738   0.256  0.00  0.00    -0.268 N 
HETATM   11  O   UNK N   1       1.168  -3.725  -1.063  0.00  0.00    -0.200 OA
HETATM   12  O   UNK N   1       0.890  -3.675   1.363  0.00  0.00    -0.200 OA
HETATM   13  S   UNK N   1       0.845  -2.787   0.110  0.00  0.00     0.266 S 
ENDROOT
BRANCH   8  14
HETATM   14  C   UNK N   1       3.308   0.590   0.256  0.00  0.00     0.277 C 
HETATM   15  N   UNK N   1       4.544   0.027   0.124  0.00  0.00    -0.306 N 
ATOM     16  HN  UNK N   1       4.581  -0.992   0.113  1.00  0.00     0.170 HD
HETATM   17  O   UNK N   1       3.198   1.806   0.341  0.00  0.00    -0.266 OA
BRANCH  15  18
HETATM   18  C   UNK N   1       5.673   0.645   0.011  0.00  0.00     0.131 A 
HETATM   19  C   UNK N   1       5.890   2.013  -0.035  0.00  0.00     0.084 A 
HETATM   20  C   UNK N   1       7.257   2.098  -0.211  0.00  0.00     0.076 A 
HETATM   21  C   UNK N   1       8.048   3.349  -0.343  0.00  0.00     0.079 C 
HETATM   22  O   UNK N   1       7.768   0.889  -0.261  0.00  0.00    -0.241 OA
HETATM   23  N   UNK N   1       6.839  -0.010  -0.131  0.00  0.00    -0.245 N 
HETATM   24  H   UNK N   1       6.965  -0.986  -0.135  0.00  0.00     0.196 HD
ENDBRANCH  15  18
ENDBRANCH   8  14
BRANCH   9  25
HETATM   25  O   UNK N   1       0.735   1.646   0.104  0.00  0.00    -0.357 OA
HETATM   26  H   UNK N   1       1.516   2.163   0.091  0.00  0.00     0.217 HD
ENDBRANCH   9  25
TORSDOF 3
