REMARK  7 active torsions:
REMARK  status: ('A' for Active; 'I' for Inactive)
REMARK    1  A    between atoms: C_13  and  C_9 
REMARK    2  A    between atoms: N_16  and  C_9 
REMARK    3  A    between atoms: C_13  and  C_10 
REMARK    4  A    between atoms: O_18  and  C_10 
REMARK    5  A    between atoms: N_16  and  C_11 
REMARK    6  A    between atoms: O_17  and  C_13 
REMARK    7  A    between atoms: O_18  and  C_15 
ROOT
HETATM    1  C   UNK N   1       0.240   0.947  -0.476  0.00  0.00     0.209 C 
ENDROOT
BRANCH   1   2
HETATM    2  C   UNK N   1       1.267   0.666   0.625  0.00  0.00     0.159 C 
BRANCH   2   3
HETATM    3  C   UNK N   1       2.110   1.879   1.023  0.00  0.00     0.147 C 
BRANCH   3   4
HETATM    4  N   UNK N   1       2.784   2.457  -0.130  0.00  0.00    -0.415 N 
HETATM    5  H   UNK N   1       2.372   2.634  -1.047  0.00  0.00     0.153 HD
BRANCH   4   6
HETATM    6  C   UNK N   1       4.152   2.736   0.268  0.00  0.00     0.068 C 
HETATM    7  C   UNK N   1       5.049   1.601  -0.183  0.00  0.00     0.031 C 
HETATM    8  C   UNK N   1       4.614   4.025  -0.380  0.00  0.00     0.031 C 
ENDBRANCH   4   6
ENDBRANCH   3   4
ENDBRANCH   2   3
BRANCH   2   9
HETATM    9  O   UNK N   1       2.099  -0.381   0.228  0.00  0.00    -0.392 OA
HETATM   10  H   UNK N   1       1.757  -1.246  -0.048  0.00  0.00     0.210 HD
ENDBRANCH   2   9
ENDBRANCH   1   2
BRANCH   1  11
HETATM   11  O   UNK N   1      -0.168   2.262  -0.449  0.00  0.00    -0.348 OA
BRANCH  11  12
HETATM   12  C   UNK N   1      -1.433   2.712  -0.270  0.00  0.00     0.079 A 
HETATM   13  C   UNK N   1      -1.649   4.099  -0.292  0.00  0.00     0.037 A 
HETATM   14  C   UNK N   1      -2.938   4.629  -0.112  0.00  0.00     0.003 A 
HETATM   15  C   UNK N   1      -4.030   3.774   0.093  0.00  0.00     0.008 A 
HETATM   16  C   UNK N   1      -3.804   2.400   0.113  0.00  0.00    -0.042 A 
HETATM   17  C   UNK N   1      -4.819   1.328   0.316  0.00  0.00     0.066 A 
HETATM   18  C   UNK N   1      -2.550   1.875  -0.062  0.00  0.00     0.004 A 
HETATM   19  C   UNK N   1      -3.920   0.109   0.225  0.00  0.00    -0.021 A 
HETATM   20  C   UNK N   1      -2.641   0.435   0.011  0.00  0.00     0.011 A 
ENDBRANCH  11  12
ENDBRANCH   1  11
TORSDOF 7
