REMARK  10 active torsions:
REMARK  status: ('A' for Active; 'I' for Inactive)
REMARK       I    between atoms: N_6  and  C_19 
REMARK       I    between atoms: N_7  and  C_18 
REMARK    1  A    between atoms: N_7  and  C_22 
REMARK    2  A    between atoms: C_20  and  N_8 
REMARK       I    between atoms: N_8  and  C_32 
REMARK       I    between atoms: N_9  and  C_32 
REMARK    3  A    between atoms: N_9  and  C_34 
REMARK       I    between atoms: N_10  and  C_33 
REMARK    4  A    between atoms: C_14  and  C_18 
REMARK    5  A    between atoms: C_19  and  C_20 
REMARK    6  A    between atoms: C_20  and  C_21 
REMARK    7  A    between atoms: C_22  and  C_23 
REMARK    8  A    between atoms: C_22  and  C_28 
REMARK    9  A    between atoms: C_23  and  C_24 
REMARK   10  A    between atoms: C_28  and  C_33 
ROOT
HETATM    1  O   UNK N   1       4.683  -1.096   1.127  0.00  0.00    -0.271 OA
HETATM    2  N   UNK N   1       6.544  -1.480  -0.033  0.00  0.00    -0.336 N 
HETATM    3  C   UNK N   1       8.686  -0.890   0.796  0.00  0.00     0.032 A 
HETATM    4  C   UNK N   1       9.718  -1.279  -0.244  0.00  0.00    -0.036 A 
HETATM    5  C   UNK N   1       8.675  -2.311   0.123  0.00  0.00     0.019 A 
HETATM    6  C   UNK N   1       7.239  -0.423   0.626  0.00  0.00     0.184 C 
HETATM    7  C   UNK N   1       7.424  -2.314  -0.760  0.00  0.00     0.132 C 
HETATM    8  C   UNK N   1      11.086  -1.677   0.282  0.00  0.00     0.016 C 
HETATM    9  C   UNK N   1       9.634  -0.697  -1.646  0.00  0.00     0.016 C 
HETATM   10  C   UNK N   1       5.294  -1.850   0.378  0.00  0.00     0.244 C 
ENDROOT
BRANCH   6  11
HETATM   11  C   UNK N   1       7.013   0.956   0.086  0.00  0.00     0.241 C 
HETATM   12  O   UNK N   1       6.824   1.138  -1.109  0.00  0.00    -0.271 OA
HETATM   13  N   UNK N   1       7.012   1.995   0.963  0.00  0.00    -0.347 N 
HETATM   14  H   UNK N   1       7.160   1.786   1.914  0.00  0.00     0.163 HD
BRANCH  13  15
HETATM   15  C   UNK N   1       6.808   3.388   0.610  0.00  0.00     0.165 C 
BRANCH  15  16
HETATM   16  C   UNK N   1       5.518   3.563  -0.184  0.00  0.00     0.038 C 
BRANCH  16  17
HETATM   17  C   UNK N   1       4.483   4.317   0.631  0.00  0.00    -0.012 A 
HETATM   18  C   UNK N   1       4.410   5.751   0.140  0.00  0.00     0.005 A 
HETATM   19  C   UNK N   1       3.055   5.475  -0.481  0.00  0.00     0.001 A 
HETATM   20  C   UNK N   1       3.110   4.057   0.045  0.00  0.00     0.005 A 
ENDBRANCH  16  17
ENDBRANCH  15  16
BRANCH  15  21
HETATM   21  C   UNK N   1       7.993   4.084  -0.037  0.00  0.00     0.238 C 
HETATM   22  O   UNK N   1       7.892   5.281  -0.259  0.00  0.00    -0.285 OA
BRANCH  21  23
HETATM   23  C   UNK N   1       9.280   3.414  -0.381  0.00  0.00     0.287 C 
HETATM   24  O   UNK N   1       9.470   2.236  -0.134  0.00  0.00    -0.265 OA
HETATM   25  N   UNK N   1      10.266   4.126  -0.963  0.00  0.00    -0.363 N 
HETATM   26  H   UNK N   1      11.076   3.762  -1.388  0.00  0.00     0.159 HD
HETATM   27  H   UNK N   1      10.166   5.105  -0.963  0.00  0.00     0.159 HD
ENDBRANCH  21  23
ENDBRANCH  15  21
ENDBRANCH  13  15
ENDBRANCH   6  11
BRANCH  10  28
HETATM   28  C   UNK N   1       4.590  -3.142  -0.076  0.00  0.00     0.185 C 
BRANCH  28  29
HETATM   29  N   UNK N   1       3.276  -3.144   0.540  0.00  0.00    -0.329 N 
HETATM   30  C   UNK N   1       2.139  -3.429  -0.121  0.00  0.00     0.317 C 
HETATM   31  O   UNK N   1       2.150  -3.592  -1.328  0.00  0.00    -0.247 OA
HETATM   32  N   UNK N   1       1.009  -3.637   0.606  0.00  0.00    -0.335 N 
HETATM   33  H   UNK N   1       1.036  -3.444   1.571  0.00  0.00     0.165 HD
HETATM   34  H   UNK N   1       3.212  -2.923   1.498  0.00  0.00     0.165 HD
BRANCH  32  35
HETATM   35  C   UNK N   1      -0.229  -4.125   0.040  0.00  0.00     0.023 C 
HETATM   36  C   UNK N   1      -1.240  -4.290   1.155  0.00  0.00     0.037 C 
HETATM   37  C   UNK N   1      -0.776  -3.145  -0.980  0.00  0.00     0.037 C 
HETATM   38  C   UNK N   1      -0.008  -5.484  -0.605  0.00  0.00     0.037 C 
ENDBRANCH  32  35
ENDBRANCH  28  29
BRANCH  28  39
HETATM   39  C   UNK N   1       5.180  -4.578   0.209  0.00  0.00    -0.022 C 
HETATM   40  C   UNK N   1       4.960  -5.012   1.652  0.00  0.00     0.017 C 
HETATM   41  C   UNK N   1       4.438  -5.554  -0.688  0.00  0.00     0.017 C 
HETATM   42  C   UNK N   1       6.636  -4.825  -0.089  0.00  0.00     0.017 C 
ENDBRANCH  28  39
ENDBRANCH  10  28
TORSDOF 10
