REMARK  6 active torsions:
REMARK  status: ('A' for Active; 'I' for Inactive)
REMARK    1  A    between atoms: C_13  and  C_10 
REMARK    2  A    between atoms: C_18  and  C_10 
REMARK    3  A    between atoms: N_26  and  C_13 
REMARK    4  A    between atoms: C_22  and  C_17 
REMARK    5  A    between atoms: N_24  and  C_19 
REMARK    6  A    between atoms: O_27  and  C_22 
ROOT
HETATM    1  C   UNK N   1       0.526  -3.044  -0.608  0.00  0.00     0.055 C 
HETATM    2  C   UNK N   1      -0.748  -2.618   1.501  0.00  0.00     0.055 C 
HETATM    3  C   UNK N   1       0.821  -1.533  -0.553  0.00  0.00     0.274 C 
HETATM    4  C   UNK N   1      -0.775  -1.105   1.214  0.00  0.00     0.274 C 
HETATM    5  C   UNK N   1      -0.717  -3.433   0.207  0.00  0.00     0.087 C 
HETATM    6  N   UNK N   1      -0.382  -0.794  -0.174  0.00  0.00     0.088 N 
ENDROOT
BRANCH   6   7
HETATM    7  C   UNK N   1      -0.191   0.636  -0.438  0.00  0.00     0.277 C 
BRANCH   7   8
HETATM    8  C   UNK N   1       0.233   1.453   0.781  0.00  0.00     0.071 C 
BRANCH   8   9
HETATM    9  C   UNK N   1       1.234   2.480   0.392  0.00  0.00    -0.029 A 
HETATM   10  C   UNK N   1       0.990   3.835   0.194  0.00  0.00     0.096 A 
HETATM   11  N   UNK N   1       2.150   4.461  -0.128  0.00  0.00    -0.365 N 
HETATM   12  C   UNK N   1       3.103   3.508  -0.123  0.00  0.00     0.042 A 
HETATM   13  H   UNK N   1       2.271   5.417  -0.326  0.00  0.00     0.165 HD
HETATM   14  C   UNK N   1       4.459   3.678  -0.380  0.00  0.00     0.030 A 
HETATM   15  C   UNK N   1       2.574   2.289   0.190  0.00  0.00    -0.002 A 
HETATM   16  C   UNK N   1       5.286   2.540  -0.306  0.00  0.00     0.002 A 
HETATM   17  C   UNK N   1       4.739   1.277   0.018  0.00  0.00     0.001 A 
HETATM   18  C   UNK N   1       3.362   1.142   0.272  0.00  0.00     0.014 A 
ENDBRANCH   8   9
ENDBRANCH   7   8
ENDBRANCH   6   7
BRANCH   5  19
HETATM   19  N   UNK N   1      -1.915  -3.143  -0.548  0.00  0.00    -0.366 N 
HETATM   20  C   UNK N   1      -2.898  -3.955  -0.768  0.00  0.00     0.146 C 
ATOM     21  HN  UNK N   1      -1.993  -2.207  -0.946  1.00  0.00     0.162 HD
BRANCH  20  22
HETATM   22  C   UNK N   1      -2.937  -5.372  -0.298  0.00  0.00     0.014 A 
HETATM   23  C   UNK N   1      -1.812  -6.035   0.219  0.00  0.00     0.016 A 
HETATM   24  C   UNK N   1      -1.896  -7.368   0.630  0.00  0.00     0.001 A 
HETATM   25  C   UNK N   1      -3.111  -8.051   0.539  0.00  0.00     0.000 A 
HETATM   26  C   UNK N   1      -4.238  -7.404   0.030  0.00  0.00     0.001 A 
HETATM   27  C   UNK N   1      -4.148  -6.076  -0.394  0.00  0.00     0.016 A 
ENDBRANCH  20  22
BRANCH  20  28
HETATM   28  O   UNK N   1      -3.969  -3.479  -1.435  0.00  0.00    -0.346 OA
HETATM   29  H   UNK N   1      -4.055  -2.669  -1.898  0.00  0.00     0.219 HD
ENDBRANCH  20  28
ENDBRANCH   5  19
TORSDOF 6
