REMARK  4 active torsions:
REMARK  status: ('A' for Active; 'I' for Inactive)
REMARK    1  A    between atoms: S_1  and  N_2 
REMARK    2  A    between atoms: S_1  and  C_5 
REMARK       I    between atoms: N_2  and  C_3 
REMARK       I    between atoms: C_3  and  N_4 
REMARK    3  A    between atoms: C_15  and  N_4 
REMARK    4  A    between atoms: C_17  and  O_23 
ROOT
HETATM    1  N   UNK N   1       1.021   2.408   0.952  0.00  0.00    -0.232 N 
HETATM    2  C   UNK N   1      -0.200   1.893   1.233  0.00  0.00     0.330 C 
HETATM    3  N   UNK N   1      -0.860   1.115   0.332  0.00  0.00    -0.335 N 
HETATM    4  O   UNK N   1      -0.709   2.142   2.313  0.00  0.00    -0.246 OA
HETATM    5  H   UNK N   1       1.418   3.030   1.604  0.00  0.00     0.183 HD
HETATM    6  H   UNK N   1      -0.465   0.941  -0.553  0.00  0.00     0.164 HD
ENDROOT
BRANCH   1   7
HETATM    7  S   UNK N   1       1.943   2.040  -0.494  0.00  0.00     0.266 S 
HETATM    8  O   UNK N   1       2.708   3.342  -0.780  0.00  0.00    -0.200 OA
HETATM    9  O   UNK N   1       0.944   1.970  -1.660  0.00  0.00    -0.200 OA
BRANCH   7  10
HETATM   10  C   UNK N   1       3.029   0.636  -0.304  0.00  0.00     0.080 A 
HETATM   11  C   UNK N   1       2.487  -0.623  -0.031  0.00  0.00     0.026 A 
HETATM   12  C   UNK N   1       3.330  -1.712   0.205  0.00  0.00     0.008 A 
HETATM   13  C   UNK N   1       4.718  -1.540   0.177  0.00  0.00    -0.062 A 
HETATM   14  C   UNK N   1       5.262  -0.281  -0.095  0.00  0.00     0.008 A 
HETATM   15  C   UNK N   1       5.613  -2.695   0.446  0.00  0.00     0.048 C 
HETATM   16  C   UNK N   1       4.418   0.809  -0.331  0.00  0.00     0.026 A 
ENDBRANCH   7  10
ENDBRANCH   1   7
BRANCH   3  17
HETATM   17  C   UNK N   1      -2.143   0.546   0.677  0.00  0.00     0.120 C 
HETATM   18  C   UNK N   1      -3.328   1.122  -0.126  0.00  0.00     0.019 C 
HETATM   19  C   UNK N   1      -4.520   0.832   0.800  0.00  0.00     0.008 C 
HETATM   20  C   UNK N   1      -3.559   0.102  -1.249  0.00  0.00    -0.032 C 
HETATM   21  C   UNK N   1      -4.682  -0.693   0.709  0.00  0.00     0.013 C 
HETATM   22  C   UNK N   1      -3.581  -1.084  -0.291  0.00  0.00    -0.009 C 
HETATM   23  C   UNK N   1      -2.205  -0.951   0.382  0.00  0.00     0.150 C 
HETATM   24  C   UNK N   1      -3.817  -2.450  -0.917  0.00  0.00     0.018 C 
HETATM   25  C   UNK N   1      -4.873   0.324  -2.012  0.00  0.00     0.016 C 
HETATM   26  C   UNK N   1      -2.433   0.065  -2.286  0.00  0.00     0.016 C 
BRANCH  23  27
HETATM   27  O   UNK N   1      -2.096  -1.711   1.548  0.00  0.00    -0.393 OA
HETATM   28  H   UNK N   1      -2.515  -2.040   2.358  0.00  0.00     0.210 HD
ENDBRANCH  23  27
ENDBRANCH   3  17
TORSDOF 4
