MODEL 1
REMARK VINA RESULT:      -5.6      0.000      0.000
REMARK  8 active torsions:
REMARK  status: ('A' for Active; 'I' for Inactive)
REMARK    1  A    between atoms: N_2  and  C_9 
REMARK    2  A    between atoms: N_2  and  C_11 
REMARK    3  A    between atoms: N_2  and  C_12 
REMARK    4  A    between atoms: N_3  and  C_8 
REMARK    5  A    between atoms: N_3  and  C_13 
REMARK    6  A    between atoms: C_6  and  C_7 
REMARK    7  A    between atoms: C_6  and  C_8 
REMARK    8  A    between atoms: C_7  and  C_9 
ROOT
HETATM    1 Cl   UNK N   1      26.985  31.052  -2.994  0.00  0.00    -0.084 Cl
HETATM    2  N   UNK N   1      28.016  28.481  -7.293  0.00  0.00    -0.365 N 
ATOM      3  HN  UNK N   1      28.680  29.224  -7.514  1.00  0.00     0.165 HD
HETATM    4  C   UNK N   1      26.215  26.463  -6.700  0.00  0.00     0.042 A 
HETATM    5  C   UNK N   1      26.369  27.541  -5.819  0.00  0.00     0.017 A 
HETATM    6  C   UNK N   1      26.978  26.409  -7.868  0.00  0.00     0.047 A 
HETATM    7  C   UNK N   1      27.297  28.555  -6.142  0.00  0.00     0.046 A 
HETATM    8  C   UNK N   1      25.650  27.613  -4.619  0.00  0.00     0.018 A 
HETATM    9  C   UNK N   1      27.872  27.439  -8.156  0.00  0.00     0.090 A 
HETATM   10  C   UNK N   1      27.484  29.629  -5.268  0.00  0.00     0.054 A 
HETATM   11  C   UNK N   1      25.843  28.691  -3.751  0.00  0.00     0.025 A 
HETATM   12  C   UNK N   1      26.757  29.697  -4.077  0.00  0.00     0.036 A 
ENDROOT
BRANCH   4  13
HETATM   13  N   UNK N   1      25.378  25.381  -6.366  0.00  0.00    -0.385 N 
HETATM   14  H   UNK N   1      24.399  25.441  -6.456  0.00  0.00     0.160 HD
BRANCH  13  15
HETATM   15  C   UNK N   1      26.013  24.187  -5.889  0.00  0.00     0.077 C 
HETATM   16  C   UNK N   1      25.845  22.984  -6.803  0.00  0.00     0.032 C 
BRANCH  15  17
HETATM   17  C   UNK N   1      25.938  24.033  -4.372  0.00  0.00     0.026 C 
BRANCH  17  18
HETATM   18  C   UNK N   1      27.178  24.482  -3.625  0.00  0.00     0.032 C 
BRANCH  18  19
HETATM   19  C   UNK N   1      28.421  24.595  -4.518  0.00  0.00     0.272 C 
BRANCH  19  20
HETATM   20  N   UNK N   1      29.277  23.404  -4.421  0.00  0.00     0.087 N 
BRANCH  20  21
HETATM   21  C   UNK N   1      30.378  23.669  -3.485  0.00  0.00     0.268 C 
HETATM   22  C   UNK N   1      30.178  22.906  -2.190  0.00  0.00     0.037 C 
ENDBRANCH  20  21
BRANCH  20  23
HETATM   23  C   UNK N   1      29.718  23.088  -5.788  0.00  0.00     0.268 C 
HETATM   24  C   UNK N   1      29.354  21.696  -6.293  0.00  0.00     0.037 C 
ENDBRANCH  20  23
ENDBRANCH  19  20
ENDBRANCH  18  19
ENDBRANCH  17  18
ENDBRANCH  15  17
ENDBRANCH  13  15
ENDBRANCH   4  13
TORSDOF 8
ENDMDL
MODEL 2
REMARK VINA RESULT:      -5.2     14.914     17.151
REMARK  8 active torsions:
REMARK  status: ('A' for Active; 'I' for Inactive)
REMARK    1  A    between atoms: N_2  and  C_9 
REMARK    2  A    between atoms: N_2  and  C_11 
REMARK    3  A    between atoms: N_2  and  C_12 
REMARK    4  A    between atoms: N_3  and  C_8 
REMARK    5  A    between atoms: N_3  and  C_13 
REMARK    6  A    between atoms: C_6  and  C_7 
REMARK    7  A    between atoms: C_6  and  C_8 
REMARK    8  A    between atoms: C_7  and  C_9 
ROOT
HETATM    1 Cl   UNK N   1      20.791  20.424   1.209  0.00  0.00    -0.084 Cl
HETATM    2  N   UNK N   1      19.339  15.932   3.175  0.00  0.00    -0.365 N 
ATOM      3  HN  UNK N   1      18.895  15.743   2.277  1.00  0.00     0.165 HD
HETATM    4  C   UNK N   1      20.542  16.439   5.619  0.00  0.00     0.042 A 
HETATM    5  C   UNK N   1      20.601  17.399   4.600  0.00  0.00     0.017 A 
HETATM    6  C   UNK N   1      19.883  15.229   5.392  0.00  0.00     0.047 A 
HETATM    7  C   UNK N   1      19.983  17.114   3.362  0.00  0.00     0.046 A 
HETATM    8  C   UNK N   1      21.284  18.609   4.775  0.00  0.00     0.018 A 
HETATM    9  C   UNK N   1      19.274  14.994   4.160  0.00  0.00     0.090 A 
HETATM   10  C   UNK N   1      20.049  18.046   2.323  0.00  0.00     0.054 A 
HETATM   11  C   UNK N   1      21.343  19.536   3.731  0.00  0.00     0.025 A 
HETATM   12  C   UNK N   1      20.725  19.255   2.508  0.00  0.00     0.036 A 
ENDROOT
BRANCH   4  13
HETATM   13  N   UNK N   1      21.231  16.640   6.830  0.00  0.00    -0.385 N 
HETATM   14  H   UNK N   1      22.168  16.942   6.844  0.00  0.00     0.160 HD
BRANCH  13  15
HETATM   15  C   UNK N   1      20.508  16.385   8.042  0.00  0.00     0.077 C 
HETATM   16  C   UNK N   1      19.794  17.600   8.609  0.00  0.00     0.032 C 
BRANCH  15  17
HETATM   17  C   UNK N   1      21.214  15.392   8.963  0.00  0.00     0.026 C 
BRANCH  17  18
HETATM   18  C   UNK N   1      20.409  14.152   9.298  0.00  0.00     0.032 C 
BRANCH  18  19
HETATM   19  C   UNK N   1      21.255  13.017   9.890  0.00  0.00     0.272 C 
BRANCH  19  20
HETATM   20  N   UNK N   1      22.608  12.984   9.317  0.00  0.00     0.087 N 
BRANCH  20  21
HETATM   21  C   UNK N   1      22.606  12.144   8.111  0.00  0.00     0.268 C 
HETATM   22  C   UNK N   1      24.023  11.846   7.662  0.00  0.00     0.037 C 
ENDBRANCH  20  21
BRANCH  20  23
HETATM   23  C   UNK N   1      23.506  12.503  10.378  0.00  0.00     0.268 C 
HETATM   24  C   UNK N   1      22.824  12.061  11.668  0.00  0.00     0.037 C 
ENDBRANCH  20  23
ENDBRANCH  19  20
ENDBRANCH  18  19
ENDBRANCH  17  18
ENDBRANCH  15  17
ENDBRANCH  13  15
ENDBRANCH   4  13
TORSDOF 8
ENDMDL
MODEL 3
REMARK VINA RESULT:      -5.1      1.945      3.123
REMARK  8 active torsions:
REMARK  status: ('A' for Active; 'I' for Inactive)
REMARK    1  A    between atoms: N_2  and  C_9 
REMARK    2  A    between atoms: N_2  and  C_11 
REMARK    3  A    between atoms: N_2  and  C_12 
REMARK    4  A    between atoms: N_3  and  C_8 
REMARK    5  A    between atoms: N_3  and  C_13 
REMARK    6  A    between atoms: C_6  and  C_7 
REMARK    7  A    between atoms: C_6  and  C_8 
REMARK    8  A    between atoms: C_7  and  C_9 
ROOT
HETATM    1 Cl   UNK N   1      30.046  29.739  -8.962  0.00  0.00    -0.084 Cl
HETATM    2  N   UNK N   1      27.099  29.576  -4.785  0.00  0.00    -0.365 N 
ATOM      3  HN  UNK N   1      27.500  30.479  -4.533  1.00  0.00     0.165 HD
HETATM    4  C   UNK N   1      26.007  27.123  -5.465  0.00  0.00     0.042 A 
HETATM    5  C   UNK N   1      26.967  27.713  -6.297  0.00  0.00     0.017 A 
HETATM    6  C   UNK N   1      25.600  27.780  -4.302  0.00  0.00     0.047 A 
HETATM    7  C   UNK N   1      27.506  28.966  -5.930  0.00  0.00     0.046 A 
HETATM    8  C   UNK N   1      27.374  27.103  -7.490  0.00  0.00     0.018 A 
HETATM    9  C   UNK N   1      26.168  29.010  -3.970  0.00  0.00     0.090 A 
HETATM   10  C   UNK N   1      28.448  29.585  -6.756  0.00  0.00     0.054 A 
HETATM   11  C   UNK N   1      28.318  27.729  -8.309  0.00  0.00     0.025 A 
HETATM   12  C   UNK N   1      28.855  28.966  -7.941  0.00  0.00     0.036 A 
ENDROOT
BRANCH   4  13
HETATM   13  N   UNK N   1      25.371  25.926  -5.845  0.00  0.00    -0.385 N 
HETATM   14  H   UNK N   1      24.473  25.927  -6.250  0.00  0.00     0.160 HD
BRANCH  13  15
HETATM   15  C   UNK N   1      26.087  24.704  -5.618  0.00  0.00     0.077 C 
HETATM   16  C   UNK N   1      26.035  23.726  -6.779  0.00  0.00     0.032 C 
BRANCH  15  17
HETATM   17  C   UNK N   1      25.990  24.213  -4.175  0.00  0.00     0.026 C 
BRANCH  17  18
HETATM   18  C   UNK N   1      27.227  24.460  -3.335  0.00  0.00     0.032 C 
BRANCH  18  19
HETATM   19  C   UNK N   1      28.525  23.992  -4.006  0.00  0.00     0.272 C 
BRANCH  19  20
HETATM   20  N   UNK N   1      29.690  24.760  -3.545  0.00  0.00     0.087 N 
BRANCH  20  21
HETATM   21  C   UNK N   1      30.070  25.736  -4.575  0.00  0.00     0.268 C 
HETATM   22  C   UNK N   1      29.891  27.153  -4.066  0.00  0.00     0.037 C 
ENDBRANCH  20  21
BRANCH  20  23
HETATM   23  C   UNK N   1      30.743  23.782  -3.230  0.00  0.00     0.268 C 
HETATM   24  C   UNK N   1      30.260  22.453  -2.662  0.00  0.00     0.037 C 
ENDBRANCH  20  23
ENDBRANCH  19  20
ENDBRANCH  18  19
ENDBRANCH  17  18
ENDBRANCH  15  17
ENDBRANCH  13  15
ENDBRANCH   4  13
TORSDOF 8
ENDMDL
MODEL 4
REMARK VINA RESULT:      -5.1     15.686     18.635
REMARK  8 active torsions:
REMARK  status: ('A' for Active; 'I' for Inactive)
REMARK    1  A    between atoms: N_2  and  C_9 
REMARK    2  A    between atoms: N_2  and  C_11 
REMARK    3  A    between atoms: N_2  and  C_12 
REMARK    4  A    between atoms: N_3  and  C_8 
REMARK    5  A    between atoms: N_3  and  C_13 
REMARK    6  A    between atoms: C_6  and  C_7 
REMARK    7  A    between atoms: C_6  and  C_8 
REMARK    8  A    between atoms: C_7  and  C_9 
ROOT
HETATM    1 Cl   UNK N   1      23.082  11.448  13.086  0.00  0.00    -0.084 Cl
HETATM    2  N   UNK N   1      24.822  13.371   8.678  0.00  0.00    -0.365 N 
ATOM      3  HN  UNK N   1      25.757  13.122   9.001  1.00  0.00     0.165 HD
HETATM    4  C   UNK N   1      22.286  14.050   7.796  0.00  0.00     0.042 A 
HETATM    5  C   UNK N   1      22.450  13.451   9.052  0.00  0.00     0.017 A 
HETATM    6  C   UNK N   1      23.402  14.292   6.993  0.00  0.00     0.047 A 
HETATM    7  C   UNK N   1      23.753  13.111   9.477  0.00  0.00     0.046 A 
HETATM    8  C   UNK N   1      21.352  13.157   9.871  0.00  0.00     0.018 A 
HETATM    9  C   UNK N   1      24.673  13.954   7.457  0.00  0.00     0.090 A 
HETATM   10  C   UNK N   1      23.940  12.492  10.715  0.00  0.00     0.054 A 
HETATM   11  C   UNK N   1      21.549  12.539  11.109  0.00  0.00     0.025 A 
HETATM   12  C   UNK N   1      22.840  12.209  11.530  0.00  0.00     0.036 A 
ENDROOT
BRANCH   4  13
HETATM   13  N   UNK N   1      20.997  14.310   7.292  0.00  0.00    -0.385 N 
HETATM   14  H   UNK N   1      20.384  13.580   7.046  0.00  0.00     0.160 HD
BRANCH  13  15
HETATM   15  C   UNK N   1      20.616  15.686   7.152  0.00  0.00     0.077 C 
HETATM   16  C   UNK N   1      20.324  16.388   8.467  0.00  0.00     0.032 C 
BRANCH  15  17
HETATM   17  C   UNK N   1      19.757  15.947   5.917  0.00  0.00     0.026 C 
BRANCH  17  18
HETATM   18  C   UNK N   1      20.514  16.476   4.715  0.00  0.00     0.032 C 
BRANCH  18  19
HETATM   19  C   UNK N   1      19.600  16.909   3.561  0.00  0.00     0.272 C 
BRANCH  19  20
HETATM   20  N   UNK N   1      20.290  17.801   2.619  0.00  0.00     0.087 N 
BRANCH  20  21
HETATM   21  C   UNK N   1      19.759  19.164   2.758  0.00  0.00     0.268 C 
HETATM   22  C   UNK N   1      20.829  20.108   3.270  0.00  0.00     0.037 C 
ENDBRANCH  20  21
BRANCH  20  23
HETATM   23  C   UNK N   1      20.109  17.223   1.278  0.00  0.00     0.268 C 
HETATM   24  C   UNK N   1      20.594  15.788   1.108  0.00  0.00     0.037 C 
ENDBRANCH  20  23
ENDBRANCH  19  20
ENDBRANCH  18  19
ENDBRANCH  17  18
ENDBRANCH  15  17
ENDBRANCH  13  15
ENDBRANCH   4  13
TORSDOF 8
ENDMDL
MODEL 5
REMARK VINA RESULT:      -5.0     23.114     27.354
REMARK  8 active torsions:
REMARK  status: ('A' for Active; 'I' for Inactive)
REMARK    1  A    between atoms: N_2  and  C_9 
REMARK    2  A    between atoms: N_2  and  C_11 
REMARK    3  A    between atoms: N_2  and  C_12 
REMARK    4  A    between atoms: N_3  and  C_8 
REMARK    5  A    between atoms: N_3  and  C_13 
REMARK    6  A    between atoms: C_6  and  C_7 
REMARK    7  A    between atoms: C_6  and  C_8 
REMARK    8  A    between atoms: C_7  and  C_9 
ROOT
HETATM    1 Cl   UNK N   1      35.983  15.783  10.822  0.00  0.00    -0.084 Cl
HETATM    2  N   UNK N   1      34.105  11.413  12.703  0.00  0.00    -0.365 N 
ATOM      3  HN  UNK N   1      33.654  11.281  11.798  1.00  0.00     0.165 HD
HETATM    4  C   UNK N   1      35.328  11.769  15.163  0.00  0.00     0.042 A 
HETATM    5  C   UNK N   1      35.485  12.734  14.161  0.00  0.00     0.017 A 
HETATM    6  C   UNK N   1      34.562  10.628  14.911  0.00  0.00     0.047 A 
HETATM    7  C   UNK N   1      34.854  12.528  12.913  0.00  0.00     0.046 A 
HETATM    8  C   UNK N   1      36.274  13.874  14.361  0.00  0.00     0.018 A 
HETATM    9  C   UNK N   1      33.946  10.470  13.671  0.00  0.00     0.090 A 
HETATM   10  C   UNK N   1      35.015  13.466  11.891  0.00  0.00     0.054 A 
HETATM   11  C   UNK N   1      36.428  14.808  13.333  0.00  0.00     0.025 A 
HETATM   12  C   UNK N   1      35.798  14.604  12.101  0.00  0.00     0.036 A 
ENDROOT
BRANCH   4  13
HETATM   13  N   UNK N   1      36.022  11.885  16.383  0.00  0.00    -0.385 N 
HETATM   14  H   UNK N   1      36.999  11.777  16.430  0.00  0.00     0.160 HD
BRANCH  13  15
HETATM   15  C   UNK N   1      35.242  12.168  17.553  0.00  0.00     0.077 C 
HETATM   16  C   UNK N   1      34.964  13.646  17.773  0.00  0.00     0.032 C 
BRANCH  15  17
HETATM   17  C   UNK N   1      35.570  11.250  18.727  0.00  0.00     0.026 C 
BRANCH  17  18
HETATM   18  C   UNK N   1      35.684   9.780  18.374  0.00  0.00     0.032 C 
BRANCH  18  19
HETATM   19  C   UNK N   1      35.118   8.848  19.453  0.00  0.00     0.272 C 
BRANCH  19  20
HETATM   20  N   UNK N   1      33.886   9.383  20.051  0.00  0.00     0.087 N 
BRANCH  20  21
HETATM   21  C   UNK N   1      34.023   9.403  21.514  0.00  0.00     0.268 C 
HETATM   22  C   UNK N   1      35.354   8.814  21.937  0.00  0.00     0.037 C 
ENDBRANCH  20  21
BRANCH  20  23
HETATM   23  C   UNK N   1      32.781   8.542  19.565  0.00  0.00     0.268 C 
HETATM   24  C   UNK N   1      31.444   8.739  20.273  0.00  0.00     0.037 C 
ENDBRANCH  20  23
ENDBRANCH  19  20
ENDBRANCH  18  19
ENDBRANCH  17  18
ENDBRANCH  15  17
ENDBRANCH  13  15
ENDBRANCH   4  13
TORSDOF 8
ENDMDL
MODEL 6
REMARK VINA RESULT:      -4.9     11.302     13.909
REMARK  8 active torsions:
REMARK  status: ('A' for Active; 'I' for Inactive)
REMARK    1  A    between atoms: N_2  and  C_9 
REMARK    2  A    between atoms: N_2  and  C_11 
REMARK    3  A    between atoms: N_2  and  C_12 
REMARK    4  A    between atoms: N_3  and  C_8 
REMARK    5  A    between atoms: N_3  and  C_13 
REMARK    6  A    between atoms: C_6  and  C_7 
REMARK    7  A    between atoms: C_6  and  C_8 
REMARK    8  A    between atoms: C_7  and  C_9 
ROOT
HETATM    1 Cl   UNK N   1      20.464  20.987   1.278  0.00  0.00    -0.084 Cl
HETATM    2  N   UNK N   1      19.257  16.733   3.846  0.00  0.00    -0.365 N 
ATOM      3  HN  UNK N   1      18.397  16.710   3.297  1.00  0.00     0.165 HD
HETATM    4  C   UNK N   1      21.588  16.790   5.341  0.00  0.00     0.042 A 
HETATM    5  C   UNK N   1      21.339  17.797   4.400  0.00  0.00     0.017 A 
HETATM    6  C   UNK N   1      20.663  15.758   5.513  0.00  0.00     0.047 A 
HETATM    7  C   UNK N   1      20.144  17.743   3.648  0.00  0.00     0.046 A 
HETATM    8  C   UNK N   1      22.259  18.829   4.172  0.00  0.00     0.018 A 
HETATM    9  C   UNK N   1      19.490  15.751   4.759  0.00  0.00     0.090 A 
HETATM   10  C   UNK N   1      19.884  18.724   2.687  0.00  0.00     0.054 A 
HETATM   11  C   UNK N   1      21.989  19.806   3.210  0.00  0.00     0.025 A 
HETATM   12  C   UNK N   1      20.803  19.754   2.471  0.00  0.00     0.036 A 
ENDROOT
BRANCH   4  13
HETATM   13  N   UNK N   1      22.812  16.750   6.037  0.00  0.00    -0.385 N 
HETATM   14  H   UNK N   1      23.008  17.380   6.767  0.00  0.00     0.160 HD
BRANCH  13  15
HETATM   15  C   UNK N   1      23.758  15.750   5.636  0.00  0.00     0.077 C 
HETATM   16  C   UNK N   1      24.249  14.866   6.770  0.00  0.00     0.032 C 
BRANCH  15  17
HETATM   17  C   UNK N   1      24.717  16.234   4.550  0.00  0.00     0.026 C 
BRANCH  17  18
HETATM   18  C   UNK N   1      25.654  17.346   4.977  0.00  0.00     0.032 C 
BRANCH  18  19
HETATM   19  C   UNK N   1      26.102  18.245   3.818  0.00  0.00     0.272 C 
BRANCH  19  20
HETATM   20  N   UNK N   1      26.869  19.407   4.288  0.00  0.00     0.087 N 
BRANCH  20  21
HETATM   21  C   UNK N   1      26.428  19.767   5.643  0.00  0.00     0.268 C 
HETATM   22  C   UNK N   1      27.545  20.450   6.408  0.00  0.00     0.037 C 
ENDBRANCH  20  21
BRANCH  20  23
HETATM   23  C   UNK N   1      26.675  20.473   3.293  0.00  0.00     0.268 C 
HETATM   24  C   UNK N   1      25.317  20.490   2.602  0.00  0.00     0.037 C 
ENDBRANCH  20  23
ENDBRANCH  19  20
ENDBRANCH  18  19
ENDBRANCH  17  18
ENDBRANCH  15  17
ENDBRANCH  13  15
ENDBRANCH   4  13
TORSDOF 8
ENDMDL
MODEL 7
REMARK VINA RESULT:      -4.8     15.047     17.708
REMARK  8 active torsions:
REMARK  status: ('A' for Active; 'I' for Inactive)
REMARK    1  A    between atoms: N_2  and  C_9 
REMARK    2  A    between atoms: N_2  and  C_11 
REMARK    3  A    between atoms: N_2  and  C_12 
REMARK    4  A    between atoms: N_3  and  C_8 
REMARK    5  A    between atoms: N_3  and  C_13 
REMARK    6  A    between atoms: C_6  and  C_7 
REMARK    7  A    between atoms: C_6  and  C_8 
REMARK    8  A    between atoms: C_7  and  C_9 
ROOT
HETATM    1 Cl   UNK N   1      22.283  11.776  11.114  0.00  0.00    -0.084 Cl
HETATM    2  N   UNK N   1      19.785  15.719   9.024  0.00  0.00    -0.365 N 
ATOM      3  HN  UNK N   1      19.550  16.004   9.975  1.00  0.00     0.165 HD
HETATM    4  C   UNK N   1      20.418  14.948   6.440  0.00  0.00     0.042 A 
HETATM    5  C   UNK N   1      20.856  14.177   7.524  0.00  0.00     0.017 A 
HETATM    6  C   UNK N   1      19.671  16.106   6.670  0.00  0.00     0.047 A 
HETATM    7  C   UNK N   1      20.523  14.594   8.833  0.00  0.00     0.046 A 
HETATM    8  C   UNK N   1      21.638  13.030   7.337  0.00  0.00     0.018 A 
HETATM    9  C   UNK N   1      19.353  16.473   7.977  0.00  0.00     0.090 A 
HETATM   10  C   UNK N   1      20.969  13.854   9.931  0.00  0.00     0.054 A 
HETATM   11  C   UNK N   1      22.077  12.295   8.442  0.00  0.00     0.025 A 
HETATM   12  C   UNK N   1      21.741  12.706   9.735  0.00  0.00     0.036 A 
ENDROOT
BRANCH   4  13
HETATM   13  N   UNK N   1      20.813  14.625   5.128  0.00  0.00    -0.385 N 
HETATM   14  H   UNK N   1      21.720  14.297   4.931  0.00  0.00     0.160 HD
BRANCH  13  15
HETATM   15  C   UNK N   1      19.838  14.796   4.091  0.00  0.00     0.077 C 
HETATM   16  C   UNK N   1      19.077  13.529   3.737  0.00  0.00     0.032 C 
BRANCH  15  17
HETATM   17  C   UNK N   1      20.283  15.771   3.004  0.00  0.00     0.026 C 
BRANCH  17  18
HETATM   18  C   UNK N   1      19.627  17.136   3.065  0.00  0.00     0.032 C 
BRANCH  18  19
HETATM   19  C   UNK N   1      20.509  18.262   2.511  0.00  0.00     0.272 C 
BRANCH  19  20
HETATM   20  N   UNK N   1      20.917  19.208   3.560  0.00  0.00     0.087 N 
BRANCH  20  21
HETATM   21  C   UNK N   1      20.712  20.583   3.084  0.00  0.00     0.268 C 
HETATM   22  C   UNK N   1      20.866  20.659   1.578  0.00  0.00     0.037 C 
ENDBRANCH  20  21
BRANCH  20  23
HETATM   23  C   UNK N   1      22.315  18.892   3.893  0.00  0.00     0.268 C 
HETATM   24  C   UNK N   1      22.526  18.134   5.199  0.00  0.00     0.037 C 
ENDBRANCH  20  23
ENDBRANCH  19  20
ENDBRANCH  18  19
ENDBRANCH  17  18
ENDBRANCH  15  17
ENDBRANCH  13  15
ENDBRANCH   4  13
TORSDOF 8
ENDMDL
MODEL 8
REMARK VINA RESULT:      -4.8      1.851      3.259
REMARK  8 active torsions:
REMARK  status: ('A' for Active; 'I' for Inactive)
REMARK    1  A    between atoms: N_2  and  C_9 
REMARK    2  A    between atoms: N_2  and  C_11 
REMARK    3  A    between atoms: N_2  and  C_12 
REMARK    4  A    between atoms: N_3  and  C_8 
REMARK    5  A    between atoms: N_3  and  C_13 
REMARK    6  A    between atoms: C_6  and  C_7 
REMARK    7  A    between atoms: C_6  and  C_8 
REMARK    8  A    between atoms: C_7  and  C_9 
ROOT
HETATM    1 Cl   UNK N   1      26.167  27.946  -3.023  0.00  0.00    -0.084 Cl
HETATM    2  N   UNK N   1      25.731  26.408  -7.881  0.00  0.00    -0.365 N 
ATOM      3  HN  UNK N   1      25.529  27.380  -8.114  1.00  0.00     0.165 HD
HETATM    4  C   UNK N   1      26.278  23.766  -7.254  0.00  0.00     0.042 A 
HETATM    5  C   UNK N   1      26.243  24.731  -6.239  0.00  0.00     0.017 A 
HETATM    6  C   UNK N   1      26.046  24.145  -8.578  0.00  0.00     0.047 A 
HETATM    7  C   UNK N   1      25.966  26.072  -6.585  0.00  0.00     0.046 A 
HETATM    8  C   UNK N   1      26.508  24.397  -4.905  0.00  0.00     0.018 A 
HETATM    9  C   UNK N   1      25.761  25.478  -8.874  0.00  0.00     0.090 A 
HETATM   10  C   UNK N   1      25.949  27.055  -5.593  0.00  0.00     0.054 A 
HETATM   11  C   UNK N   1      26.486  25.387  -3.919  0.00  0.00     0.025 A 
HETATM   12  C   UNK N   1      26.206  26.713  -4.263  0.00  0.00     0.036 A 
ENDROOT
BRANCH   4  13
HETATM   13  N   UNK N   1      26.652  22.439  -6.967  0.00  0.00    -0.385 N 
HETATM   14  H   UNK N   1      26.083  21.853  -6.418  0.00  0.00     0.160 HD
BRANCH  13  15
HETATM   15  C   UNK N   1      27.897  21.980  -7.509  0.00  0.00     0.077 C 
HETATM   16  C   UNK N   1      27.830  20.599  -8.141  0.00  0.00     0.032 C 
BRANCH  15  17
HETATM   17  C   UNK N   1      29.105  22.401  -6.675  0.00  0.00     0.026 C 
BRANCH  17  18
HETATM   18  C   UNK N   1      29.778  21.274  -5.916  0.00  0.00     0.032 C 
BRANCH  18  19
HETATM   19  C   UNK N   1      30.234  21.676  -4.507  0.00  0.00     0.272 C 
BRANCH  19  20
HETATM   20  N   UNK N   1      30.679  23.075  -4.451  0.00  0.00     0.087 N 
BRANCH  20  21
HETATM   21  C   UNK N   1      32.132  23.118  -4.237  0.00  0.00     0.268 C 
HETATM   22  C   UNK N   1      32.759  24.252  -5.024  0.00  0.00     0.037 C 
ENDBRANCH  20  21
BRANCH  20  23
HETATM   23  C   UNK N   1      29.898  23.726  -3.387  0.00  0.00     0.268 C 
HETATM   24  C   UNK N   1      29.813  22.961  -2.071  0.00  0.00     0.037 C 
ENDBRANCH  20  23
ENDBRANCH  19  20
ENDBRANCH  18  19
ENDBRANCH  17  18
ENDBRANCH  15  17
ENDBRANCH  13  15
ENDBRANCH   4  13
TORSDOF 8
ENDMDL
MODEL 9
REMARK VINA RESULT:      -4.8      3.293      6.880
REMARK  8 active torsions:
REMARK  status: ('A' for Active; 'I' for Inactive)
REMARK    1  A    between atoms: N_2  and  C_9 
REMARK    2  A    between atoms: N_2  and  C_11 
REMARK    3  A    between atoms: N_2  and  C_12 
REMARK    4  A    between atoms: N_3  and  C_8 
REMARK    5  A    between atoms: N_3  and  C_13 
REMARK    6  A    between atoms: C_6  and  C_7 
REMARK    7  A    between atoms: C_6  and  C_8 
REMARK    8  A    between atoms: C_7  and  C_9 
ROOT
HETATM    1 Cl   UNK N   1      29.642  18.537  -8.109  0.00  0.00    -0.084 Cl
HETATM    2  N   UNK N   1      30.400  22.369  -4.808  0.00  0.00    -0.365 N 
ATOM      3  HN  UNK N   1      31.132  21.793  -4.392  1.00  0.00     0.165 HD
HETATM    4  C   UNK N   1      28.411  23.935  -5.933  0.00  0.00     0.042 A 
HETATM    5  C   UNK N   1      28.674  22.661  -6.454  0.00  0.00     0.017 A 
HETATM    6  C   UNK N   1      29.161  24.410  -4.855  0.00  0.00     0.047 A 
HETATM    7  C   UNK N   1      29.695  21.883  -5.864  0.00  0.00     0.046 A 
HETATM    8  C   UNK N   1      27.969  22.163  -7.557  0.00  0.00     0.018 A 
HETATM    9  C   UNK N   1      30.151  23.605  -4.294  0.00  0.00     0.090 A 
HETATM   10  C   UNK N   1      29.991  20.619  -6.381  0.00  0.00     0.054 A 
HETATM   11  C   UNK N   1      28.270  20.896  -8.066  0.00  0.00     0.025 A 
HETATM   12  C   UNK N   1      29.278  20.126  -7.477  0.00  0.00     0.036 A 
ENDROOT
BRANCH   4  13
HETATM   13  N   UNK N   1      27.473  24.781  -6.555  0.00  0.00    -0.385 N 
HETATM   14  H   UNK N   1      27.616  25.125  -7.466  0.00  0.00     0.160 HD
BRANCH  13  15
HETATM   15  C   UNK N   1      26.301  25.120  -5.802  0.00  0.00     0.077 C 
HETATM   16  C   UNK N   1      25.598  23.929  -5.173  0.00  0.00     0.032 C 
BRANCH  15  17
HETATM   17  C   UNK N   1      25.500  26.262  -6.423  0.00  0.00     0.026 C 
BRANCH  17  18
HETATM   18  C   UNK N   1      24.931  27.255  -5.428  0.00  0.00     0.032 C 
BRANCH  18  19
HETATM   19  C   UNK N   1      25.981  27.821  -4.464  0.00  0.00     0.272 C 
BRANCH  19  20
HETATM   20  N   UNK N   1      26.654  29.005  -5.017  0.00  0.00     0.087 N 
BRANCH  20  21
HETATM   21  C   UNK N   1      28.018  28.644  -5.427  0.00  0.00     0.268 C 
HETATM   22  C   UNK N   1      28.304  29.134  -6.833  0.00  0.00     0.037 C 
ENDBRANCH  20  21
BRANCH  20  23
HETATM   23  C   UNK N   1      26.597  30.047  -3.980  0.00  0.00     0.268 C 
HETATM   24  C   UNK N   1      27.310  29.716  -2.674  0.00  0.00     0.037 C 
ENDBRANCH  20  23
ENDBRANCH  19  20
ENDBRANCH  18  19
ENDBRANCH  17  18
ENDBRANCH  15  17
ENDBRANCH  13  15
ENDBRANCH   4  13
TORSDOF 8
ENDMDL
