MODEL 1
REMARK VINA RESULT:      -7.0      0.000      0.000
REMARK  6 active torsions:
REMARK  status: ('A' for Active; 'I' for Inactive)
REMARK    1  A    between atoms: C_2  and  O_3 
REMARK    2  A    between atoms: O_3  and  C_4 
REMARK    3  A    between atoms: C_9  and  C_10 
REMARK    4  A    between atoms: C_15  and  N_16 
REMARK       I    between atoms: N_16  and  C_17 
REMARK    5  A    between atoms: C_17  and  C_19 
REMARK    6  A    between atoms: C_22  and  O_24 
ROOT
HETATM    1  C   UNK N   1      36.395  14.331  11.656  0.00  0.00     0.141 C 
HETATM    2  C   UNK N   1      35.858  15.632  11.334  0.00  0.00     0.107 C 
HETATM    3  N   UNK N   1      35.397  16.671  11.118  0.00  0.00    -0.191 NA
HETATM    4  C   UNK N   1      37.343  13.739  10.879  0.00  0.00     0.065 C 
HETATM    5  C   UNK N   1      37.867  14.415   9.658  0.00  0.00     0.077 C 
ENDROOT
BRANCH   1   6
HETATM    6  C   UNK N   1      35.860  13.687  12.865  0.00  0.00     0.269 C 
HETATM    7  N   UNK N   1      36.703  13.325  13.853  0.00  0.00    -0.322 N 
HETATM    8  H   UNK N   1      37.660  13.517  13.723  0.00  0.00     0.169 HD
HETATM    9  O   UNK N   1      34.656  13.482  12.958  0.00  0.00    -0.266 OA
BRANCH   7  10
HETATM   10  C   UNK N   1      36.331  12.700  15.050  0.00  0.00     0.035 A 
HETATM   11  C   UNK N   1      36.630  11.356  15.195  0.00  0.00     0.030 A 
HETATM   12  C   UNK N   1      36.268  10.704  16.352  0.00  0.00     0.014 A 
HETATM   13  C   UNK N   1      35.600  11.393  17.378  0.00  0.00    -0.026 A 
HETATM   14  C   UNK N   1      35.301  12.745  17.235  0.00  0.00     0.014 A 
HETATM   15  C   UNK N   1      35.666  13.396  16.072  0.00  0.00     0.030 A 
BRANCH  13  16
HETATM   16  C   UNK N   1      35.243  10.674  18.587  0.00  0.00    -0.023 A 
HETATM   17  C   UNK N   1      34.363   9.617  18.452  0.00  0.00     0.049 A 
HETATM   18  C   UNK N   1      33.972   8.866  19.526  0.00  0.00     0.069 A 
HETATM   19  C   UNK N   1      34.472   9.171  20.805  0.00  0.00     0.037 A 
HETATM   20  C   UNK N   1      35.366  10.245  20.964  0.00  0.00     0.004 A 
HETATM   21  C   UNK N   1      35.755  11.001  19.850  0.00  0.00     0.012 A 
BRANCH  18  22
HETATM   22  O   UNK N   1      33.118   7.861  19.270  0.00  0.00    -0.351 OA
BRANCH  22  23
HETATM   23  C   UNK N   1      32.241   7.315  20.159  0.00  0.00     0.171 C 
HETATM   24  C   UNK N   1      30.956   8.106  20.057  0.00  0.00     0.034 C 
ENDBRANCH  22  23
ENDBRANCH  18  22
ENDBRANCH  13  16
ENDBRANCH   7  10
ENDBRANCH   1   6
BRANCH   4  25
HETATM   25  O   UNK N   1      37.839  12.520  11.182  0.00  0.00    -0.364 OA
HETATM   26  H   UNK N   1      38.754  12.347  11.077  0.00  0.00     0.217 HD
ENDBRANCH   4  25
TORSDOF 6
ENDMDL
MODEL 2
REMARK VINA RESULT:      -6.9      2.254      3.269
REMARK  6 active torsions:
REMARK  status: ('A' for Active; 'I' for Inactive)
REMARK    1  A    between atoms: C_2  and  O_3 
REMARK    2  A    between atoms: O_3  and  C_4 
REMARK    3  A    between atoms: C_9  and  C_10 
REMARK    4  A    between atoms: C_15  and  N_16 
REMARK       I    between atoms: N_16  and  C_17 
REMARK    5  A    between atoms: C_17  and  C_19 
REMARK    6  A    between atoms: C_22  and  O_24 
ROOT
HETATM    1  C   UNK N   1      35.106  14.872   9.429  0.00  0.00     0.141 C 
HETATM    2  C   UNK N   1      36.061  14.022   8.758  0.00  0.00     0.107 C 
HETATM    3  N   UNK N   1      36.832  13.314   8.265  0.00  0.00    -0.191 NA
HETATM    4  C   UNK N   1      34.490  15.899   8.784  0.00  0.00     0.065 C 
HETATM    5  C   UNK N   1      34.777  16.189   7.350  0.00  0.00     0.077 C 
ENDROOT
BRANCH   1   6
HETATM    6  C   UNK N   1      34.842  14.564  10.843  0.00  0.00     0.269 C 
HETATM    7  N   UNK N   1      35.771  13.903  11.563  0.00  0.00    -0.322 N 
HETATM    8  H   UNK N   1      36.606  13.655  11.104  0.00  0.00     0.169 HD
HETATM    9  O   UNK N   1      33.780  14.906  11.349  0.00  0.00    -0.266 OA
BRANCH   7  10
HETATM   10  C   UNK N   1      35.648  13.541  12.910  0.00  0.00     0.035 A 
HETATM   11  C   UNK N   1      36.350  14.284  13.844  0.00  0.00     0.030 A 
HETATM   12  C   UNK N   1      36.264  13.948  15.177  0.00  0.00     0.014 A 
HETATM   13  C   UNK N   1      35.473  12.862  15.588  0.00  0.00    -0.026 A 
HETATM   14  C   UNK N   1      34.766  12.115  14.651  0.00  0.00     0.014 A 
HETATM   15  C   UNK N   1      34.854  12.456  13.314  0.00  0.00     0.030 A 
BRANCH  13  16
HETATM   16  C   UNK N   1      35.401  12.545  17.002  0.00  0.00    -0.023 A 
HETATM   17  C   UNK N   1      35.543  11.217  17.356  0.00  0.00     0.049 A 
HETATM   18  C   UNK N   1      35.504  10.813  18.662  0.00  0.00     0.069 A 
HETATM   19  C   UNK N   1      35.313  11.766  19.678  0.00  0.00     0.037 A 
HETATM   20  C   UNK N   1      35.163  13.123  19.339  0.00  0.00     0.004 A 
HETATM   21  C   UNK N   1      35.208  13.516  17.995  0.00  0.00     0.012 A 
BRANCH  18  22
HETATM   22  O   UNK N   1      35.660   9.497  18.883  0.00  0.00    -0.351 OA
BRANCH  22  23
HETATM   23  C   UNK N   1      34.923   8.501  18.315  0.00  0.00     0.171 C 
HETATM   24  C   UNK N   1      33.656   8.368  19.131  0.00  0.00     0.034 C 
ENDBRANCH  22  23
ENDBRANCH  18  22
ENDBRANCH  13  16
ENDBRANCH   7  10
ENDBRANCH   1   6
BRANCH   4  25
HETATM   25  O   UNK N   1      33.600  16.694   9.418  0.00  0.00    -0.364 OA
HETATM   26  H   UNK N   1      32.681  16.557   9.300  0.00  0.00     0.217 HD
ENDBRANCH   4  25
TORSDOF 6
ENDMDL
MODEL 3
REMARK VINA RESULT:      -6.8      1.383      1.720
REMARK  6 active torsions:
REMARK  status: ('A' for Active; 'I' for Inactive)
REMARK    1  A    between atoms: C_2  and  O_3 
REMARK    2  A    between atoms: O_3  and  C_4 
REMARK    3  A    between atoms: C_9  and  C_10 
REMARK    4  A    between atoms: C_15  and  N_16 
REMARK       I    between atoms: N_16  and  C_17 
REMARK    5  A    between atoms: C_17  and  C_19 
REMARK    6  A    between atoms: C_22  and  O_24 
ROOT
HETATM    1  C   UNK N   1      35.829  13.851  11.461  0.00  0.00     0.141 C 
HETATM    2  C   UNK N   1      37.151  13.642  10.917  0.00  0.00     0.107 C 
HETATM    3  N   UNK N   1      38.218  13.441  10.519  0.00  0.00    -0.191 NA
HETATM    4  C   UNK N   1      34.945  14.705  10.877  0.00  0.00     0.065 C 
HETATM    5  C   UNK N   1      35.307  15.461   9.645  0.00  0.00     0.077 C 
ENDROOT
BRANCH   1   6
HETATM    6  C   UNK N   1      35.500  13.093  12.677  0.00  0.00     0.269 C 
HETATM    7  N   UNK N   1      36.268  13.234  13.777  0.00  0.00    -0.322 N 
HETATM    8  H   UNK N   1      37.029  13.857  13.719  0.00  0.00     0.169 HD
HETATM    9  O   UNK N   1      34.536  12.338  12.677  0.00  0.00    -0.266 OA
BRANCH   7  10
HETATM   10  C   UNK N   1      36.074  12.571  14.994  0.00  0.00     0.035 A 
HETATM   11  C   UNK N   1      36.661  11.327  15.151  0.00  0.00     0.030 A 
HETATM   12  C   UNK N   1      36.482  10.639  16.330  0.00  0.00     0.014 A 
HETATM   13  C   UNK N   1      35.708  11.190  17.366  0.00  0.00    -0.026 A 
HETATM   14  C   UNK N   1      35.118  12.441  17.211  0.00  0.00     0.014 A 
HETATM   15  C   UNK N   1      35.302  13.129  16.026  0.00  0.00     0.030 A 
BRANCH  13  16
HETATM   16  C   UNK N   1      35.549  10.439  18.597  0.00  0.00    -0.023 A 
HETATM   17  C   UNK N   1      34.378   9.721  18.747  0.00  0.00     0.049 A 
HETATM   18  C   UNK N   1      34.134   8.969  19.863  0.00  0.00     0.069 A 
HETATM   19  C   UNK N   1      35.093   8.920  20.890  0.00  0.00     0.037 A 
HETATM   20  C   UNK N   1      36.291   9.646  20.758  0.00  0.00     0.004 A 
HETATM   21  C   UNK N   1      36.522  10.408  19.606  0.00  0.00     0.012 A 
BRANCH  18  22
HETATM   22  O   UNK N   1      32.963   8.311  19.893  0.00  0.00    -0.351 OA
BRANCH  22  23
HETATM   23  C   UNK N   1      31.847   8.701  20.572  0.00  0.00     0.171 C 
HETATM   24  C   UNK N   1      30.700   7.858  20.060  0.00  0.00     0.034 C 
ENDBRANCH  22  23
ENDBRANCH  18  22
ENDBRANCH  13  16
ENDBRANCH   7  10
ENDBRANCH   1   6
BRANCH   4  25
HETATM   25  O   UNK N   1      33.712  14.900  11.393  0.00  0.00    -0.364 OA
HETATM   26  H   UNK N   1      33.083  14.205  11.381  0.00  0.00     0.217 HD
ENDBRANCH   4  25
TORSDOF 6
ENDMDL
MODEL 4
REMARK VINA RESULT:      -6.7     12.244     16.301
REMARK  6 active torsions:
REMARK  status: ('A' for Active; 'I' for Inactive)
REMARK    1  A    between atoms: C_2  and  O_3 
REMARK    2  A    between atoms: O_3  and  C_4 
REMARK    3  A    between atoms: C_9  and  C_10 
REMARK    4  A    between atoms: C_15  and  N_16 
REMARK       I    between atoms: N_16  and  C_17 
REMARK    5  A    between atoms: C_17  and  C_19 
REMARK    6  A    between atoms: C_22  and  O_24 
ROOT
HETATM    1  C   UNK N   1      21.959  18.870   3.457  0.00  0.00     0.141 C 
HETATM    2  C   UNK N   1      21.812  20.204   2.923  0.00  0.00     0.107 C 
HETATM    3  N   UNK N   1      21.737  21.287   2.523  0.00  0.00    -0.191 NA
HETATM    4  C   UNK N   1      21.109  17.866   3.107  0.00  0.00     0.065 C 
HETATM    5  C   UNK N   1      19.990  18.104   2.152  0.00  0.00     0.077 C 
ENDROOT
BRANCH   1   6
HETATM    6  C   UNK N   1      23.070  18.664   4.397  0.00  0.00     0.269 C 
HETATM    7  N   UNK N   1      24.331  18.941   4.006  0.00  0.00    -0.322 N 
HETATM    8  H   UNK N   1      24.455  19.283   3.091  0.00  0.00     0.169 HD
HETATM    9  O   UNK N   1      22.840  18.239   5.522  0.00  0.00    -0.266 OA
BRANCH   7  10
HETATM   10  C   UNK N   1      25.479  18.785   4.793  0.00  0.00     0.035 A 
HETATM   11  C   UNK N   1      25.962  17.501   4.980  0.00  0.00     0.030 A 
HETATM   12  C   UNK N   1      27.081  17.307   5.758  0.00  0.00     0.014 A 
HETATM   13  C   UNK N   1      27.728  18.400   6.360  0.00  0.00    -0.026 A 
HETATM   14  C   UNK N   1      27.245  19.691   6.171  0.00  0.00     0.014 A 
HETATM   15  C   UNK N   1      26.121  19.882   5.388  0.00  0.00     0.030 A 
BRANCH  13  16
HETATM   16  C   UNK N   1      28.909  18.156   7.166  0.00  0.00    -0.023 A 
HETATM   17  C   UNK N   1      29.865  17.309   6.640  0.00  0.00     0.049 A 
HETATM   18  C   UNK N   1      31.022  17.024   7.312  0.00  0.00     0.069 A 
HETATM   19  C   UNK N   1      31.251  17.602   8.574  0.00  0.00     0.037 A 
HETATM   20  C   UNK N   1      30.289  18.465   9.129  0.00  0.00     0.004 A 
HETATM   21  C   UNK N   1      29.112  18.746   8.422  0.00  0.00     0.012 A 
BRANCH  18  22
HETATM   22  O   UNK N   1      31.878  16.192   6.697  0.00  0.00    -0.351 OA
BRANCH  22  23
HETATM   23  C   UNK N   1      32.388  16.357   5.444  0.00  0.00     0.171 C 
HETATM   24  C   UNK N   1      33.454  17.426   5.538  0.00  0.00     0.034 C 
ENDBRANCH  22  23
ENDBRANCH  18  22
ENDBRANCH  13  16
ENDBRANCH   7  10
ENDBRANCH   1   6
BRANCH   4  25
HETATM   25  O   UNK N   1      21.248  16.621   3.613  0.00  0.00    -0.364 OA
HETATM   26  H   UNK N   1      20.930  15.882   3.133  0.00  0.00     0.217 HD
ENDBRANCH   4  25
TORSDOF 6
ENDMDL
MODEL 5
REMARK VINA RESULT:      -6.7      9.391     13.463
REMARK  6 active torsions:
REMARK  status: ('A' for Active; 'I' for Inactive)
REMARK    1  A    between atoms: C_2  and  O_3 
REMARK    2  A    between atoms: O_3  and  C_4 
REMARK    3  A    between atoms: C_9  and  C_10 
REMARK    4  A    between atoms: C_15  and  N_16 
REMARK       I    between atoms: N_16  and  C_17 
REMARK    5  A    between atoms: C_17  and  C_19 
REMARK    6  A    between atoms: C_22  and  O_24 
ROOT
HETATM    1  C   UNK N   1      25.284  19.216   4.251  0.00  0.00     0.141 C 
HETATM    2  C   UNK N   1      25.182  20.116   3.126  0.00  0.00     0.107 C 
HETATM    3  N   UNK N   1      25.150  20.850   2.233  0.00  0.00    -0.191 NA
HETATM    4  C   UNK N   1      24.233  18.445   4.644  0.00  0.00     0.065 C 
HETATM    5  C   UNK N   1      22.929  18.499   3.923  0.00  0.00     0.077 C 
ENDROOT
BRANCH   1   6
HETATM    6  C   UNK N   1      26.581  19.184   4.943  0.00  0.00     0.269 C 
HETATM    7  N   UNK N   1      27.087  18.002   5.351  0.00  0.00    -0.322 N 
HETATM    8  H   UNK N   1      26.559  17.194   5.158  0.00  0.00     0.169 HD
HETATM    9  O   UNK N   1      27.184  20.231   5.147  0.00  0.00    -0.266 OA
BRANCH   7  10
HETATM   10  C   UNK N   1      28.302  17.828   6.025  0.00  0.00     0.035 A 
HETATM   11  C   UNK N   1      29.401  17.433   5.281  0.00  0.00     0.030 A 
HETATM   12  C   UNK N   1      30.609  17.240   5.912  0.00  0.00     0.014 A 
HETATM   13  C   UNK N   1      30.729  17.438   7.298  0.00  0.00    -0.026 A 
HETATM   14  C   UNK N   1      29.626  17.837   8.047  0.00  0.00     0.014 A 
HETATM   15  C   UNK N   1      28.415  18.031   7.409  0.00  0.00     0.030 A 
BRANCH  13  16
HETATM   16  C   UNK N   1      32.021  17.232   7.925  0.00  0.00    -0.023 A 
HETATM   17  C   UNK N   1      32.191  16.064   8.643  0.00  0.00     0.049 A 
HETATM   18  C   UNK N   1      33.374  15.766   9.262  0.00  0.00     0.069 A 
HETATM   19  C   UNK N   1      34.450  16.667   9.172  0.00  0.00     0.037 A 
HETATM   20  C   UNK N   1      34.296  17.863   8.448  0.00  0.00     0.004 A 
HETATM   21  C   UNK N   1      33.077  18.148   7.820  0.00  0.00     0.012 A 
BRANCH  18  22
HETATM   22  O   UNK N   1      33.421  14.599   9.926  0.00  0.00    -0.351 OA
BRANCH  22  23
HETATM   23  C   UNK N   1      34.534  13.835  10.116  0.00  0.00     0.171 C 
HETATM   24  C   UNK N   1      34.900  13.944  11.580  0.00  0.00     0.034 C 
ENDBRANCH  22  23
ENDBRANCH  18  22
ENDBRANCH  13  16
ENDBRANCH   7  10
ENDBRANCH   1   6
BRANCH   4  25
HETATM   25  O   UNK N   1      24.332  17.608   5.700  0.00  0.00    -0.364 OA
HETATM   26  H   UNK N   1      24.724  17.904   6.497  0.00  0.00     0.217 HD
ENDBRANCH   4  25
TORSDOF 6
ENDMDL
MODEL 6
REMARK VINA RESULT:      -6.6      5.632     11.638
REMARK  6 active torsions:
REMARK  status: ('A' for Active; 'I' for Inactive)
REMARK    1  A    between atoms: C_2  and  O_3 
REMARK    2  A    between atoms: O_3  and  C_4 
REMARK    3  A    between atoms: C_9  and  C_10 
REMARK    4  A    between atoms: C_15  and  N_16 
REMARK       I    between atoms: N_16  and  C_17 
REMARK    5  A    between atoms: C_17  and  C_19 
REMARK    6  A    between atoms: C_22  and  O_24 
ROOT
HETATM    1  C   UNK N   1      35.273  13.111  13.077  0.00  0.00     0.141 C 
HETATM    2  C   UNK N   1      34.620  11.905  13.529  0.00  0.00     0.107 C 
HETATM    3  N   UNK N   1      34.073  10.935  13.843  0.00  0.00    -0.191 NA
HETATM    4  C   UNK N   1      36.121  13.806  13.884  0.00  0.00     0.065 C 
HETATM    5  C   UNK N   1      36.411  13.346  15.272  0.00  0.00     0.077 C 
ENDROOT
BRANCH   1   6
HETATM    6  C   UNK N   1      34.968  13.542  11.705  0.00  0.00     0.269 C 
HETATM    7  N   UNK N   1      34.323  14.709  11.503  0.00  0.00    -0.322 N 
HETATM    8  H   UNK N   1      34.084  15.236  12.300  0.00  0.00     0.169 HD
HETATM    9  O   UNK N   1      35.299  12.834  10.761  0.00  0.00    -0.266 OA
BRANCH   7  10
HETATM   10  C   UNK N   1      33.965  15.234  10.255  0.00  0.00     0.035 A 
HETATM   11  C   UNK N   1      32.753  14.840   9.715  0.00  0.00     0.030 A 
HETATM   12  C   UNK N   1      32.373  15.326   8.484  0.00  0.00     0.014 A 
HETATM   13  C   UNK N   1      33.206  16.211   7.779  0.00  0.00    -0.026 A 
HETATM   14  C   UNK N   1      34.424  16.609   8.322  0.00  0.00     0.014 A 
HETATM   15  C   UNK N   1      34.801  16.120   9.559  0.00  0.00     0.030 A 
BRANCH  13  16
HETATM   16  C   UNK N   1      32.768  16.708   6.488  0.00  0.00    -0.023 A 
HETATM   17  C   UNK N   1      31.406  16.741   6.257  0.00  0.00     0.049 A 
HETATM   18  C   UNK N   1      30.887  17.204   5.079  0.00  0.00     0.069 A 
HETATM   19  C   UNK N   1      31.755  17.659   4.070  0.00  0.00     0.037 A 
HETATM   20  C   UNK N   1      33.145  17.631   4.285  0.00  0.00     0.004 A 
HETATM   21  C   UNK N   1      33.655  17.155   5.499  0.00  0.00     0.012 A 
BRANCH  18  22
HETATM   22  O   UNK N   1      29.548  17.192   4.974  0.00  0.00    -0.351 OA
BRANCH  22  23
HETATM   23  C   UNK N   1      28.722  18.252   5.198  0.00  0.00     0.171 C 
HETATM   24  C   UNK N   1      27.490  18.041   4.348  0.00  0.00     0.034 C 
ENDBRANCH  22  23
ENDBRANCH  18  22
ENDBRANCH  13  16
ENDBRANCH   7  10
ENDBRANCH   1   6
BRANCH   4  25
HETATM   25  O   UNK N   1      36.727  14.937  13.459  0.00  0.00    -0.364 OA
HETATM   26  H   UNK N   1      36.250  15.742  13.433  0.00  0.00     0.217 HD
ENDBRANCH   4  25
TORSDOF 6
ENDMDL
MODEL 7
REMARK VINA RESULT:      -6.5     10.636     15.005
REMARK  6 active torsions:
REMARK  status: ('A' for Active; 'I' for Inactive)
REMARK    1  A    between atoms: C_2  and  O_3 
REMARK    2  A    between atoms: O_3  and  C_4 
REMARK    3  A    between atoms: C_9  and  C_10 
REMARK    4  A    between atoms: C_15  and  N_16 
REMARK       I    between atoms: N_16  and  C_17 
REMARK    5  A    between atoms: C_17  and  C_19 
REMARK    6  A    between atoms: C_22  and  O_24 
ROOT
HETATM    1  C   UNK N   1      24.088  19.360   4.033  0.00  0.00     0.141 C 
HETATM    2  C   UNK N   1      23.217  18.477   4.773  0.00  0.00     0.107 C 
HETATM    3  N   UNK N   1      22.561  17.753   5.393  0.00  0.00    -0.191 NA
HETATM    4  C   UNK N   1      23.605  20.201   3.079  0.00  0.00     0.065 C 
HETATM    5  C   UNK N   1      22.150  20.246   2.759  0.00  0.00     0.077 C 
ENDROOT
BRANCH   1   6
HETATM    6  C   UNK N   1      25.518  19.294   4.369  0.00  0.00     0.269 C 
HETATM    7  N   UNK N   1      26.055  18.121   4.759  0.00  0.00    -0.322 N 
HETATM    8  H   UNK N   1      25.456  17.341   4.798  0.00  0.00     0.169 HD
HETATM    9  O   UNK N   1      26.204  20.306   4.295  0.00  0.00    -0.266 OA
BRANCH   7  10
HETATM   10  C   UNK N   1      27.395  17.918   5.113  0.00  0.00     0.035 A 
HETATM   11  C   UNK N   1      28.272  17.524   4.118  0.00  0.00     0.030 A 
HETATM   12  C   UNK N   1      29.594  17.302   4.431  0.00  0.00     0.014 A 
HETATM   13  C   UNK N   1      30.052  17.472   5.749  0.00  0.00    -0.026 A 
HETATM   14  C   UNK N   1      29.172  17.871   6.751  0.00  0.00     0.014 A 
HETATM   15  C   UNK N   1      27.845  18.093   6.431  0.00  0.00     0.030 A 
BRANCH  13  16
HETATM   16  C   UNK N   1      31.454  17.238   6.039  0.00  0.00    -0.023 A 
HETATM   17  C   UNK N   1      31.798  17.041   7.362  0.00  0.00     0.049 A 
HETATM   18  C   UNK N   1      33.089  16.799   7.742  0.00  0.00     0.069 A 
HETATM   19  C   UNK N   1      34.101  16.748   6.766  0.00  0.00     0.037 A 
HETATM   20  C   UNK N   1      33.773  16.949   5.413  0.00  0.00     0.004 A 
HETATM   21  C   UNK N   1      32.443  17.194   5.046  0.00  0.00     0.012 A 
BRANCH  18  22
HETATM   22  O   UNK N   1      33.299  16.618   9.057  0.00  0.00    -0.351 OA
BRANCH  22  23
HETATM   23  C   UNK N   1      34.223  15.782   9.608  0.00  0.00     0.171 C 
HETATM   24  C   UNK N   1      35.212  16.648  10.357  0.00  0.00     0.034 C 
ENDBRANCH  22  23
ENDBRANCH  18  22
ENDBRANCH  13  16
ENDBRANCH   7  10
ENDBRANCH   1   6
BRANCH   4  25
HETATM   25  O   UNK N   1      24.425  21.022   2.386  0.00  0.00    -0.364 OA
HETATM   26  H   UNK N   1      25.245  21.285   2.754  0.00  0.00     0.217 HD
ENDBRANCH   4  25
TORSDOF 6
ENDMDL
MODEL 8
REMARK VINA RESULT:      -6.5      8.284     13.267
REMARK  6 active torsions:
REMARK  status: ('A' for Active; 'I' for Inactive)
REMARK    1  A    between atoms: C_2  and  O_3 
REMARK    2  A    between atoms: O_3  and  C_4 
REMARK    3  A    between atoms: C_9  and  C_10 
REMARK    4  A    between atoms: C_15  and  N_16 
REMARK       I    between atoms: N_16  and  C_17 
REMARK    5  A    between atoms: C_17  and  C_19 
REMARK    6  A    between atoms: C_22  and  O_24 
ROOT
HETATM    1  C   UNK N   1      34.181  15.336   9.903  0.00  0.00     0.141 C 
HETATM    2  C   UNK N   1      35.038  16.455  10.215  0.00  0.00     0.107 C 
HETATM    3  N   UNK N   1      35.688  17.384  10.445  0.00  0.00    -0.191 NA
HETATM    4  C   UNK N   1      34.545  14.057  10.195  0.00  0.00     0.065 C 
HETATM    5  C   UNK N   1      35.849  13.761  10.853  0.00  0.00     0.077 C 
ENDROOT
BRANCH   1   6
HETATM    6  C   UNK N   1      32.901  15.657   9.253  0.00  0.00     0.269 C 
HETATM    7  N   UNK N   1      32.620  16.937   8.936  0.00  0.00    -0.322 N 
HETATM    8  H   UNK N   1      33.300  17.615   9.152  0.00  0.00     0.169 HD
HETATM    9  O   UNK N   1      32.103  14.759   9.012  0.00  0.00    -0.266 OA
BRANCH   7  10
HETATM   10  C   UNK N   1      31.442  17.383   8.325  0.00  0.00     0.035 A 
HETATM   11  C   UNK N   1      31.247  17.064   6.992  0.00  0.00     0.030 A 
HETATM   12  C   UNK N   1      30.107  17.496   6.353  0.00  0.00     0.014 A 
HETATM   13  C   UNK N   1      29.148  18.256   7.045  0.00  0.00    -0.026 A 
HETATM   14  C   UNK N   1      29.341  18.576   8.385  0.00  0.00     0.014 A 
HETATM   15  C   UNK N   1      30.488  18.139   9.023  0.00  0.00     0.030 A 
BRANCH  13  16
HETATM   16  C   UNK N   1      27.955  18.687   6.340  0.00  0.00    -0.023 A 
HETATM   17  C   UNK N   1      27.270  17.727   5.621  0.00  0.00     0.049 A 
HETATM   18  C   UNK N   1      26.126  18.025   4.932  0.00  0.00     0.069 A 
HETATM   19  C   UNK N   1      25.628  19.340   4.950  0.00  0.00     0.037 A 
HETATM   20  C   UNK N   1      26.313  20.332   5.675  0.00  0.00     0.004 A 
HETATM   21  C   UNK N   1      27.481  20.006   6.375  0.00  0.00     0.012 A 
BRANCH  18  22
HETATM   22  O   UNK N   1      25.546  17.007   4.275  0.00  0.00    -0.351 OA
BRANCH  22  23
HETATM   23  C   UNK N   1      26.174  15.881   3.834  0.00  0.00     0.171 C 
HETATM   24  C   UNK N   1      26.018  15.846   2.330  0.00  0.00     0.034 C 
ENDBRANCH  22  23
ENDBRANCH  18  22
ENDBRANCH  13  16
ENDBRANCH   7  10
ENDBRANCH   1   6
BRANCH   4  25
HETATM   25  O   UNK N   1      33.742  13.013   9.896  0.00  0.00    -0.364 OA
HETATM   26  H   UNK N   1      34.040  12.136  10.039  0.00  0.00     0.217 HD
ENDBRANCH   4  25
TORSDOF 6
ENDMDL
MODEL 9
REMARK VINA RESULT:      -6.4      9.548     14.425
REMARK  6 active torsions:
REMARK  status: ('A' for Active; 'I' for Inactive)
REMARK    1  A    between atoms: C_2  and  O_3 
REMARK    2  A    between atoms: O_3  and  C_4 
REMARK    3  A    between atoms: C_9  and  C_10 
REMARK    4  A    between atoms: C_15  and  N_16 
REMARK       I    between atoms: N_16  and  C_17 
REMARK    5  A    between atoms: C_17  and  C_19 
REMARK    6  A    between atoms: C_22  and  O_24 
ROOT
HETATM    1  C   UNK N   1      33.742  16.099   8.927  0.00  0.00     0.141 C 
HETATM    2  C   UNK N   1      33.502  14.680   9.052  0.00  0.00     0.107 C 
HETATM    3  N   UNK N   1      33.267  13.550   9.123  0.00  0.00    -0.191 NA
HETATM    4  C   UNK N   1      34.828  16.690   9.494  0.00  0.00     0.065 C 
HETATM    5  C   UNK N   1      35.821  15.892  10.268  0.00  0.00     0.077 C 
ENDROOT
BRANCH   1   6
HETATM    6  C   UNK N   1      32.747  16.862   8.158  0.00  0.00     0.269 C 
HETATM    7  N   UNK N   1      31.556  16.298   7.870  0.00  0.00    -0.322 N 
HETATM    8  H   UNK N   1      31.398  15.383   8.198  0.00  0.00     0.169 HD
HETATM    9  O   UNK N   1      33.012  17.997   7.784  0.00  0.00    -0.266 OA
BRANCH   7  10
HETATM   10  C   UNK N   1      30.525  16.905   7.142  0.00  0.00     0.035 A 
HETATM   11  C   UNK N   1      30.572  16.819   5.761  0.00  0.00     0.030 A 
HETATM   12  C   UNK N   1      29.583  17.415   5.013  0.00  0.00     0.014 A 
HETATM   13  C   UNK N   1      28.534  18.107   5.641  0.00  0.00    -0.026 A 
HETATM   14  C   UNK N   1      28.483  18.193   7.029  0.00  0.00     0.014 A 
HETATM   15  C   UNK N   1      29.478  17.592   7.777  0.00  0.00     0.030 A 
BRANCH  13  16
HETATM   16  C   UNK N   1      27.504  18.715   4.819  0.00  0.00    -0.023 A 
HETATM   17  C   UNK N   1      26.328  18.008   4.660  0.00  0.00     0.049 A 
HETATM   18  C   UNK N   1      25.290  18.497   3.916  0.00  0.00     0.069 A 
HETATM   19  C   UNK N   1      25.414  19.751   3.292  0.00  0.00     0.037 A 
HETATM   20  C   UNK N   1      26.605  20.485   3.438  0.00  0.00     0.004 A 
HETATM   21  C   UNK N   1      27.655  19.967   4.206  0.00  0.00     0.012 A 
BRANCH  18  22
HETATM   22  O   UNK N   1      24.195  17.721   3.839  0.00  0.00    -0.351 OA
BRANCH  22  23
HETATM   23  C   UNK N   1      22.909  18.141   4.001  0.00  0.00     0.171 C 
HETATM   24  C   UNK N   1      22.592  18.039   5.476  0.00  0.00     0.034 C 
ENDBRANCH  22  23
ENDBRANCH  18  22
ENDBRANCH  13  16
ENDBRANCH   7  10
ENDBRANCH   1   6
BRANCH   4  25
HETATM   25  O   UNK N   1      35.046  18.019   9.378  0.00  0.00    -0.364 OA
HETATM   26  H   UNK N   1      34.375  18.626   9.619  0.00  0.00     0.217 HD
ENDBRANCH   4  25
TORSDOF 6
ENDMDL
