MODEL 1
REMARK VINA RESULT:      -6.8      0.000      0.000
REMARK  3 active torsions:
REMARK  status: ('A' for Active; 'I' for Inactive)
REMARK       I    between atoms: C_4  and  N_17 
REMARK    1  A    between atoms: C_7  and  C_9 
REMARK    2  A    between atoms: N_17  and  C_18 
REMARK    3  A    between atoms: C_21  and  N_24 
ROOT
HETATM    1  C   UNK N   1      22.356  20.258   2.720  0.00  0.00     0.108 A 
HETATM    2  N   UNK N   1      23.674  20.603   2.739  0.00  0.00    -0.202 N 
ATOM      3  HN  UNK N   1      24.020  21.318   2.099  1.00  0.00     0.183 HD
HETATM    4  C   UNK N   1      24.531  20.000   3.607  0.00  0.00     0.683 A 
HETATM    5  N   UNK N   1      24.068  19.028   4.434  0.00  0.00    -0.190 N 
ATOM      6  HN  UNK N   1      24.725  18.561   5.059  1.00  0.00     0.184 HD
HETATM    7  C   UNK N   1      22.770  18.655   4.461  0.00  0.00     0.069 A 
HETATM    8  C   UNK N   1      21.869  19.282   3.596  0.00  0.00     0.049 A 
HETATM    9  N   UNK N   1      25.908  20.354   3.628  0.00  0.00    -0.192 N 
HETATM   10  H   UNK N   1      26.261  20.955   2.933  0.00  0.00     0.184 HD
ENDROOT
BRANCH   9  11
HETATM   11  C   UNK N   1      26.790  19.859   4.634  0.00  0.00     0.049 A 
HETATM   12  C   UNK N   1      27.428  18.629   4.457  0.00  0.00     0.032 A 
HETATM   13  C   UNK N   1      28.158  18.061   5.510  0.00  0.00     0.031 A 
HETATM   14  C   UNK N   1      28.261  18.723   6.749  0.00  0.00     0.029 A 
HETATM   15  C   UNK N   1      27.674  19.985   6.893  0.00  0.00     0.031 A 
HETATM   16  C   UNK N   1      26.948  20.544   5.847  0.00  0.00     0.032 A 
BRANCH  14  17
HETATM   17  N   UNK N   1      28.909  18.106   7.861  0.00  0.00    -0.390 N 
HETATM   18  C   UNK N   1      30.211  17.508   7.717  0.00  0.00     0.149 C 
HETATM   19  C   UNK N   1      28.226  17.960   9.124  0.00  0.00     0.149 C 
ENDBRANCH  14  17
ENDBRANCH   9  11
BRANCH   7  20
HETATM   20  C   UNK N   1      22.332  17.641   5.444  0.00  0.00     0.056 A 
HETATM   21  C   UNK N   1      22.877  16.353   5.663  0.00  0.00     0.025 A 
HETATM   22  N   UNK N   1      22.292  15.640   6.686  0.00  0.00    -0.357 N 
HETATM   23  C   UNK N   1      23.986  15.763   4.867  0.00  0.00     0.070 C 
HETATM   24  C   UNK N   1      21.292  16.331   7.287  0.00  0.00     0.048 A 
ATOM     25  HN  UNK N   1      22.579  14.701   6.962  1.00  0.00     0.166 HD
HETATM   26  S   UNK N   1      21.119  17.806   6.559  0.00  0.00    -0.073 SA
HETATM   27  C   UNK N   1      20.503  15.823   8.437  0.00  0.00     0.076 C 
ENDBRANCH   7  20
TORSDOF 3
ENDMDL
MODEL 2
REMARK VINA RESULT:      -6.6     11.516     14.186
REMARK  3 active torsions:
REMARK  status: ('A' for Active; 'I' for Inactive)
REMARK       I    between atoms: C_4  and  N_17 
REMARK    1  A    between atoms: C_7  and  C_9 
REMARK    2  A    between atoms: N_17  and  C_18 
REMARK    3  A    between atoms: C_21  and  N_24 
ROOT
HETATM    1  C   UNK N   1      26.523  22.417  -8.090  0.00  0.00     0.108 A 
HETATM    2  N   UNK N   1      25.953  23.645  -8.242  0.00  0.00    -0.202 N 
ATOM      3  HN  UNK N   1      25.269  23.798  -8.983  1.00  0.00     0.183 HD
HETATM    4  C   UNK N   1      26.292  24.668  -7.412  0.00  0.00     0.683 A 
HETATM    5  N   UNK N   1      27.226  24.464  -6.449  0.00  0.00    -0.190 N 
ATOM      6  HN  UNK N   1      27.495  25.247  -5.852  1.00  0.00     0.184 HD
HETATM    7  C   UNK N   1      27.814  23.265  -6.250  0.00  0.00     0.069 A 
HETATM    8  C   UNK N   1      27.461  22.195  -7.075  0.00  0.00     0.049 A 
HETATM    9  N   UNK N   1      25.702  25.953  -7.570  0.00  0.00    -0.192 N 
HETATM   10  H   UNK N   1      25.135  26.129  -8.354  0.00  0.00     0.184 HD
ENDROOT
BRANCH   9  11
HETATM   11  C   UNK N   1      25.914  26.993  -6.616  0.00  0.00     0.049 A 
HETATM   12  C   UNK N   1      27.028  27.828  -6.732  0.00  0.00     0.032 A 
HETATM   13  C   UNK N   1      27.332  28.736  -5.708  0.00  0.00     0.031 A 
HETATM   14  C   UNK N   1      26.519  28.820  -4.561  0.00  0.00     0.029 A 
HETATM   15  C   UNK N   1      25.369  28.026  -4.487  0.00  0.00     0.031 A 
HETATM   16  C   UNK N   1      25.072  27.124  -5.502  0.00  0.00     0.032 A 
BRANCH  14  17
HETATM   17  N   UNK N   1      26.878  29.662  -3.466  0.00  0.00    -0.390 N 
HETATM   18  C   UNK N   1      26.474  31.044  -3.435  0.00  0.00     0.149 C 
HETATM   19  C   UNK N   1      27.753  29.183  -2.424  0.00  0.00     0.149 C 
ENDBRANCH  14  17
ENDBRANCH   9  11
BRANCH   7  20
HETATM   20  C   UNK N   1      28.768  23.106  -5.131  0.00  0.00     0.056 A 
HETATM   21  C   UNK N   1      28.614  23.538  -3.791  0.00  0.00     0.025 A 
HETATM   22  N   UNK N   1      29.653  23.206  -2.951  0.00  0.00    -0.357 N 
HETATM   23  C   UNK N   1      27.446  24.306  -3.285  0.00  0.00     0.070 C 
HETATM   24  C   UNK N   1      30.632  22.521  -3.591  0.00  0.00     0.048 A 
ATOM     25  HN  UNK N   1      29.683  23.447  -1.960  1.00  0.00     0.166 HD
HETATM   26  S   UNK N   1      30.230  22.331  -5.184  0.00  0.00    -0.073 SA
HETATM   27  C   UNK N   1      31.861  22.012  -2.929  0.00  0.00     0.076 C 
ENDBRANCH   7  20
TORSDOF 3
ENDMDL
MODEL 3
REMARK VINA RESULT:      -6.4      4.277      7.543
REMARK  3 active torsions:
REMARK  status: ('A' for Active; 'I' for Inactive)
REMARK       I    between atoms: C_4  and  N_17 
REMARK    1  A    between atoms: C_7  and  C_9 
REMARK    2  A    between atoms: N_17  and  C_18 
REMARK    3  A    between atoms: C_21  and  N_24 
ROOT
HETATM    1  C   UNK N   1      28.917  18.350   9.736  0.00  0.00     0.108 A 
HETATM    2  N   UNK N   1      30.239  18.026   9.796  0.00  0.00    -0.202 N 
ATOM      3  HN  UNK N   1      30.743  18.118  10.678  1.00  0.00     0.183 HD
HETATM    4  C   UNK N   1      30.890  17.580   8.688  0.00  0.00     0.683 A 
HETATM    5  N   UNK N   1      30.218  17.489   7.511  0.00  0.00    -0.190 N 
ATOM      6  HN  UNK N   1      30.724  17.183   6.680  1.00  0.00     0.184 HD
HETATM    7  C   UNK N   1      28.906  17.789   7.399  0.00  0.00     0.069 A 
HETATM    8  C   UNK N   1      28.214  18.223   8.532  0.00  0.00     0.049 A 
HETATM    9  N   UNK N   1      32.271  17.244   8.745  0.00  0.00    -0.192 N 
HETATM   10  H   UNK N   1      32.781  17.445   9.562  0.00  0.00     0.184 HD
ENDROOT
BRANCH   9  11
HETATM   11  C   UNK N   1      32.933  16.622   7.646  0.00  0.00     0.049 A 
HETATM   12  C   UNK N   1      33.420  17.401   6.594  0.00  0.00     0.032 A 
HETATM   13  C   UNK N   1      33.917  16.784   5.437  0.00  0.00     0.031 A 
HETATM   14  C   UNK N   1      33.937  15.380   5.326  0.00  0.00     0.029 A 
HETATM   15  C   UNK N   1      33.509  14.609   6.413  0.00  0.00     0.031 A 
HETATM   16  C   UNK N   1      33.013  15.224   7.557  0.00  0.00     0.032 A 
BRANCH  14  17
HETATM   17  N   UNK N   1      34.339  14.744   4.114  0.00  0.00    -0.390 N 
HETATM   18  C   UNK N   1      33.748  15.116   2.854  0.00  0.00     0.149 C 
HETATM   19  C   UNK N   1      35.257  13.631   4.135  0.00  0.00     0.149 C 
ENDBRANCH  14  17
ENDBRANCH   9  11
BRANCH   7  20
HETATM   20  C   UNK N   1      28.231  17.593   6.099  0.00  0.00     0.056 A 
HETATM   21  C   UNK N   1      27.781  18.586   5.195  0.00  0.00     0.025 A 
HETATM   22  N   UNK N   1      27.227  18.104   4.030  0.00  0.00    -0.357 N 
HETATM   23  C   UNK N   1      27.864  20.050   5.446  0.00  0.00     0.070 C 
HETATM   24  C   UNK N   1      27.224  16.750   3.985  0.00  0.00     0.048 A 
ATOM     25  HN  UNK N   1      26.862  18.698   3.286  1.00  0.00     0.166 HD
HETATM   26  S   UNK N   1      27.889  16.144   5.373  0.00  0.00    -0.073 SA
HETATM   27  C   UNK N   1      26.714  15.956   2.838  0.00  0.00     0.076 C 
ENDBRANCH   7  20
TORSDOF 3
ENDMDL
MODEL 4
REMARK VINA RESULT:      -6.4      1.980      6.196
REMARK  3 active torsions:
REMARK  status: ('A' for Active; 'I' for Inactive)
REMARK       I    between atoms: C_4  and  N_17 
REMARK    1  A    between atoms: C_7  and  C_9 
REMARK    2  A    between atoms: N_17  and  C_18 
REMARK    3  A    between atoms: C_21  and  N_24 
ROOT
HETATM    1  C   UNK N   1      26.101  20.403   3.097  0.00  0.00     0.108 A 
HETATM    2  N   UNK N   1      24.810  19.974   3.180  0.00  0.00    -0.202 N 
ATOM      3  HN  UNK N   1      24.138  20.250   2.465  1.00  0.00     0.183 HD
HETATM    4  C   UNK N   1      24.413  19.181   4.212  0.00  0.00     0.683 A 
HETATM    5  N   UNK N   1      25.307  18.844   5.177  0.00  0.00    -0.190 N 
ATOM      6  HN  UNK N   1      24.991  18.275   5.962  1.00  0.00     0.184 HD
HETATM    7  C   UNK N   1      26.600  19.235   5.137  0.00  0.00     0.069 A 
HETATM    8  C   UNK N   1      27.033  20.028   4.071  0.00  0.00     0.049 A 
HETATM    9  N   UNK N   1      23.066  18.734   4.305  0.00  0.00    -0.192 N 
HETATM   10  H   UNK N   1      22.395  19.096   3.682  0.00  0.00     0.184 HD
ENDROOT
BRANCH   9  11
HETATM   11  C   UNK N   1      22.664  17.774   5.280  0.00  0.00     0.049 A 
HETATM   12  C   UNK N   1      23.231  16.496   5.274  0.00  0.00     0.032 A 
HETATM   13  C   UNK N   1      22.719  15.500   6.118  0.00  0.00     0.031 A 
HETATM   14  C   UNK N   1      21.639  15.777   6.980  0.00  0.00     0.029 A 
HETATM   15  C   UNK N   1      21.125  17.077   7.025  0.00  0.00     0.031 A 
HETATM   16  C   UNK N   1      21.632  18.062   6.184  0.00  0.00     0.032 A 
BRANCH  14  17
HETATM   17  N   UNK N   1      21.041  14.744   7.763  0.00  0.00    -0.390 N 
HETATM   18  C   UNK N   1      20.519  15.023   9.076  0.00  0.00     0.149 C 
HETATM   19  C   UNK N   1      21.053  13.375   7.310  0.00  0.00     0.149 C 
ENDBRANCH  14  17
ENDBRANCH   9  11
BRANCH   7  20
HETATM   20  C   UNK N   1      27.527  18.764   6.187  0.00  0.00     0.056 A 
HETATM   21  C   UNK N   1      28.322  17.592   6.183  0.00  0.00     0.025 A 
HETATM   22  N   UNK N   1      29.133  17.436   7.285  0.00  0.00    -0.357 N 
HETATM   23  C   UNK N   1      28.306  16.570   5.102  0.00  0.00     0.070 C 
HETATM   24  C   UNK N   1      29.002  18.456   8.168  0.00  0.00     0.048 A 
ATOM     25  HN  UNK N   1      29.761  16.643   7.421  1.00  0.00     0.166 HD
HETATM   26  S   UNK N   1      27.888  19.541   7.605  0.00  0.00    -0.073 SA
HETATM   27  C   UNK N   1      29.773  18.566   9.433  0.00  0.00     0.076 C 
ENDBRANCH   7  20
TORSDOF 3
ENDMDL
MODEL 5
REMARK VINA RESULT:      -6.4      1.926      6.255
REMARK  3 active torsions:
REMARK  status: ('A' for Active; 'I' for Inactive)
REMARK       I    between atoms: C_4  and  N_17 
REMARK    1  A    between atoms: C_7  and  C_9 
REMARK    2  A    between atoms: N_17  and  C_18 
REMARK    3  A    between atoms: C_21  and  N_24 
ROOT
HETATM    1  C   UNK N   1      24.085  20.554   2.745  0.00  0.00     0.108 A 
HETATM    2  N   UNK N   1      22.933  19.907   3.077  0.00  0.00    -0.202 N 
ATOM      3  HN  UNK N   1      22.082  20.078   2.540  1.00  0.00     0.183 HD
HETATM    4  C   UNK N   1      22.909  19.036   4.122  0.00  0.00     0.683 A 
HETATM    5  N   UNK N   1      24.037  18.839   4.852  0.00  0.00    -0.190 N 
ATOM      6  HN  UNK N   1      24.000  18.207   5.652  1.00  0.00     0.184 HD
HETATM    7  C   UNK N   1      25.207  19.447   4.559  0.00  0.00     0.069 A 
HETATM    8  C   UNK N   1      25.258  20.325   3.473  0.00  0.00     0.049 A 
HETATM    9  N   UNK N   1      21.707  18.362   4.476  0.00  0.00    -0.192 N 
HETATM   10  H   UNK N   1      20.865  18.616   4.033  0.00  0.00     0.184 HD
ENDROOT
BRANCH   9  11
HETATM   11  C   UNK N   1      21.694  17.327   5.456  0.00  0.00     0.049 A 
HETATM   12  C   UNK N   1      22.187  16.058   5.138  0.00  0.00     0.032 A 
HETATM   13  C   UNK N   1      22.021  14.996   6.038  0.00  0.00     0.031 A 
HETATM   14  C   UNK N   1      21.365  15.197   7.269  0.00  0.00     0.029 A 
HETATM   15  C   UNK N   1      20.936  16.485   7.605  0.00  0.00     0.031 A 
HETATM   16  C   UNK N   1      21.098  17.535   6.709  0.00  0.00     0.032 A 
BRANCH  14  17
HETATM   17  N   UNK N   1      21.095  14.102   8.144  0.00  0.00    -0.390 N 
HETATM   18  C   UNK N   1      20.621  14.330   9.485  0.00  0.00     0.149 C 
HETATM   19  C   UNK N   1      21.403  12.749   7.750  0.00  0.00     0.149 C 
ENDBRANCH  14  17
ENDBRANCH   9  11
BRANCH   7  20
HETATM   20  C   UNK N   1      26.408  19.122   5.357  0.00  0.00     0.056 A 
HETATM   21  C   UNK N   1      27.063  19.936   6.312  0.00  0.00     0.025 A 
HETATM   22  N   UNK N   1      28.137  19.347   6.940  0.00  0.00    -0.357 N 
HETATM   23  C   UNK N   1      26.668  21.333   6.637  0.00  0.00     0.070 C 
HETATM   24  C   UNK N   1      28.354  18.082   6.506  0.00  0.00     0.048 A 
ATOM     25  HN  UNK N   1      28.704  19.809   7.651  1.00  0.00     0.166 HD
HETATM   26  S   UNK N   1      27.239  17.690   5.349  0.00  0.00    -0.073 SA
HETATM   27  C   UNK N   1      29.427  17.196   7.025  0.00  0.00     0.076 C 
ENDBRANCH   7  20
TORSDOF 3
ENDMDL
MODEL 6
REMARK VINA RESULT:      -6.3      7.635     11.890
REMARK  3 active torsions:
REMARK  status: ('A' for Active; 'I' for Inactive)
REMARK       I    between atoms: C_4  and  N_17 
REMARK    1  A    between atoms: C_7  and  C_9 
REMARK    2  A    between atoms: N_17  and  C_18 
REMARK    3  A    between atoms: C_21  and  N_24 
ROOT
HETATM    1  C   UNK N   1      36.014  15.939  11.315  0.00  0.00     0.108 A 
HETATM    2  N   UNK N   1      35.112  16.857  10.868  0.00  0.00    -0.202 N 
ATOM      3  HN  UNK N   1      34.896  17.675  11.439  1.00  0.00     0.183 HD
HETATM    4  C   UNK N   1      34.497  16.689   9.666  0.00  0.00     0.683 A 
HETATM    5  N   UNK N   1      34.767  15.582   8.927  0.00  0.00    -0.190 N 
ATOM      6  HN  UNK N   1      34.278  15.452   8.042  1.00  0.00     0.184 HD
HETATM    7  C   UNK N   1      35.660  14.648   9.320  0.00  0.00     0.069 A 
HETATM    8  C   UNK N   1      36.321  14.816  10.539  0.00  0.00     0.049 A 
HETATM    9  N   UNK N   1      33.552  17.643   9.197  0.00  0.00    -0.192 N 
HETATM   10  H   UNK N   1      33.258  18.365   9.798  0.00  0.00     0.184 HD
ENDROOT
BRANCH   9  11
HETATM   11  C   UNK N   1      33.019  17.577   7.876  0.00  0.00     0.049 A 
HETATM   12  C   UNK N   1      31.680  17.226   7.681  0.00  0.00     0.032 A 
HETATM   13  C   UNK N   1      31.199  16.995   6.385  0.00  0.00     0.031 A 
HETATM   14  C   UNK N   1      32.053  17.119   5.271  0.00  0.00     0.029 A 
HETATM   15  C   UNK N   1      33.373  17.536   5.473  0.00  0.00     0.031 A 
HETATM   16  C   UNK N   1      33.848  17.761   6.760  0.00  0.00     0.032 A 
BRANCH  14  17
HETATM   17  N   UNK N   1      31.603  16.782   3.959  0.00  0.00    -0.390 N 
HETATM   18  C   UNK N   1      30.201  16.605   3.682  0.00  0.00     0.149 C 
HETATM   19  C   UNK N   1      32.549  16.492   2.908  0.00  0.00     0.149 C 
ENDBRANCH  14  17
ENDBRANCH   9  11
BRANCH   7  20
HETATM   20  C   UNK N   1      35.952  13.509   8.423  0.00  0.00     0.056 A 
HETATM   21  C   UNK N   1      35.209  12.315   8.265  0.00  0.00     0.025 A 
HETATM   22  N   UNK N   1      35.697  11.447   7.314  0.00  0.00    -0.357 N 
HETATM   23  C   UNK N   1      33.994  11.971   9.053  0.00  0.00     0.070 C 
HETATM   24  C   UNK N   1      36.814  11.923   6.711  0.00  0.00     0.048 A 
ATOM     25  HN  UNK N   1      35.267  10.550   7.088  1.00  0.00     0.166 HD
HETATM   26  S   UNK N   1      37.208  13.397   7.349  0.00  0.00    -0.073 SA
HETATM   27  C   UNK N   1      37.541  11.213   5.628  0.00  0.00     0.076 C 
ENDBRANCH   7  20
TORSDOF 3
ENDMDL
MODEL 7
REMARK VINA RESULT:      -6.2      4.576      6.749
REMARK  3 active torsions:
REMARK  status: ('A' for Active; 'I' for Inactive)
REMARK       I    between atoms: C_4  and  N_17 
REMARK    1  A    between atoms: C_7  and  C_9 
REMARK    2  A    between atoms: N_17  and  C_18 
REMARK    3  A    between atoms: C_21  and  N_24 
ROOT
HETATM    1  C   UNK N   1      28.331  15.396   2.516  0.00  0.00     0.108 A 
HETATM    2  N   UNK N   1      29.507  14.806   2.869  0.00  0.00    -0.202 N 
ATOM      3  HN  UNK N   1      29.863  14.020   2.324  1.00  0.00     0.183 HD
HETATM    4  C   UNK N   1      30.209  15.257   3.943  0.00  0.00     0.683 A 
HETATM    5  N   UNK N   1      29.712  16.283   4.681  0.00  0.00    -0.190 N 
ATOM      6  HN  UNK N   1      30.231  16.594   5.503  1.00  0.00     0.184 HD
HETATM    7  C   UNK N   1      28.556  16.909   4.369  0.00  0.00     0.069 A 
HETATM    8  C   UNK N   1      27.834  16.477   3.253  0.00  0.00     0.049 A 
HETATM    9  N   UNK N   1      31.435  14.642   4.318  0.00  0.00    -0.192 N 
HETATM   10  H   UNK N   1      31.715  13.814   3.866  0.00  0.00     0.184 HD
ENDROOT
BRANCH   9  11
HETATM   11  C   UNK N   1      32.268  15.197   5.334  0.00  0.00     0.049 A 
HETATM   12  C   UNK N   1      32.133  14.768   6.657  0.00  0.00     0.032 A 
HETATM   13  C   UNK N   1      32.826  15.429   7.681  0.00  0.00     0.031 A 
HETATM   14  C   UNK N   1      33.666  16.521   7.388  0.00  0.00     0.029 A 
HETATM   15  C   UNK N   1      33.846  16.898   6.053  0.00  0.00     0.031 A 
HETATM   16  C   UNK N   1      33.154  16.243   5.040  0.00  0.00     0.032 A 
BRANCH  14  17
HETATM   17  N   UNK N   1      34.292  17.268   8.431  0.00  0.00    -0.390 N 
HETATM   18  C   UNK N   1      34.649  18.649   8.237  0.00  0.00     0.149 C 
HETATM   19  C   UNK N   1      34.689  16.626   9.661  0.00  0.00     0.149 C 
ENDBRANCH  14  17
ENDBRANCH   9  11
BRANCH   7  20
HETATM   20  C   UNK N   1      28.121  18.066   5.179  0.00  0.00     0.056 A 
HETATM   21  C   UNK N   1      27.840  18.098   6.567  0.00  0.00     0.025 A 
HETATM   22  N   UNK N   1      27.501  19.337   7.063  0.00  0.00    -0.357 N 
HETATM   23  C   UNK N   1      27.879  16.909   7.459  0.00  0.00     0.070 C 
HETATM   24  C   UNK N   1      27.504  20.293   6.103  0.00  0.00     0.048 A 
ATOM     25  HN  UNK N   1      27.274  19.515   8.042  1.00  0.00     0.166 HD
HETATM   26  S   UNK N   1      27.912  19.620   4.648  0.00  0.00    -0.073 SA
HETATM   27  C   UNK N   1      27.204  21.726   6.353  0.00  0.00     0.076 C 
ENDBRANCH   7  20
TORSDOF 3
ENDMDL
MODEL 8
REMARK VINA RESULT:      -6.0      6.746     11.679
REMARK  3 active torsions:
REMARK  status: ('A' for Active; 'I' for Inactive)
REMARK       I    between atoms: C_4  and  N_17 
REMARK    1  A    between atoms: C_7  and  C_9 
REMARK    2  A    between atoms: N_17  and  C_18 
REMARK    3  A    between atoms: C_21  and  N_24 
ROOT
HETATM    1  C   UNK N   1      37.202  13.722   6.871  0.00  0.00     0.108 A 
HETATM    2  N   UNK N   1      36.331  14.567   6.253  0.00  0.00    -0.202 N 
ATOM      3  HN  UNK N   1      36.459  14.794   5.267  1.00  0.00     0.183 HD
HETATM    4  C   UNK N   1      35.292  15.110   6.943  0.00  0.00     0.683 A 
HETATM    5  N   UNK N   1      35.148  14.827   8.263  0.00  0.00    -0.190 N 
ATOM      6  HN  UNK N   1      34.383  15.264   8.778  1.00  0.00     0.184 HD
HETATM    7  C   UNK N   1      35.978  13.988   8.921  0.00  0.00     0.069 A 
HETATM    8  C   UNK N   1      37.035  13.400   8.223  0.00  0.00     0.049 A 
HETATM    9  N   UNK N   1      34.382  15.996   6.303  0.00  0.00    -0.192 N 
HETATM   10  H   UNK N   1      34.574  16.306   5.389  0.00  0.00     0.184 HD
ENDROOT
BRANCH   9  11
HETATM   11  C   UNK N   1      33.197  16.448   6.956  0.00  0.00     0.049 A 
HETATM   12  C   UNK N   1      31.972  15.835   6.679  0.00  0.00     0.032 A 
HETATM   13  C   UNK N   1      30.785  16.383   7.185  0.00  0.00     0.031 A 
HETATM   14  C   UNK N   1      30.815  17.546   7.980  0.00  0.00     0.029 A 
HETATM   15  C   UNK N   1      32.052  18.111   8.306  0.00  0.00     0.031 A 
HETATM   16  C   UNK N   1      33.227  17.568   7.799  0.00  0.00     0.032 A 
BRANCH  14  17
HETATM   17  N   UNK N   1      29.607  18.172   8.411  0.00  0.00    -0.390 N 
HETATM   18  C   UNK N   1      29.313  18.321   9.812  0.00  0.00     0.149 C 
HETATM   19  C   UNK N   1      28.598  18.563   7.456  0.00  0.00     0.149 C 
ENDBRANCH  14  17
ENDBRANCH   9  11
BRANCH   7  20
HETATM   20  C   UNK N   1      35.708  13.674  10.340  0.00  0.00     0.056 A 
HETATM   21  C   UNK N   1      35.565  14.580  11.418  0.00  0.00     0.025 A 
HETATM   22  N   UNK N   1      35.267  13.999  12.630  0.00  0.00    -0.357 N 
HETATM   23  C   UNK N   1      35.730  16.054  11.304  0.00  0.00     0.070 C 
HETATM   24  C   UNK N   1      35.169  12.650  12.543  0.00  0.00     0.048 A 
ATOM     25  HN  UNK N   1      35.133  14.524  13.495  1.00  0.00     0.166 HD
HETATM   26  S   UNK N   1      35.458  12.170  10.987  0.00  0.00    -0.073 SA
HETATM   27  C   UNK N   1      34.831  11.764  13.686  0.00  0.00     0.076 C 
ENDBRANCH   7  20
TORSDOF 3
ENDMDL
MODEL 9
REMARK VINA RESULT:      -5.8     12.738     15.691
REMARK  3 active torsions:
REMARK  status: ('A' for Active; 'I' for Inactive)
REMARK       I    between atoms: C_4  and  N_17 
REMARK    1  A    between atoms: C_7  and  C_9 
REMARK    2  A    between atoms: N_17  and  C_18 
REMARK    3  A    between atoms: C_21  and  N_24 
ROOT
HETATM    1  C   UNK N   1      26.312  29.433  -3.317  0.00  0.00     0.108 A 
HETATM    2  N   UNK N   1      26.111  28.125  -2.994  0.00  0.00    -0.202 N 
ATOM      3  HN  UNK N   1      25.583  27.886  -2.155  1.00  0.00     0.183 HD
HETATM    4  C   UNK N   1      26.611  27.137  -3.784  0.00  0.00     0.683 A 
HETATM    5  N   UNK N   1      27.340  27.465  -4.882  0.00  0.00    -0.190 N 
ATOM      6  HN  UNK N   1      27.735  26.715  -5.450  1.00  0.00     0.184 HD
HETATM    7  C   UNK N   1      27.560  28.745  -5.251  0.00  0.00     0.069 A 
HETATM    8  C   UNK N   1      27.032  29.774  -4.467  0.00  0.00     0.049 A 
HETATM    9  N   UNK N   1      26.407  25.769  -3.449  0.00  0.00    -0.192 N 
HETATM   10  H   UNK N   1      26.002  25.542  -2.582  0.00  0.00     0.184 HD
ENDROOT
BRANCH   9  11
HETATM   11  C   UNK N   1      26.777  24.720  -4.342  0.00  0.00     0.049 A 
HETATM   12  C   UNK N   1      28.093  24.250  -4.358  0.00  0.00     0.032 A 
HETATM   13  C   UNK N   1      28.499  23.343  -5.347  0.00  0.00     0.031 A 
HETATM   14  C   UNK N   1      27.589  22.893  -6.324  0.00  0.00     0.029 A 
HETATM   15  C   UNK N   1      26.258  23.318  -6.256  0.00  0.00     0.031 A 
HETATM   16  C   UNK N   1      25.859  24.221  -5.277  0.00  0.00     0.032 A 
BRANCH  14  17
HETATM   17  N   UNK N   1      28.018  22.055  -7.397  0.00  0.00    -0.390 N 
HETATM   18  C   UNK N   1      29.048  21.068  -7.196  0.00  0.00     0.149 C 
HETATM   19  C   UNK N   1      27.517  22.257  -8.735  0.00  0.00     0.149 C 
ENDBRANCH  14  17
ENDBRANCH   9  11
BRANCH   7  20
HETATM   20  C   UNK N   1      28.300  29.017  -6.502  0.00  0.00     0.056 A 
HETATM   21  C   UNK N   1      28.249  28.292  -7.717  0.00  0.00     0.025 A 
HETATM   22  N   UNK N   1      29.016  28.810  -8.736  0.00  0.00    -0.357 N 
HETATM   23  C   UNK N   1      27.454  27.052  -7.922  0.00  0.00     0.070 C 
HETATM   24  C   UNK N   1      29.679  29.932  -8.360  0.00  0.00     0.048 A 
ATOM     25  HN  UNK N   1      29.078  28.399  -9.667  1.00  0.00     0.166 HD
HETATM   26  S   UNK N   1      29.333  30.281  -6.781  0.00  0.00    -0.073 SA
HETATM   27  C   UNK N   1      30.559  30.719  -9.261  0.00  0.00     0.076 C 
ENDBRANCH   7  20
TORSDOF 3
ENDMDL
