REMARK  3 active torsions:
REMARK  status: ('A' for Active; 'I' for Inactive)
REMARK       I    between atoms: C_4  and  N_17 
REMARK    1  A    between atoms: C_7  and  C_9 
REMARK    2  A    between atoms: N_17  and  C_18 
REMARK    3  A    between atoms: C_21  and  N_24 
ROOT
HETATM    1  C   UNK N   1      -3.957   2.469  -0.155  0.00  0.00     0.108 A 
HETATM    2  N   UNK N   1      -2.745   3.087  -0.088  0.00  0.00    -0.202 N 
ATOM      3  HN  UNK N   1      -2.697   4.105  -0.042  1.00  0.00     0.183 HD
HETATM    4  C   UNK N   1      -1.598   2.355  -0.083  0.00  0.00     0.683 A 
HETATM    5  N   UNK N   1      -1.670   1.002  -0.176  0.00  0.00    -0.190 N 
ATOM      6  HN  UNK N   1      -0.803   0.465  -0.202  1.00  0.00     0.184 HD
HETATM    7  C   UNK N   1      -2.846   0.340  -0.235  0.00  0.00     0.069 A 
HETATM    8  C   UNK N   1      -4.035   1.073  -0.215  0.00  0.00     0.049 A 
HETATM    9  N   UNK N   1      -0.330   2.996  -0.017  0.00  0.00    -0.192 N 
HETATM   10  H   UNK N   1      -0.282   3.976  -0.092  0.00  0.00     0.184 HD
ENDROOT
BRANCH   9  11
HETATM   11  C   UNK N   1       0.874   2.251   0.155  0.00  0.00     0.049 A 
HETATM   12  C   UNK N   1       2.060   2.697  -0.434  0.00  0.00     0.032 A 
HETATM   13  C   UNK N   1       3.202   1.884  -0.411  0.00  0.00     0.031 A 
HETATM   14  C   UNK N   1       3.168   0.619   0.208  0.00  0.00     0.029 A 
HETATM   15  C   UNK N   1       1.995   0.212   0.853  0.00  0.00     0.031 A 
HETATM   16  C   UNK N   1       0.863   1.019   0.825  0.00  0.00     0.032 A 
BRANCH  14  17
HETATM   17  N   UNK N   1       4.290  -0.261   0.144  0.00  0.00    -0.390 N 
HETATM   18  C   UNK N   1       5.483   0.116  -0.569  0.00  0.00     0.149 C 
HETATM   19  C   UNK N   1       4.212  -1.595   0.688  0.00  0.00     0.149 C 
ENDBRANCH  14  17
ENDBRANCH   9  11
BRANCH   7  20
HETATM   20  C   UNK N   1      -2.840  -1.138  -0.260  0.00  0.00     0.056 A 
HETATM   21  C   UNK N   1      -1.725  -2.000  -0.394  0.00  0.00     0.025 A 
HETATM   22  N   UNK N   1      -2.018  -3.344  -0.334  0.00  0.00    -0.357 N 
HETATM   23  C   UNK N   1      -0.326  -1.538  -0.601  0.00  0.00     0.070 C 
HETATM   24  C   UNK N   1      -3.342  -3.573  -0.156  0.00  0.00     0.048 A 
ATOM     25  HN  UNK N   1      -1.319  -4.083  -0.413  1.00  0.00     0.166 HD
HETATM   26  S   UNK N   1      -4.152  -2.133  -0.083  0.00  0.00    -0.073 SA
HETATM   27  C   UNK N   1      -3.943  -4.925  -0.028  0.00  0.00     0.076 C 
ENDBRANCH   7  20
TORSDOF 3
