REMARK  6 active torsions:
REMARK  status: ('A' for Active; 'I' for Inactive)
REMARK    1  A    between atoms: C_2  and  C_1 
REMARK    2  A    between atoms: C_2  and  C_3 
REMARK    3  A    between atoms: C_6  and  N_26 
REMARK    4  A    between atoms: C_20  and  C_33 
REMARK    5  A    between atoms: C_29  and  N_22 
REMARK    6  A    between atoms: C_33  and  N_23 
ROOT
HETATM    1  C   UNK N   1       1.024  -0.960  -0.765  0.00  0.00     0.019 A 
HETATM    2  N   UNK N   1       5.363  -0.091  -0.106  0.00  0.00    -0.353 N 
ATOM      3  HN  UNK N   1       6.238   0.429  -0.034  1.00  0.00     0.166 HD
HETATM    4  C   UNK N   1       4.221   0.571  -0.445  0.00  0.00     0.104 A 
HETATM    5  C   UNK N   1       3.054  -0.164  -0.530  0.00  0.00     0.025 A 
HETATM    6  C   UNK N   1       3.055  -1.499  -0.278  0.00  0.00     0.121 A 
HETATM    7  N   UNK N   1       4.194  -2.158   0.055  0.00  0.00    -0.330 N 
ATOM      8  HN  UNK N   1       4.183  -3.161   0.237  1.00  0.00     0.168 HD
HETATM    9  C   UNK N   1       5.361  -1.443   0.142  0.00  0.00     0.100 A 
HETATM   10  C   UNK N   1       1.779   0.214  -0.858  0.00  0.00     0.042 A 
HETATM   11  N   UNK N   1       1.814  -2.015  -0.426  0.00  0.00    -0.331 N 
ENDROOT
BRANCH   1  12
HETATM   12  C   UNK N   1      -0.457  -1.042  -1.044  0.00  0.00     0.095 C 
BRANCH  12  13
HETATM   13  C   UNK N   1      -1.268   0.100  -0.476  0.00  0.00    -0.052 A 
HETATM   14  C   UNK N   1      -2.599   0.252  -0.877  0.00  0.00     0.010 A 
HETATM   15  C   UNK N   1      -3.335   1.372  -0.470  0.00  0.00     0.030 A 
HETATM   16  C   UNK N   1      -2.743   2.360   0.337  0.00  0.00     0.030 A 
HETATM   17  C   UNK N   1      -1.421   2.184   0.765  0.00  0.00     0.030 A 
HETATM   18  C   UNK N   1      -0.695   1.066   0.365  0.00  0.00     0.010 A 
BRANCH  16  19
HETATM   19  N   UNK N   1      -3.457   3.545   0.689  0.00  0.00    -0.378 N 
HETATM   20  C   UNK N   1      -4.810   3.768   0.228  0.00  0.00     0.153 C 
HETATM   21  C   UNK N   1      -4.845   5.072  -0.570  0.00  0.00     0.291 C 
HETATM   22  N   UNK N   1      -4.297   6.166   0.235  0.00  0.00     0.087 N 
HETATM   23  C   UNK N   1      -4.333   7.366  -0.581  0.00  0.00     0.310 C 
HETATM   24  C   UNK N   1      -2.894   5.889   0.546  0.00  0.00     0.291 C 
HETATM   25  C   UNK N   1      -2.798   4.623   1.397  0.00  0.00     0.153 C 
ENDBRANCH  16  19
ENDBRANCH  12  13
ENDBRANCH   1  12
BRANCH  11  26
HETATM   26  C   UNK N   1       1.353  -3.410  -0.319  0.00  0.00     0.091 C 
HETATM   27  C   UNK N   1       2.469  -4.428  -0.076  0.00  0.00     0.026 C 
HETATM   28  C   UNK N   1       1.897  -5.841  -0.169  0.00  0.00     0.002 C 
HETATM   29  C   UNK N   1       0.768  -6.030   0.844  0.00  0.00     0.000 C 
HETATM   30  C   UNK N   1      -0.323  -4.980   0.642  0.00  0.00     0.002 C 
HETATM   31  C   UNK N   1       0.266  -3.574   0.742  0.00  0.00     0.026 C 
ENDBRANCH  11  26
BRANCH   9  32
HETATM   32  C   UNK N   1       6.631  -2.148   0.500  0.00  0.00     0.188 C 
BRANCH  32  33
HETATM   33  N   UNK N   1       7.761  -1.231   0.504  0.00  0.00    -0.424 N 
HETATM   34  H   UNK N   1       8.713  -1.596   0.507  0.00  0.00     0.150 HD
HETATM   35  H   UNK N   1       7.601  -0.224   0.504  0.00  0.00     0.150 HD
ENDBRANCH  32  33
ENDBRANCH   9  32
TORSDOF 6
