MODEL 1
REMARK VINA RESULT:      -7.9      0.000      0.000
REMARK  6 active torsions:
REMARK  status: ('A' for Active; 'I' for Inactive)
REMARK    1  A    between atoms: C_2  and  C_1 
REMARK    2  A    between atoms: C_2  and  C_3 
REMARK    3  A    between atoms: C_6  and  N_26 
REMARK    4  A    between atoms: C_20  and  C_33 
REMARK    5  A    between atoms: C_29  and  N_22 
REMARK    6  A    between atoms: C_33  and  N_23 
ROOT
HETATM    1  C   UNK N   1      31.890  17.707   8.087  0.00  0.00     0.019 A 
HETATM    2  N   UNK N   1      27.440  17.252   8.148  0.00  0.00    -0.353 N 
ATOM      3  HN  UNK N   1      26.476  17.284   8.480  1.00  0.00     0.166 HD
HETATM    4  C   UNK N   1      28.441  17.687   8.964  0.00  0.00     0.104 A 
HETATM    5  C   UNK N   1      29.734  17.631   8.480  0.00  0.00     0.025 A 
HETATM    6  C   UNK N   1      29.987  17.162   7.230  0.00  0.00     0.121 A 
HETATM    7  N   UNK N   1      28.990  16.724   6.420  0.00  0.00    -0.330 N 
ATOM      8  HN  UNK N   1      29.193  16.370   5.486  1.00  0.00     0.168 HD
HETATM    9  C   UNK N   1      27.701  16.772   6.886  0.00  0.00     0.100 A 
HETATM   10  C   UNK N   1      30.924  17.975   9.063  0.00  0.00     0.042 A 
HETATM   11  N   UNK N   1      31.313  17.190   6.968  0.00  0.00    -0.331 N 
ENDROOT
BRANCH   1  12
HETATM   12  C   UNK N   1      33.371  17.927   8.274  0.00  0.00     0.095 C 
BRANCH  12  13
HETATM   13  C   UNK N   1      34.066  16.863   9.093  0.00  0.00    -0.052 A 
HETATM   14  C   UNK N   1      33.668  15.530   8.951  0.00  0.00     0.010 A 
HETATM   15  C   UNK N   1      34.202  14.542   9.787  0.00  0.00     0.030 A 
HETATM   16  C   UNK N   1      35.135  14.878  10.784  0.00  0.00     0.030 A 
HETATM   17  C   UNK N   1      35.557  16.209  10.897  0.00  0.00     0.030 A 
HETATM   18  C   UNK N   1      35.030  17.187  10.059  0.00  0.00     0.010 A 
BRANCH  16  19
HETATM   19  N   UNK N   1      35.623  13.893  11.695  0.00  0.00    -0.378 N 
HETATM   20  C   UNK N   1      35.230  12.506  11.578  0.00  0.00     0.153 C 
HETATM   21  C   UNK N   1      34.563  12.076  12.885  0.00  0.00     0.291 C 
HETATM   22  N   UNK N   1      35.451  12.355  14.016  0.00  0.00     0.087 N 
HETATM   23  C   UNK N   1      34.756  11.951  15.225  0.00  0.00     0.310 C 
HETATM   24  C   UNK N   1      35.688  13.796  14.108  0.00  0.00     0.291 C 
HETATM   25  C   UNK N   1      36.409  14.278  12.849  0.00  0.00     0.153 C 
ENDBRANCH  16  19
ENDBRANCH  12  13
ENDBRANCH   1  12
BRANCH  11  26
HETATM   26  C   UNK N   1      32.051  16.725   5.780  0.00  0.00     0.091 C 
HETATM   27  C   UNK N   1      31.865  15.241   5.461  0.00  0.00     0.026 C 
HETATM   28  C   UNK N   1      32.814  14.841   4.333  0.00  0.00     0.002 C 
HETATM   29  C   UNK N   1      32.559  15.693   3.090  0.00  0.00     0.000 C 
HETATM   30  C   UNK N   1      32.687  17.180   3.417  0.00  0.00     0.002 C 
HETATM   31  C   UNK N   1      31.729  17.562   4.543  0.00  0.00     0.026 C 
ENDBRANCH  11  26
BRANCH   9  32
HETATM   32  C   UNK N   1      26.585  16.288   6.015  0.00  0.00     0.188 C 
BRANCH  32  33
HETATM   33  N   UNK N   1      25.520  15.688   6.805  0.00  0.00    -0.424 N 
HETATM   34  H   UNK N   1      25.632  15.581   7.813  0.00  0.00     0.150 HD
HETATM   35  H   UNK N   1      24.663  15.373   6.351  0.00  0.00     0.150 HD
ENDBRANCH  32  33
ENDBRANCH   9  32
TORSDOF 6
ENDMDL
MODEL 2
REMARK VINA RESULT:      -7.8      0.675      1.177
REMARK  6 active torsions:
REMARK  status: ('A' for Active; 'I' for Inactive)
REMARK    1  A    between atoms: C_2  and  C_1 
REMARK    2  A    between atoms: C_2  and  C_3 
REMARK    3  A    between atoms: C_6  and  N_26 
REMARK    4  A    between atoms: C_20  and  C_33 
REMARK    5  A    between atoms: C_29  and  N_22 
REMARK    6  A    between atoms: C_33  and  N_23 
ROOT
HETATM    1  C   UNK N   1      31.963  17.718   7.964  0.00  0.00     0.019 A 
HETATM    2  N   UNK N   1      27.494  17.648   7.787  0.00  0.00    -0.353 N 
ATOM      3  HN  UNK N   1      26.520  17.773   8.064  1.00  0.00     0.166 HD
HETATM    4  C   UNK N   1      28.484  18.020   8.646  0.00  0.00     0.104 A 
HETATM    5  C   UNK N   1      29.791  17.839   8.237  0.00  0.00     0.025 A 
HETATM    6  C   UNK N   1      30.069  17.312   7.016  0.00  0.00     0.121 A 
HETATM    7  N   UNK N   1      29.082  16.938   6.162  0.00  0.00    -0.330 N 
ATOM      8  HN  UNK N   1      29.303  16.539   5.251  1.00  0.00     0.168 HD
HETATM    9  C   UNK N   1      27.779  17.109   6.555  0.00  0.00     0.100 A 
HETATM   10  C   UNK N   1      30.974  18.097   8.877  0.00  0.00     0.042 A 
HETATM   11  N   UNK N   1      31.405  17.219   6.828  0.00  0.00    -0.331 N 
ENDROOT
BRANCH   1  12
HETATM   12  C   UNK N   1      33.446  17.816   8.228  0.00  0.00     0.095 C 
BRANCH  12  13
HETATM   13  C   UNK N   1      33.975  16.809   9.224  0.00  0.00    -0.052 A 
HETATM   14  C   UNK N   1      35.057  17.163  10.037  0.00  0.00     0.010 A 
HETATM   15  C   UNK N   1      35.650  16.211  10.875  0.00  0.00     0.030 A 
HETATM   16  C   UNK N   1      35.173  14.888  10.904  0.00  0.00     0.030 A 
HETATM   17  C   UNK N   1      34.066  14.550  10.115  0.00  0.00     0.030 A 
HETATM   18  C   UNK N   1      33.474  15.500   9.288  0.00  0.00     0.010 A 
BRANCH  16  19
HETATM   19  N   UNK N   1      35.822  13.891  11.692  0.00  0.00    -0.378 N 
HETATM   20  C   UNK N   1      36.515  12.782  11.072  0.00  0.00     0.153 C 
HETATM   21  C   UNK N   1      35.891  11.477  11.570  0.00  0.00     0.291 C 
HETATM   22  N   UNK N   1      35.897  11.447  13.034  0.00  0.00     0.087 N 
HETATM   23  C   UNK N   1      35.273  10.202  13.445  0.00  0.00     0.310 C 
HETATM   24  C   UNK N   1      35.074  12.541  13.550  0.00  0.00     0.291 C 
HETATM   25  C   UNK N   1      35.682  13.880  13.133  0.00  0.00     0.153 C 
ENDBRANCH  16  19
ENDBRANCH  12  13
ENDBRANCH   1  12
BRANCH  11  26
HETATM   26  C   UNK N   1      32.161  16.657   5.695  0.00  0.00     0.091 C 
HETATM   27  C   UNK N   1      31.952  15.158   5.477  0.00  0.00     0.026 C 
HETATM   28  C   UNK N   1      32.920  14.660   4.405  0.00  0.00     0.002 C 
HETATM   29  C   UNK N   1      32.714  15.427   3.099  0.00  0.00     0.000 C 
HETATM   30  C   UNK N   1      32.866  16.931   3.323  0.00  0.00     0.002 C 
HETATM   31  C   UNK N   1      31.888  17.411   4.394  0.00  0.00     0.026 C 
ENDBRANCH  11  26
BRANCH   9  32
HETATM   32  C   UNK N   1      26.673  16.698   5.635  0.00  0.00     0.188 C 
BRANCH  32  33
HETATM   33  N   UNK N   1      25.535  16.177   6.377  0.00  0.00    -0.424 N 
HETATM   34  H   UNK N   1      25.654  15.375   6.995  0.00  0.00     0.150 HD
HETATM   35  H   UNK N   1      24.619  16.613   6.279  0.00  0.00     0.150 HD
ENDBRANCH  32  33
ENDBRANCH   9  32
TORSDOF 6
ENDMDL
MODEL 3
REMARK VINA RESULT:      -7.5      2.648      4.905
REMARK  6 active torsions:
REMARK  status: ('A' for Active; 'I' for Inactive)
REMARK    1  A    between atoms: C_2  and  C_1 
REMARK    2  A    between atoms: C_2  and  C_3 
REMARK    3  A    between atoms: C_6  and  N_26 
REMARK    4  A    between atoms: C_20  and  C_33 
REMARK    5  A    between atoms: C_29  and  N_22 
REMARK    6  A    between atoms: C_33  and  N_23 
ROOT
HETATM    1  C   UNK N   1      30.436  17.029   3.912  0.00  0.00     0.019 A 
HETATM    2  N   UNK N   1      27.199  14.551   2.070  0.00  0.00    -0.353 N 
ATOM      3  HN  UNK N   1      26.742  13.826   1.515  1.00  0.00     0.166 HD
HETATM    4  C   UNK N   1      28.560  14.626   2.076  0.00  0.00     0.104 A 
HETATM    5  C   UNK N   1      29.144  15.618   2.840  0.00  0.00     0.025 A 
HETATM    6  C   UNK N   1      28.380  16.480   3.560  0.00  0.00     0.121 A 
HETATM    7  N   UNK N   1      27.025  16.407   3.549  0.00  0.00    -0.330 N 
ATOM      8  HN  UNK N   1      26.462  17.063   4.089  1.00  0.00     0.168 HD
HETATM    9  C   UNK N   1      26.429  15.429   2.794  0.00  0.00     0.100 A 
HETATM   10  C   UNK N   1      30.461  15.945   3.028  0.00  0.00     0.042 A 
HETATM   11  N   UNK N   1      29.155  17.368   4.223  0.00  0.00    -0.331 N 
ENDROOT
BRANCH   1  12
HETATM   12  C   UNK N   1      31.667  17.744   4.415  0.00  0.00     0.095 C 
BRANCH  12  13
HETATM   13  C   UNK N   1      32.281  17.141   5.658  0.00  0.00    -0.052 A 
HETATM   14  C   UNK N   1      31.459  16.451   6.554  0.00  0.00     0.010 A 
HETATM   15  C   UNK N   1      31.972  15.995   7.774  0.00  0.00     0.030 A 
HETATM   16  C   UNK N   1      33.315  16.234   8.117  0.00  0.00     0.030 A 
HETATM   17  C   UNK N   1      34.142  16.894   7.200  0.00  0.00     0.030 A 
HETATM   18  C   UNK N   1      33.631  17.339   5.985  0.00  0.00     0.010 A 
BRANCH  16  19
HETATM   19  N   UNK N   1      33.827  15.846   9.393  0.00  0.00    -0.378 N 
HETATM   20  C   UNK N   1      34.843  16.630  10.060  0.00  0.00     0.153 C 
HETATM   21  C   UNK N   1      36.059  15.739  10.312  0.00  0.00     0.291 C 
HETATM   22  N   UNK N   1      35.655  14.535  11.041  0.00  0.00     0.087 N 
HETATM   23  C   UNK N   1      36.842  13.720  11.228  0.00  0.00     0.310 C 
HETATM   24  C   UNK N   1      34.716  13.762  10.226  0.00  0.00     0.291 C 
HETATM   25  C   UNK N   1      33.449  14.582   9.989  0.00  0.00     0.153 C 
ENDBRANCH  16  19
ENDBRANCH  12  13
ENDBRANCH   1  12
BRANCH  11  26
HETATM   26  C   UNK N   1      28.769  18.512   5.067  0.00  0.00     0.091 C 
HETATM   27  C   UNK N   1      27.790  19.483   4.406  0.00  0.00     0.026 C 
HETATM   28  C   UNK N   1      27.612  20.711   5.297  0.00  0.00     0.002 C 
HETATM   29  C   UNK N   1      27.110  20.301   6.681  0.00  0.00     0.000 C 
HETATM   30  C   UNK N   1      28.056  19.288   7.322  0.00  0.00     0.002 C 
HETATM   31  C   UNK N   1      28.218  18.065   6.420  0.00  0.00     0.026 C 
ENDBRANCH  11  26
BRANCH   9  32
HETATM   32  C   UNK N   1      24.937  15.333   2.760  0.00  0.00     0.188 C 
BRANCH  32  33
HETATM   33  N   UNK N   1      24.323  16.330   3.624  0.00  0.00    -0.424 N 
HETATM   34  H   UNK N   1      23.316  16.485   3.587  0.00  0.00     0.150 HD
HETATM   35  H   UNK N   1      24.900  16.874   4.265  0.00  0.00     0.150 HD
ENDBRANCH  32  33
ENDBRANCH   9  32
TORSDOF 6
ENDMDL
MODEL 4
REMARK VINA RESULT:      -7.4      5.394     10.997
REMARK  6 active torsions:
REMARK  status: ('A' for Active; 'I' for Inactive)
REMARK    1  A    between atoms: C_2  and  C_1 
REMARK    2  A    between atoms: C_2  and  C_3 
REMARK    3  A    between atoms: C_6  and  N_26 
REMARK    4  A    between atoms: C_20  and  C_33 
REMARK    5  A    between atoms: C_29  and  N_22 
REMARK    6  A    between atoms: C_33  and  N_23 
ROOT
HETATM    1  C   UNK N   1      36.275  10.965  15.189  0.00  0.00     0.019 A 
HETATM    2  N   UNK N   1      34.712  12.378  11.242  0.00  0.00    -0.353 N 
ATOM      3  HN  UNK N   1      34.371  12.355  10.281  1.00  0.00     0.166 HD
HETATM    4  C   UNK N   1      35.065  11.211  11.851  0.00  0.00     0.104 A 
HETATM    5  C   UNK N   1      35.519  11.278  13.154  0.00  0.00     0.025 A 
HETATM    6  C   UNK N   1      35.602  12.471  13.799  0.00  0.00     0.121 A 
HETATM    7  N   UNK N   1      35.254  13.633  13.190  0.00  0.00    -0.330 N 
ATOM      8  HN  UNK N   1      35.325  14.523  13.683  1.00  0.00     0.168 HD
HETATM    9  C   UNK N   1      34.803  13.583  11.896  0.00  0.00     0.100 A 
HETATM   10  C   UNK N   1      35.953  10.296  14.004  0.00  0.00     0.042 A 
HETATM   11  N   UNK N   1      36.075  12.305  15.055  0.00  0.00    -0.331 N 
ENDROOT
BRANCH   1  12
HETATM   12  C   UNK N   1      36.808  10.290  16.429  0.00  0.00     0.095 C 
BRANCH  12  13
HETATM   13  C   UNK N   1      35.800  10.140  17.546  0.00  0.00    -0.052 A 
HETATM   14  C   UNK N   1      36.019  10.815  18.751  0.00  0.00     0.010 A 
HETATM   15  C   UNK N   1      35.175  10.595  19.847  0.00  0.00     0.030 A 
HETATM   16  C   UNK N   1      34.105   9.687  19.752  0.00  0.00     0.030 A 
HETATM   17  C   UNK N   1      33.869   9.041  18.531  0.00  0.00     0.030 A 
HETATM   18  C   UNK N   1      34.706   9.269  17.442  0.00  0.00     0.010 A 
BRANCH  16  19
HETATM   19  N   UNK N   1      33.289   9.392  20.885  0.00  0.00    -0.378 N 
HETATM   20  C   UNK N   1      33.846   9.362  22.220  0.00  0.00     0.153 C 
HETATM   21  C   UNK N   1      33.599   7.977  22.820  0.00  0.00     0.291 C 
HETATM   22  N   UNK N   1      32.173   7.651  22.757  0.00  0.00     0.087 N 
HETATM   23  C   UNK N   1      32.006   6.322  23.316  0.00  0.00     0.310 C 
HETATM   24  C   UNK N   1      31.745   7.597  21.359  0.00  0.00     0.291 C 
HETATM   25  C   UNK N   1      31.912   8.974  20.718  0.00  0.00     0.153 C 
ENDBRANCH  16  19
ENDBRANCH  12  13
ENDBRANCH   1  12
BRANCH  11  26
HETATM   26  C   UNK N   1      36.388  13.309  16.086  0.00  0.00     0.091 C 
HETATM   27  C   UNK N   1      37.013  14.597  15.546  0.00  0.00     0.026 C 
HETATM   28  C   UNK N   1      37.459  15.474  16.714  0.00  0.00     0.002 C 
HETATM   29  C   UNK N   1      36.276  15.793  17.628  0.00  0.00     0.000 C 
HETATM   30  C   UNK N   1      35.613  14.510  18.125  0.00  0.00     0.002 C 
HETATM   31  C   UNK N   1      35.170  13.647  16.944  0.00  0.00     0.026 C 
ENDBRANCH  11  26
BRANCH   9  32
HETATM   32  C   UNK N   1      34.421  14.852  11.201  0.00  0.00     0.188 C 
BRANCH  32  33
HETATM   33  N   UNK N   1      33.060  14.783  10.688  0.00  0.00    -0.424 N 
HETATM   34  H   UNK N   1      32.891  14.473   9.732  0.00  0.00     0.150 HD
HETATM   35  H   UNK N   1      32.276  15.045  11.285  0.00  0.00     0.150 HD
ENDBRANCH  32  33
ENDBRANCH   9  32
TORSDOF 6
ENDMDL
MODEL 5
REMARK VINA RESULT:      -7.2      3.653     10.357
REMARK  6 active torsions:
REMARK  status: ('A' for Active; 'I' for Inactive)
REMARK    1  A    between atoms: C_2  and  C_1 
REMARK    2  A    between atoms: C_2  and  C_3 
REMARK    3  A    between atoms: C_6  and  N_26 
REMARK    4  A    between atoms: C_20  and  C_33 
REMARK    5  A    between atoms: C_29  and  N_22 
REMARK    6  A    between atoms: C_33  and  N_23 
ROOT
HETATM    1  C   UNK N   1      29.248  17.418   5.255  0.00  0.00     0.019 A 
HETATM    2  N   UNK N   1      30.972  17.022   9.364  0.00  0.00    -0.353 N 
ATOM      3  HN  UNK N   1      31.075  17.114  10.375  1.00  0.00     0.166 HD
HETATM    4  C   UNK N   1      29.888  17.577   8.752  0.00  0.00     0.104 A 
HETATM    5  C   UNK N   1      29.779  17.431   7.382  0.00  0.00     0.025 A 
HETATM    6  C   UNK N   1      30.723  16.751   6.680  0.00  0.00     0.121 A 
HETATM    7  N   UNK N   1      31.805  16.203   7.290  0.00  0.00    -0.330 N 
ATOM      8  HN  UNK N   1      32.509  15.699   6.752  1.00  0.00     0.168 HD
HETATM    9  C   UNK N   1      31.928  16.341   8.649  0.00  0.00     0.100 A 
HETATM   10  C   UNK N   1      28.829  17.883   6.506  0.00  0.00     0.042 A 
HETATM   11  N   UNK N   1      30.422  16.737   5.362  0.00  0.00    -0.331 N 
ENDROOT
BRANCH   1  12
HETATM   12  C   UNK N   1      28.511  17.675   3.963  0.00  0.00     0.095 C 
BRANCH  12  13
HETATM   13  C   UNK N   1      27.070  18.096   4.134  0.00  0.00    -0.052 A 
HETATM   14  C   UNK N   1      26.113  17.128   4.454  0.00  0.00     0.010 A 
HETATM   15  C   UNK N   1      24.754  17.463   4.491  0.00  0.00     0.030 A 
HETATM   16  C   UNK N   1      24.335  18.773   4.198  0.00  0.00     0.030 A 
HETATM   17  C   UNK N   1      25.300  19.747   3.913  0.00  0.00     0.030 A 
HETATM   18  C   UNK N   1      26.650  19.412   3.885  0.00  0.00     0.010 A 
BRANCH  16  19
HETATM   19  N   UNK N   1      22.947  19.106   4.152  0.00  0.00    -0.378 N 
HETATM   20  C   UNK N   1      21.987  18.432   4.998  0.00  0.00     0.153 C 
HETATM   21  C   UNK N   1      20.930  17.776   4.110  0.00  0.00     0.291 C 
HETATM   22  N   UNK N   1      20.342  18.772   3.211  0.00  0.00     0.087 N 
HETATM   23  C   UNK N   1      19.369  18.087   2.380  0.00  0.00     0.310 C 
HETATM   24  C   UNK N   1      21.379  19.303   2.326  0.00  0.00     0.291 C 
HETATM   25  C   UNK N   1      22.440  20.027   3.155  0.00  0.00     0.153 C 
ENDBRANCH  16  19
ENDBRANCH  12  13
ENDBRANCH   1  12
BRANCH  11  26
HETATM   26  C   UNK N   1      31.177  16.181   4.227  0.00  0.00     0.091 C 
HETATM   27  C   UNK N   1      32.597  16.733   4.081  0.00  0.00     0.026 C 
HETATM   28  C   UNK N   1      33.207  16.227   2.776  0.00  0.00     0.002 C 
HETATM   29  C   UNK N   1      33.220  14.699   2.746  0.00  0.00     0.000 C 
HETATM   30  C   UNK N   1      31.812  14.142   2.948  0.00  0.00     0.002 C 
HETATM   31  C   UNK N   1      31.219  14.654   4.259  0.00  0.00     0.026 C 
ENDBRANCH  11  26
BRANCH   9  32
HETATM   32  C   UNK N   1      33.115  15.752   9.343  0.00  0.00     0.188 C 
BRANCH  32  33
HETATM   33  N   UNK N   1      32.720  15.030  10.544  0.00  0.00    -0.424 N 
HETATM   34  H   UNK N   1      31.903  15.331  11.074  0.00  0.00     0.150 HD
HETATM   35  H   UNK N   1      33.260  14.223  10.855  0.00  0.00     0.150 HD
ENDBRANCH  32  33
ENDBRANCH   9  32
TORSDOF 6
ENDMDL
MODEL 6
REMARK VINA RESULT:      -7.2      2.402      5.355
REMARK  6 active torsions:
REMARK  status: ('A' for Active; 'I' for Inactive)
REMARK    1  A    between atoms: C_2  and  C_1 
REMARK    2  A    between atoms: C_2  and  C_3 
REMARK    3  A    between atoms: C_6  and  N_26 
REMARK    4  A    between atoms: C_20  and  C_33 
REMARK    5  A    between atoms: C_29  and  N_22 
REMARK    6  A    between atoms: C_33  and  N_23 
ROOT
HETATM    1  C   UNK N   1      28.370  16.491   4.863  0.00  0.00     0.019 A 
HETATM    2  N   UNK N   1      25.289  13.500   6.119  0.00  0.00    -0.353 N 
ATOM      3  HN  UNK N   1      24.830  12.602   6.275  1.00  0.00     0.166 HD
HETATM    4  C   UNK N   1      26.518  13.526   5.531  0.00  0.00     0.104 A 
HETATM    5  C   UNK N   1      27.111  14.759   5.337  0.00  0.00     0.025 A 
HETATM    6  C   UNK N   1      26.484  15.899   5.727  0.00  0.00     0.121 A 
HETATM    7  N   UNK N   1      25.258  15.872   6.308  0.00  0.00    -0.330 N 
ATOM      8  HN  UNK N   1      24.795  16.735   6.592  1.00  0.00     0.168 HD
HETATM    9  C   UNK N   1      24.655  14.656   6.506  0.00  0.00     0.100 A 
HETATM   10  C   UNK N   1      28.310  15.097   4.768  0.00  0.00     0.042 A 
HETATM   11  N   UNK N   1      27.238  16.983   5.436  0.00  0.00    -0.331 N 
ENDROOT
BRANCH   1  12
HETATM   12  C   UNK N   1      29.519  17.329   4.358  0.00  0.00     0.095 C 
BRANCH  12  13
HETATM   13  C   UNK N   1      30.755  17.289   5.228  0.00  0.00    -0.052 A 
HETATM   14  C   UNK N   1      32.008  17.470   4.634  0.00  0.00     0.010 A 
HETATM   15  C   UNK N   1      33.176  17.310   5.389  0.00  0.00     0.030 A 
HETATM   16  C   UNK N   1      33.104  16.957   6.749  0.00  0.00     0.030 A 
HETATM   17  C   UNK N   1      31.846  16.813   7.347  0.00  0.00     0.030 A 
HETATM   18  C   UNK N   1      30.687  16.981   6.595  0.00  0.00     0.010 A 
BRANCH  16  19
HETATM   19  N   UNK N   1      34.288  16.711   7.507  0.00  0.00    -0.378 N 
HETATM   20  C   UNK N   1      35.068  15.509   7.307  0.00  0.00     0.153 C 
HETATM   21  C   UNK N   1      35.150  14.753   8.634  0.00  0.00     0.291 C 
HETATM   22  N   UNK N   1      35.667  15.637   9.682  0.00  0.00     0.087 N 
HETATM   23  C   UNK N   1      35.698  14.875  10.917  0.00  0.00     0.310 C 
HETATM   24  C   UNK N   1      34.743  16.755   9.879  0.00  0.00     0.291 C 
HETATM   25  C   UNK N   1      34.664  17.586   8.598  0.00  0.00     0.153 C 
ENDBRANCH  16  19
ENDBRANCH  12  13
ENDBRANCH   1  12
BRANCH  11  26
HETATM   26  C   UNK N   1      26.941  18.415   5.615  0.00  0.00     0.091 C 
HETATM   27  C   UNK N   1      27.765  19.100   6.707  0.00  0.00     0.026 C 
HETATM   28  C   UNK N   1      27.242  20.519   6.924  0.00  0.00     0.002 C 
HETATM   29  C   UNK N   1      27.305  21.318   5.622  0.00  0.00     0.000 C 
HETATM   30  C   UNK N   1      26.530  20.609   4.513  0.00  0.00     0.002 C 
HETATM   31  C   UNK N   1      27.068  19.194   4.307  0.00  0.00     0.026 C 
ENDBRANCH  11  26
BRANCH   9  32
HETATM   32  C   UNK N   1      23.300  14.601   7.138  0.00  0.00     0.188 C 
BRANCH  32  33
HETATM   33  N   UNK N   1      22.485  15.740   6.742  0.00  0.00    -0.424 N 
HETATM   34  H   UNK N   1      22.886  16.475   6.160  0.00  0.00     0.150 HD
HETATM   35  H   UNK N   1      21.514  15.802   7.045  0.00  0.00     0.150 HD
ENDBRANCH  32  33
ENDBRANCH   9  32
TORSDOF 6
ENDMDL
MODEL 7
REMARK VINA RESULT:      -7.1      2.036      8.402
REMARK  6 active torsions:
REMARK  status: ('A' for Active; 'I' for Inactive)
REMARK    1  A    between atoms: C_2  and  C_1 
REMARK    2  A    between atoms: C_2  and  C_3 
REMARK    3  A    between atoms: C_6  and  N_26 
REMARK    4  A    between atoms: C_20  and  C_33 
REMARK    5  A    between atoms: C_29  and  N_22 
REMARK    6  A    between atoms: C_33  and  N_23 
ROOT
HETATM    1  C   UNK N   1      34.725  16.774   8.654  0.00  0.00     0.019 A 
HETATM    2  N   UNK N   1      36.557  14.435  11.998  0.00  0.00    -0.353 N 
ATOM      3  HN  UNK N   1      36.912  14.204  12.927  1.00  0.00     0.166 HD
HETATM    4  C   UNK N   1      36.043  15.677  11.772  0.00  0.00     0.104 A 
HETATM    5  C   UNK N   1      35.569  15.954  10.504  0.00  0.00     0.025 A 
HETATM    6  C   UNK N   1      35.614  15.013   9.525  0.00  0.00     0.121 A 
HETATM    7  N   UNK N   1      36.131  13.778   9.751  0.00  0.00    -0.330 N 
ATOM      8  HN  UNK N   1      36.164  13.082   9.007  1.00  0.00     0.168 HD
HETATM    9  C   UNK N   1      36.607  13.488  11.004  0.00  0.00     0.100 A 
HETATM   10  C   UNK N   1      35.021  17.096   9.983  0.00  0.00     0.042 A 
HETATM   11  N   UNK N   1      35.107  15.499   8.370  0.00  0.00    -0.331 N 
ENDROOT
BRANCH   1  12
HETATM   12  C   UNK N   1      34.103  17.732   7.666  0.00  0.00     0.095 C 
BRANCH  12  13
HETATM   13  C   UNK N   1      32.619  17.539   7.454  0.00  0.00    -0.052 A 
HETATM   14  C   UNK N   1      32.163  17.107   6.204  0.00  0.00     0.010 A 
HETATM   15  C   UNK N   1      30.790  17.044   5.937  0.00  0.00     0.030 A 
HETATM   16  C   UNK N   1      29.855  17.424   6.916  0.00  0.00     0.030 A 
HETATM   17  C   UNK N   1      30.316  17.822   8.177  0.00  0.00     0.030 A 
HETATM   18  C   UNK N   1      31.682  17.876   8.442  0.00  0.00     0.010 A 
BRANCH  16  19
HETATM   19  N   UNK N   1      28.457  17.444   6.627  0.00  0.00    -0.378 N 
HETATM   20  C   UNK N   1      27.749  16.232   6.275  0.00  0.00     0.153 C 
HETATM   21  C   UNK N   1      27.114  16.421   4.897  0.00  0.00     0.291 C 
HETATM   22  N   UNK N   1      26.282  17.626   4.890  0.00  0.00     0.087 N 
HETATM   23  C   UNK N   1      25.729  17.765   3.555  0.00  0.00     0.310 C 
HETATM   24  C   UNK N   1      27.119  18.800   5.143  0.00  0.00     0.291 C 
HETATM   25  C   UNK N   1      27.737  18.697   6.537  0.00  0.00     0.153 C 
ENDBRANCH  16  19
ENDBRANCH  12  13
ENDBRANCH   1  12
BRANCH  11  26
HETATM   26  C   UNK N   1      35.011  14.869   7.042  0.00  0.00     0.091 C 
HETATM   27  C   UNK N   1      36.336  14.328   6.502  0.00  0.00     0.026 C 
HETATM   28  C   UNK N   1      36.147  13.871   5.057  0.00  0.00     0.002 C 
HETATM   29  C   UNK N   1      35.056  12.804   4.971  0.00  0.00     0.000 C 
HETATM   30  C   UNK N   1      33.745  13.319   5.561  0.00  0.00     0.002 C 
HETATM   31  C   UNK N   1      33.952  13.768   7.007  0.00  0.00     0.026 C 
ENDBRANCH  11  26
BRANCH   9  32
HETATM   32  C   UNK N   1      37.188  12.136  11.275  0.00  0.00     0.188 C 
BRANCH  32  33
HETATM   33  N   UNK N   1      37.837  12.092  12.577  0.00  0.00    -0.424 N 
HETATM   34  H   UNK N   1      37.716  11.277  13.179  0.00  0.00     0.150 HD
HETATM   35  H   UNK N   1      38.411  12.874  12.888  0.00  0.00     0.150 HD
ENDBRANCH  32  33
ENDBRANCH   9  32
TORSDOF 6
ENDMDL
MODEL 8
REMARK VINA RESULT:      -7.1      6.076      9.322
REMARK  6 active torsions:
REMARK  status: ('A' for Active; 'I' for Inactive)
REMARK    1  A    between atoms: C_2  and  C_1 
REMARK    2  A    between atoms: C_2  and  C_3 
REMARK    3  A    between atoms: C_6  and  N_26 
REMARK    4  A    between atoms: C_20  and  C_33 
REMARK    5  A    between atoms: C_29  and  N_22 
REMARK    6  A    between atoms: C_33  and  N_23 
ROOT
HETATM    1  C   UNK N   1      26.729  16.645   3.734  0.00  0.00     0.019 A 
HETATM    2  N   UNK N   1      31.057  15.733   3.055  0.00  0.00    -0.353 N 
ATOM      3  HN  UNK N   1      31.898  15.253   2.735  1.00  0.00     0.166 HD
HETATM    4  C   UNK N   1      29.835  15.202   2.766  0.00  0.00     0.104 A 
HETATM    5  C   UNK N   1      28.718  15.880   3.213  0.00  0.00     0.025 A 
HETATM    6  C   UNK N   1      28.843  17.039   3.912  0.00  0.00     0.121 A 
HETATM    7  N   UNK N   1      30.060  17.564   4.204  0.00  0.00    -0.330 N 
ATOM      8  HN  UNK N   1      30.141  18.431   4.733  1.00  0.00     0.168 HD
HETATM    9  C   UNK N   1      31.179  16.902   3.769  0.00  0.00     0.100 A 
HETATM   10  C   UNK N   1      27.385  15.589   3.091  0.00  0.00     0.042 A 
HETATM   11  N   UNK N   1      27.628  17.525   4.253  0.00  0.00    -0.331 N 
ENDROOT
BRANCH   1  12
HETATM   12  C   UNK N   1      25.230  16.761   3.863  0.00  0.00     0.095 C 
BRANCH  12  13
HETATM   13  C   UNK N   1      24.625  15.904   4.951  0.00  0.00    -0.052 A 
HETATM   14  C   UNK N   1      25.397  15.586   6.073  0.00  0.00     0.010 A 
HETATM   15  C   UNK N   1      24.910  14.689   7.033  0.00  0.00     0.030 A 
HETATM   16  C   UNK N   1      23.647  14.092   6.876  0.00  0.00     0.030 A 
HETATM   17  C   UNK N   1      22.863  14.442   5.769  0.00  0.00     0.030 A 
HETATM   18  C   UNK N   1      23.347  15.339   4.821  0.00  0.00     0.010 A 
BRANCH  16  19
HETATM   19  N   UNK N   1      23.176  13.115   7.805  0.00  0.00    -0.378 N 
HETATM   20  C   UNK N   1      21.945  13.312   8.538  0.00  0.00     0.153 C 
HETATM   21  C   UNK N   1      22.255  13.265  10.035  0.00  0.00     0.291 C 
HETATM   22  N   UNK N   1      22.957  12.021  10.362  0.00  0.00     0.087 N 
HETATM   23  C   UNK N   1      23.246  12.047  11.784  0.00  0.00     0.310 C 
HETATM   24  C   UNK N   1      24.238  11.982   9.655  0.00  0.00     0.291 C 
HETATM   25  C   UNK N   1      23.990  11.967   8.146  0.00  0.00     0.153 C 
ENDBRANCH  16  19
ENDBRANCH  12  13
ENDBRANCH   1  12
BRANCH  11  26
HETATM   26  C   UNK N   1      27.277  18.707   5.059  0.00  0.00     0.091 C 
HETATM   27  C   UNK N   1      28.080  18.852   6.353  0.00  0.00     0.026 C 
HETATM   28  C   UNK N   1      27.505  19.997   7.183  0.00  0.00     0.002 C 
HETATM   29  C   UNK N   1      27.530  21.302   6.387  0.00  0.00     0.000 C 
HETATM   30  C   UNK N   1      26.778  21.146   5.066  0.00  0.00     0.002 C 
HETATM   31  C   UNK N   1      27.369  20.000   4.248  0.00  0.00     0.026 C 
ENDBRANCH  11  26
BRANCH   9  32
HETATM   32  C   UNK N   1      32.532  17.457   4.084  0.00  0.00     0.188 C 
BRANCH  32  33
HETATM   33  N   UNK N   1      33.431  16.417   4.561  0.00  0.00    -0.424 N 
HETATM   34  H   UNK N   1      33.833  16.480   5.496  0.00  0.00     0.150 HD
HETATM   35  H   UNK N   1      33.661  15.626   3.960  0.00  0.00     0.150 HD
ENDBRANCH  32  33
ENDBRANCH   9  32
TORSDOF 6
ENDMDL
MODEL 9
REMARK VINA RESULT:      -7.1      3.071      9.599
REMARK  6 active torsions:
REMARK  status: ('A' for Active; 'I' for Inactive)
REMARK    1  A    between atoms: C_2  and  C_1 
REMARK    2  A    between atoms: C_2  and  C_3 
REMARK    3  A    between atoms: C_6  and  N_26 
REMARK    4  A    between atoms: C_20  and  C_33 
REMARK    5  A    between atoms: C_29  and  N_22 
REMARK    6  A    between atoms: C_33  and  N_23 
ROOT
HETATM    1  C   UNK N   1      29.015  17.734   5.492  0.00  0.00     0.019 A 
HETATM    2  N   UNK N   1      30.803  17.108   9.545  0.00  0.00    -0.353 N 
ATOM      3  HN  UNK N   1      30.919  17.137  10.558  1.00  0.00     0.166 HD
HETATM    4  C   UNK N   1      29.702  17.683   8.983  0.00  0.00     0.104 A 
HETATM    5  C   UNK N   1      29.576  17.621   7.609  0.00  0.00     0.025 A 
HETATM    6  C   UNK N   1      30.520  17.003   6.852  0.00  0.00     0.121 A 
HETATM    7  N   UNK N   1      31.618  16.435   7.412  0.00  0.00    -0.330 N 
ATOM      8  HN  UNK N   1      32.323  15.978   6.834  1.00  0.00     0.168 HD
HETATM    9  C   UNK N   1      31.759  16.488   8.775  0.00  0.00     0.100 A 
HETATM   10  C   UNK N   1      28.607  18.113   6.775  0.00  0.00     0.042 A 
HETATM   11  N   UNK N   1      30.200  17.068   5.540  0.00  0.00    -0.331 N 
ENDROOT
BRANCH   1  12
HETATM   12  C   UNK N   1      28.256  18.060   4.228  0.00  0.00     0.095 C 
BRANCH  12  13
HETATM   13  C   UNK N   1      26.767  17.812   4.307  0.00  0.00    -0.052 A 
HETATM   14  C   UNK N   1      25.903  18.904   4.432  0.00  0.00     0.010 A 
HETATM   15  C   UNK N   1      24.533  18.700   4.638  0.00  0.00     0.030 A 
HETATM   16  C   UNK N   1      24.012  17.397   4.730  0.00  0.00     0.030 A 
HETATM   17  C   UNK N   1      24.877  16.307   4.567  0.00  0.00     0.030 A 
HETATM   18  C   UNK N   1      26.237  16.514   4.356  0.00  0.00     0.010 A 
BRANCH  16  19
HETATM   19  N   UNK N   1      22.632  17.177   5.021  0.00  0.00    -0.378 N 
HETATM   20  C   UNK N   1      21.712  18.284   5.164  0.00  0.00     0.153 C 
HETATM   21  C   UNK N   1      21.082  18.219   6.556  0.00  0.00     0.291 C 
HETATM   22  N   UNK N   1      20.475  16.903   6.770  0.00  0.00     0.087 N 
HETATM   23  C   UNK N   1      19.919  16.893   8.110  0.00  0.00     0.310 C 
HETATM   24  C   UNK N   1      21.513  15.872   6.717  0.00  0.00     0.291 C 
HETATM   25  C   UNK N   1      22.142  15.848   5.325  0.00  0.00     0.153 C 
ENDBRANCH  16  19
ENDBRANCH  12  13
ENDBRANCH   1  12
BRANCH  11  26
HETATM   26  C   UNK N   1      30.949  16.597   4.362  0.00  0.00     0.091 C 
HETATM   27  C   UNK N   1      32.280  17.314   4.131  0.00  0.00     0.026 C 
HETATM   28  C   UNK N   1      32.868  16.874   2.792  0.00  0.00     0.002 C 
HETATM   29  C   UNK N   1      33.063  15.358   2.763  0.00  0.00     0.000 C 
HETATM   30  C   UNK N   1      31.746  14.637   3.050  0.00  0.00     0.002 C 
HETATM   31  C   UNK N   1      31.175  15.086   4.394  0.00  0.00     0.026 C 
ENDBRANCH  11  26
BRANCH   9  32
HETATM   32  C   UNK N   1      32.965  15.876   9.415  0.00  0.00     0.188 C 
BRANCH  32  33
HETATM   33  N   UNK N   1      32.588  14.950  10.473  0.00  0.00    -0.424 N 
HETATM   34  H   UNK N   1      33.233  14.763  11.240  0.00  0.00     0.150 HD
HETATM   35  H   UNK N   1      31.680  14.488  10.446  0.00  0.00     0.150 HD
ENDBRANCH  32  33
ENDBRANCH   9  32
TORSDOF 6
ENDMDL
