MODEL 1
REMARK VINA RESULT:      -7.7      0.000      0.000
REMARK  3 active torsions:
REMARK  status: ('A' for Active; 'I' for Inactive)
REMARK       I    between atoms: C_9  and  N_10 
REMARK       I    between atoms: C_17  and  N_18 
REMARK    1  A    between atoms: N_18  and  C_19 
REMARK    2  A    between atoms: C_19  and  C_20 
REMARK    3  A    between atoms: C_20  and  N_21 
ROOT
HETATM    1  N   UNK N   1      21.701  16.490   6.483  0.00  0.00    -0.190 N 
ATOM      2  HN  UNK N   1      22.475  16.540   7.145  1.00  0.00     0.184 HD
HETATM    3  C   UNK N   1      21.503  17.227   5.379  0.00  0.00     0.077 A 
HETATM    4  C   UNK N   1      22.300  18.250   4.871  0.00  0.00     0.052 A 
HETATM    5  C   UNK N   1      21.843  18.915   3.709  0.00  0.00     0.062 A 
HETATM    6  C   UNK N   1      22.563  19.963   3.122  0.00  0.00     0.272 A 
HETATM    7  O   UNK N   1      23.630  20.325   3.589  0.00  0.00    -0.267 OA
HETATM    8  N   UNK N   1      22.057  20.594   2.014  0.00  0.00    -0.156 N 
HETATM    9  C   UNK N   1      20.870  20.218   1.469  0.00  0.00     0.679 A 
HETATM   10  N   UNK N   1      20.369  20.898   0.342  0.00  0.00    -0.234 N 
HETATM   11  N   UNK N   1      20.160  19.193   2.009  0.00  0.00    -0.191 N 
ATOM     12  HN  UNK N   1      19.275  18.917   1.583  1.00  0.00     0.184 HD
HETATM   13  C   UNK N   1      20.609  18.532   3.105  0.00  0.00     0.067 A 
HETATM   14  C   UNK N   1      19.849  17.479   3.643  0.00  0.00     0.063 A 
HETATM   15  C   UNK N   1      20.338  16.851   4.781  0.00  0.00     0.078 A 
HETATM   16  N   UNK N   1      19.772  15.853   5.472  0.00  0.00    -0.190 N 
HETATM   17  C   UNK N   1      20.625  15.657   6.507  0.00  0.00     0.679 A 
HETATM   18  N   UNK N   1      20.371  14.727   7.541  0.00  0.00    -0.224 N 
HETATM   19  H   UNK N   1      22.565  21.332   1.606  0.00  0.00     0.187 HD
HETATM   20  H   UNK N   1      19.487  20.660  -0.025  0.00  0.00     0.174 HD
HETATM   21  H   UNK N   1      20.901  21.611  -0.079  0.00  0.00     0.174 HD
HETATM   22  H   UNK N   1      18.936  15.373   5.275  0.00  0.00     0.184 HD
HETATM   23  H   UNK N   1      19.756  13.975   7.379  0.00  0.00     0.177 HD
ENDROOT
BRANCH  18  24
HETATM   24  C   UNK N   1      21.000  14.868   8.824  0.00  0.00     0.168 C 
BRANCH  24  25
HETATM   25  C   UNK N   1      21.037  13.551   9.566  0.00  0.00     0.292 C 
BRANCH  25  26
HETATM   26  N   UNK N   1      22.349  13.423  10.176  0.00  0.00     0.094 N 
HETATM   27  C   UNK N   1      22.382  12.210  10.989  0.00  0.00     0.298 C 
HETATM   28  C   UNK N   1      23.807  12.016  11.513  0.00  0.00     0.198 C 
HETATM   29  O   UNK N   1      24.685  11.847  10.426  0.00  0.00    -0.388 OA
HETATM   30  C   UNK N   1      24.714  13.066   9.723  0.00  0.00     0.198 C 
HETATM   31  C   UNK N   1      23.341  13.326   9.103  0.00  0.00     0.298 C 
ENDBRANCH  25  26
ENDBRANCH  24  25
ENDBRANCH  18  24
TORSDOF 3
ENDMDL
MODEL 2
REMARK VINA RESULT:      -7.6     13.914     18.252
REMARK  3 active torsions:
REMARK  status: ('A' for Active; 'I' for Inactive)
REMARK       I    between atoms: C_9  and  N_10 
REMARK       I    between atoms: C_17  and  N_18 
REMARK    1  A    between atoms: N_18  and  C_19 
REMARK    2  A    between atoms: C_19  and  C_20 
REMARK    3  A    between atoms: C_20  and  N_21 
ROOT
HETATM    1  N   UNK N   1      35.064  12.915  13.813  0.00  0.00    -0.190 N 
ATOM      2  HN  UNK N   1      35.130  13.857  13.424  1.00  0.00     0.184 HD
HETATM    3  C   UNK N   1      35.057  12.548  15.103  0.00  0.00     0.077 A 
HETATM    4  C   UNK N   1      35.148  13.360  16.232  0.00  0.00     0.052 A 
HETATM    5  C   UNK N   1      35.171  12.720  17.493  0.00  0.00     0.062 A 
HETATM    6  C   UNK N   1      35.269  13.441  18.690  0.00  0.00     0.272 A 
HETATM    7  O   UNK N   1      35.318  14.660  18.681  0.00  0.00    -0.267 OA
HETATM    8  N   UNK N   1      35.319  12.768  19.883  0.00  0.00    -0.156 N 
HETATM    9  C   UNK N   1      35.270  11.410  19.930  0.00  0.00     0.679 A 
HETATM   10  N   UNK N   1      35.342  10.748  21.171  0.00  0.00    -0.234 N 
HETATM   11  N   UNK N   1      35.157  10.688  18.785  0.00  0.00    -0.191 N 
ATOM     12  HN  UNK N   1      35.112   9.670  18.837  1.00  0.00     0.184 HD
HETATM   13  C   UNK N   1      35.104  11.297  17.574  0.00  0.00     0.067 A 
HETATM   14  C   UNK N   1      34.992  10.522  16.408  0.00  0.00     0.063 A 
HETATM   15  C   UNK N   1      34.969  11.192  15.192  0.00  0.00     0.078 A 
HETATM   16  N   UNK N   1      34.896  10.658  13.965  0.00  0.00    -0.190 N 
HETATM   17  C   UNK N   1      34.961  11.735  13.144  0.00  0.00     0.679 A 
HETATM   18  N   UNK N   1      34.990  11.621  11.736  0.00  0.00    -0.224 N 
HETATM   19  H   UNK N   1      35.390  13.279  20.722  0.00  0.00     0.187 HD
HETATM   20  H   UNK N   1      35.355   9.764  21.204  0.00  0.00     0.174 HD
HETATM   21  H   UNK N   1      35.378  11.269  22.005  0.00  0.00     0.174 HD
HETATM   22  H   UNK N   1      34.814   9.709  13.717  0.00  0.00     0.184 HD
HETATM   23  H   UNK N   1      34.639  10.808  11.305  0.00  0.00     0.177 HD
ENDROOT
BRANCH  18  24
HETATM   24  C   UNK N   1      35.530  12.678  10.926  0.00  0.00     0.168 C 
BRANCH  24  25
HETATM   25  C   UNK N   1      34.480  13.252  10.001  0.00  0.00     0.292 C 
BRANCH  25  26
HETATM   26  N   UNK N   1      34.360  14.669  10.293  0.00  0.00     0.094 N 
HETATM   27  C   UNK N   1      35.568  15.120  10.980  0.00  0.00     0.298 C 
HETATM   28  C   UNK N   1      35.487  16.638  11.158  0.00  0.00     0.198 C 
HETATM   29  O   UNK N   1      35.439  17.254   9.893  0.00  0.00    -0.388 OA
HETATM   30  C   UNK N   1      34.216  16.888   9.300  0.00  0.00     0.198 C 
HETATM   31  C   UNK N   1      34.219  15.384   9.022  0.00  0.00     0.298 C 
ENDBRANCH  25  26
ENDBRANCH  24  25
ENDBRANCH  18  24
TORSDOF 3
ENDMDL
MODEL 3
REMARK VINA RESULT:      -7.5      7.676     10.980
REMARK  3 active torsions:
REMARK  status: ('A' for Active; 'I' for Inactive)
REMARK       I    between atoms: C_9  and  N_10 
REMARK       I    between atoms: C_17  and  N_18 
REMARK    1  A    between atoms: N_18  and  C_19 
REMARK    2  A    between atoms: C_19  and  C_20 
REMARK    3  A    between atoms: C_20  and  N_21 
ROOT
HETATM    1  N   UNK N   1      28.832  17.446   5.621  0.00  0.00    -0.190 N 
ATOM      2  HN  UNK N   1      28.762  17.514   4.605  1.00  0.00     0.184 HD
HETATM    3  C   UNK N   1      29.940  17.431   6.377  0.00  0.00     0.077 A 
HETATM    4  C   UNK N   1      31.269  17.495   5.962  0.00  0.00     0.052 A 
HETATM    5  C   UNK N   1      32.267  17.409   6.961  0.00  0.00     0.062 A 
HETATM    6  C   UNK N   1      33.633  17.454   6.652  0.00  0.00     0.272 A 
HETATM    7  O   UNK N   1      34.006  17.592   5.499  0.00  0.00    -0.267 OA
HETATM    8  N   UNK N   1      34.558  17.334   7.656  0.00  0.00    -0.156 N 
HETATM    9  C   UNK N   1      34.177  17.175   8.951  0.00  0.00     0.679 A 
HETATM   10  N   UNK N   1      35.152  17.036   9.958  0.00  0.00    -0.234 N 
HETATM   11  N   UNK N   1      32.859  17.146   9.280  0.00  0.00    -0.191 N 
ATOM     12  HN  UNK N   1      32.588  17.036  10.258  1.00  0.00     0.184 HD
HETATM   13  C   UNK N   1      31.897  17.259   8.331  0.00  0.00     0.067 A 
HETATM   14  C   UNK N   1      30.542  17.220   8.702  0.00  0.00     0.063 A 
HETATM   15  C   UNK N   1      29.597  17.313   7.690  0.00  0.00     0.078 A 
HETATM   16  N   UNK N   1      28.263  17.271   7.810  0.00  0.00    -0.190 N 
HETATM   17  C   UNK N   1      27.825  17.349   6.530  0.00  0.00     0.679 A 
HETATM   18  N   UNK N   1      26.456  17.266   6.184  0.00  0.00    -0.224 N 
HETATM   19  H   UNK N   1      35.517  17.363   7.434  0.00  0.00     0.187 HD
HETATM   20  H   UNK N   1      34.879  16.873  10.889  0.00  0.00     0.174 HD
HETATM   21  H   UNK N   1      36.107  17.102   9.730  0.00  0.00     0.174 HD
HETATM   22  H   UNK N   1      27.727  17.200   8.632  0.00  0.00     0.184 HD
HETATM   23  H   UNK N   1      25.770  17.477   6.857  0.00  0.00     0.177 HD
ENDROOT
BRANCH  18  24
HETATM   24  C   UNK N   1      26.058  16.873   4.861  0.00  0.00     0.168 C 
BRANCH  24  25
HETATM   25  C   UNK N   1      24.664  17.363   4.539  0.00  0.00     0.292 C 
BRANCH  25  26
HETATM   26  N   UNK N   1      24.754  18.777   4.222  0.00  0.00     0.094 N 
HETATM   27  C   UNK N   1      25.887  18.994   3.326  0.00  0.00     0.298 C 
HETATM   28  C   UNK N   1      25.887  20.463   2.893  0.00  0.00     0.198 C 
HETATM   29  O   UNK N   1      24.702  20.741   2.186  0.00  0.00    -0.388 OA
HETATM   30  C   UNK N   1      23.639  20.628   3.100  0.00  0.00     0.198 C 
HETATM   31  C   UNK N   1      23.513  19.172   3.553  0.00  0.00     0.298 C 
ENDBRANCH  25  26
ENDBRANCH  24  25
ENDBRANCH  18  24
TORSDOF 3
ENDMDL
MODEL 4
REMARK VINA RESULT:      -7.4      6.413     10.255
REMARK  3 active torsions:
REMARK  status: ('A' for Active; 'I' for Inactive)
REMARK       I    between atoms: C_9  and  N_10 
REMARK       I    between atoms: C_17  and  N_18 
REMARK    1  A    between atoms: N_18  and  C_19 
REMARK    2  A    between atoms: C_19  and  C_20 
REMARK    3  A    between atoms: C_20  and  N_21 
ROOT
HETATM    1  N   UNK N   1      27.933  18.530   5.359  0.00  0.00    -0.190 N 
ATOM      2  HN  UNK N   1      27.870  18.407   4.349  1.00  0.00     0.184 HD
HETATM    3  C   UNK N   1      28.811  17.978   6.210  0.00  0.00     0.077 A 
HETATM    4  C   UNK N   1      29.846  17.090   5.926  0.00  0.00     0.052 A 
HETATM    5  C   UNK N   1      30.607  16.607   7.016  0.00  0.00     0.062 A 
HETATM    6  C   UNK N   1      31.664  15.704   6.842  0.00  0.00     0.272 A 
HETATM    7  O   UNK N   1      31.978  15.320   5.728  0.00  0.00    -0.267 OA
HETATM    8  N   UNK N   1      32.348  15.243   7.938  0.00  0.00    -0.156 N 
HETATM    9  C   UNK N   1      32.022  15.649   9.194  0.00  0.00     0.679 A 
HETATM   10  N   UNK N   1      32.732  15.142  10.300  0.00  0.00    -0.234 N 
HETATM   11  N   UNK N   1      31.012  16.536   9.389  0.00  0.00    -0.191 N 
ATOM     12  HN  UNK N   1      30.786  16.838  10.337  1.00  0.00     0.184 HD
HETATM   13  C   UNK N   1      30.300  17.027   8.344  0.00  0.00     0.067 A 
HETATM   14  C   UNK N   1      29.258  17.940   8.579  0.00  0.00     0.063 A 
HETATM   15  C   UNK N   1      28.541  18.393   7.479  0.00  0.00     0.078 A 
HETATM   16  N   UNK N   1      27.500  19.236   7.472  0.00  0.00    -0.190 N 
HETATM   17  C   UNK N   1      27.148  19.297   6.164  0.00  0.00     0.679 A 
HETATM   18  N   UNK N   1      26.030  20.031   5.708  0.00  0.00    -0.224 N 
HETATM   19  H   UNK N   1      33.088  14.607   7.811  0.00  0.00     0.187 HD
HETATM   20  H   UNK N   1      32.467  15.396  11.213  0.00  0.00     0.174 HD
HETATM   21  H   UNK N   1      33.493  14.534  10.160  0.00  0.00     0.174 HD
HETATM   22  H   UNK N   1      27.088  19.702   8.234  0.00  0.00     0.184 HD
HETATM   23  H   UNK N   1      25.675  20.769   6.253  0.00  0.00     0.177 HD
ENDROOT
BRANCH  18  24
HETATM   24  C   UNK N   1      25.403  19.708   4.455  0.00  0.00     0.168 C 
BRANCH  24  25
HETATM   25  C   UNK N   1      24.528  18.481   4.580  0.00  0.00     0.292 C 
BRANCH  25  26
HETATM   26  N   UNK N   1      23.304  18.733   3.841  0.00  0.00     0.094 N 
HETATM   27  C   UNK N   1      22.166  18.629   4.752  0.00  0.00     0.298 C 
HETATM   28  C   UNK N   1      20.899  19.031   3.992  0.00  0.00     0.198 C 
HETATM   29  O   UNK N   1      21.012  20.370   3.573  0.00  0.00    -0.388 OA
HETATM   30  C   UNK N   1      22.044  20.419   2.618  0.00  0.00     0.198 C 
HETATM   31  C   UNK N   1      23.376  20.090   3.294  0.00  0.00     0.298 C 
ENDBRANCH  25  26
ENDBRANCH  24  25
ENDBRANCH  18  24
TORSDOF 3
ENDMDL
MODEL 5
REMARK VINA RESULT:      -7.4      6.386      7.734
REMARK  3 active torsions:
REMARK  status: ('A' for Active; 'I' for Inactive)
REMARK       I    between atoms: C_9  and  N_10 
REMARK       I    between atoms: C_17  and  N_18 
REMARK    1  A    between atoms: N_18  and  C_19 
REMARK    2  A    between atoms: C_19  and  C_20 
REMARK    3  A    between atoms: C_20  and  N_21 
ROOT
HETATM    1  N   UNK N   1      27.104  17.929   4.994  0.00  0.00    -0.190 N 
ATOM      2  HN  UNK N   1      27.180  17.103   5.588  1.00  0.00     0.184 HD
HETATM    3  C   UNK N   1      25.992  18.522   4.534  0.00  0.00     0.077 A 
HETATM    4  C   UNK N   1      24.666  18.150   4.745  0.00  0.00     0.052 A 
HETATM    5  C   UNK N   1      23.665  18.916   4.102  0.00  0.00     0.062 A 
HETATM    6  C   UNK N   1      22.303  18.622   4.240  0.00  0.00     0.272 A 
HETATM    7  O   UNK N   1      21.932  17.698   4.945  0.00  0.00    -0.267 OA
HETATM    8  N   UNK N   1      21.376  19.378   3.569  0.00  0.00    -0.156 N 
HETATM    9  C   UNK N   1      21.754  20.413   2.773  0.00  0.00     0.679 A 
HETATM   10  N   UNK N   1      20.779  21.159   2.083  0.00  0.00    -0.234 N 
HETATM   11  N   UNK N   1      23.068  20.730   2.636  0.00  0.00    -0.191 N 
ATOM     12  HN  UNK N   1      23.335  21.515   2.042  1.00  0.00     0.184 HD
HETATM   13  C   UNK N   1      24.030  20.018   3.274  0.00  0.00     0.067 A 
HETATM   14  C   UNK N   1      25.381  20.367   3.108  0.00  0.00     0.063 A 
HETATM   15  C   UNK N   1      26.329  19.592   3.761  0.00  0.00     0.078 A 
HETATM   16  N   UNK N   1      27.662  19.724   3.723  0.00  0.00    -0.190 N 
HETATM   17  C   UNK N   1      28.107  18.693   4.481  0.00  0.00     0.679 A 
HETATM   18  N   UNK N   1      29.481  18.408   4.654  0.00  0.00    -0.224 N 
HETATM   19  H   UNK N   1      20.420  19.167   3.667  0.00  0.00     0.187 HD
HETATM   20  H   UNK N   1      21.053  21.878   1.468  0.00  0.00     0.174 HD
HETATM   21  H   UNK N   1      19.824  20.962   2.214  0.00  0.00     0.174 HD
HETATM   22  H   UNK N   1      28.194  20.409   3.257  0.00  0.00     0.184 HD
HETATM   23  H   UNK N   1      30.147  19.119   4.512  0.00  0.00     0.177 HD
ENDROOT
BRANCH  18  24
HETATM   24  C   UNK N   1      29.915  17.092   5.032  0.00  0.00     0.168 C 
BRANCH  24  25
HETATM   25  C   UNK N   1      30.268  17.031   6.501  0.00  0.00     0.292 C 
BRANCH  25  26
HETATM   26  N   UNK N   1      31.690  16.759   6.604  0.00  0.00     0.094 N 
HETATM   27  C   UNK N   1      32.314  16.978   5.302  0.00  0.00     0.298 C 
HETATM   28  C   UNK N   1      33.829  16.821   5.458  0.00  0.00     0.198 C 
HETATM   29  O   UNK N   1      34.310  17.796   6.351  0.00  0.00    -0.388 OA
HETATM   30  C   UNK N   1      33.777  17.495   7.619  0.00  0.00     0.198 C 
HETATM   31  C   UNK N   1      32.259  17.683   7.587  0.00  0.00     0.298 C 
ENDBRANCH  25  26
ENDBRANCH  24  25
ENDBRANCH  18  24
TORSDOF 3
ENDMDL
MODEL 6
REMARK VINA RESULT:      -7.3     10.777     14.888
REMARK  3 active torsions:
REMARK  status: ('A' for Active; 'I' for Inactive)
REMARK       I    between atoms: C_9  and  N_10 
REMARK       I    between atoms: C_17  and  N_18 
REMARK    1  A    between atoms: N_18  and  C_19 
REMARK    2  A    between atoms: C_19  and  C_20 
REMARK    3  A    between atoms: C_20  and  N_21 
ROOT
HETATM    1  N   UNK N   1      34.033  15.564   8.178  0.00  0.00    -0.190 N 
ATOM      2  HN  UNK N   1      33.750  14.948   7.415  1.00  0.00     0.184 HD
HETATM    3  C   UNK N   1      34.634  15.235   9.331  0.00  0.00     0.077 A 
HETATM    4  C   UNK N   1      35.014  13.971   9.776  0.00  0.00     0.052 A 
HETATM    5  C   UNK N   1      35.591  13.880  11.064  0.00  0.00     0.062 A 
HETATM    6  C   UNK N   1      35.999  12.657  11.611  0.00  0.00     0.272 A 
HETATM    7  O   UNK N   1      35.887  11.622  10.976  0.00  0.00    -0.267 OA
HETATM    8  N   UNK N   1      36.524  12.623  12.877  0.00  0.00    -0.156 N 
HETATM    9  C   UNK N   1      36.661  13.757  13.614  0.00  0.00     0.679 A 
HETATM   10  N   UNK N   1      37.186  13.686  14.919  0.00  0.00    -0.234 N 
HETATM   11  N   UNK N   1      36.289  14.958  13.102  0.00  0.00    -0.191 N 
ATOM     12  HN  UNK N   1      36.406  15.802  13.664  1.00  0.00     0.184 HD
HETATM   13  C   UNK N   1      35.763  15.055  11.855  0.00  0.00     0.067 A 
HETATM   14  C   UNK N   1      35.383  16.312  11.354  0.00  0.00     0.063 A 
HETATM   15  C   UNK N   1      34.826  16.354  10.083  0.00  0.00     0.078 A 
HETATM   16  N   UNK N   1      34.371  17.429   9.424  0.00  0.00    -0.190 N 
HETATM   17  C   UNK N   1      33.889  16.914   8.267  0.00  0.00     0.679 A 
HETATM   18  N   UNK N   1      33.240  17.704   7.291  0.00  0.00    -0.224 N 
HETATM   19  H   UNK N   1      36.807  11.760  13.259  0.00  0.00     0.187 HD
HETATM   20  H   UNK N   1      37.241  14.498  15.473  0.00  0.00     0.174 HD
HETATM   21  H   UNK N   1      37.498  12.824  15.278  0.00  0.00     0.174 HD
HETATM   22  H   UNK N   1      34.385  18.370   9.711  0.00  0.00     0.184 HD
HETATM   23  H   UNK N   1      33.405  18.674   7.261  0.00  0.00     0.177 HD
ENDROOT
BRANCH  18  24
HETATM   24  C   UNK N   1      32.341  17.106   6.344  0.00  0.00     0.168 C 
BRANCH  24  25
HETATM   25  C   UNK N   1      31.121  16.534   7.031  0.00  0.00     0.292 C 
BRANCH  25  26
HETATM   26  N   UNK N   1      30.413  17.633   7.663  0.00  0.00     0.094 N 
HETATM   27  C   UNK N   1      29.126  17.819   6.995  0.00  0.00     0.298 C 
HETATM   28  C   UNK N   1      28.336  18.887   7.756  0.00  0.00     0.198 C 
HETATM   29  O   UNK N   1      28.095  18.442   9.070  0.00  0.00    -0.388 OA
HETATM   30  C   UNK N   1      29.342  18.376   9.719  0.00  0.00     0.198 C 
HETATM   31  C   UNK N   1      30.195  17.286   9.068  0.00  0.00     0.298 C 
ENDBRANCH  25  26
ENDBRANCH  24  25
ENDBRANCH  18  24
TORSDOF 3
ENDMDL
MODEL 7
REMARK VINA RESULT:      -7.2      6.433      7.549
REMARK  3 active torsions:
REMARK  status: ('A' for Active; 'I' for Inactive)
REMARK       I    between atoms: C_9  and  N_10 
REMARK       I    between atoms: C_17  and  N_18 
REMARK    1  A    between atoms: N_18  and  C_19 
REMARK    2  A    between atoms: C_19  and  C_20 
REMARK    3  A    between atoms: C_20  and  N_21 
ROOT
HETATM    1  N   UNK N   1      27.877  17.869   4.647  0.00  0.00    -0.190 N 
ATOM      2  HN  UNK N   1      28.711  18.357   4.317  1.00  0.00     0.184 HD
HETATM    3  C   UNK N   1      26.592  18.158   4.394  0.00  0.00     0.077 A 
HETATM    4  C   UNK N   1      26.076  19.200   3.627  0.00  0.00     0.052 A 
HETATM    5  C   UNK N   1      24.669  19.321   3.555  0.00  0.00     0.062 A 
HETATM    6  C   UNK N   1      24.047  20.338   2.819  0.00  0.00     0.272 A 
HETATM    7  O   UNK N   1      24.710  21.147   2.192  0.00  0.00    -0.267 OA
HETATM    8  N   UNK N   1      22.679  20.427   2.810  0.00  0.00    -0.156 N 
HETATM    9  C   UNK N   1      21.910  19.543   3.500  0.00  0.00     0.679 A 
HETATM   10  N   UNK N   1      20.508  19.674   3.486  0.00  0.00    -0.234 N 
HETATM   11  N   UNK N   1      22.487  18.538   4.208  0.00  0.00    -0.191 N 
ATOM     12  HN  UNK N   1      21.896  17.877   4.714  1.00  0.00     0.184 HD
HETATM   13  C   UNK N   1      23.835  18.398   4.255  0.00  0.00     0.067 A 
HETATM   14  C   UNK N   1      24.403  17.350   5.000  0.00  0.00     0.063 A 
HETATM   15  C   UNK N   1      25.788  17.267   5.038  0.00  0.00     0.078 A 
HETATM   16  N   UNK N   1      26.536  16.375   5.702  0.00  0.00    -0.190 N 
HETATM   17  C   UNK N   1      27.806  16.771   5.447  0.00  0.00     0.679 A 
HETATM   18  N   UNK N   1      28.933  16.140   6.022  0.00  0.00    -0.224 N 
HETATM   19  H   UNK N   1      22.246  21.145   2.293  0.00  0.00     0.187 HD
HETATM   20  H   UNK N   1      19.951  19.065   4.023  0.00  0.00     0.174 HD
HETATM   21  H   UNK N   1      20.084  20.373   2.938  0.00  0.00     0.174 HD
HETATM   22  H   UNK N   1      26.235  15.611   6.245  0.00  0.00     0.184 HD
HETATM   23  H   UNK N   1      28.860  15.215   6.349  0.00  0.00     0.177 HD
ENDROOT
BRANCH  18  24
HETATM   24  C   UNK N   1      30.185  16.837   6.135  0.00  0.00     0.168 C 
BRANCH  24  25
HETATM   25  C   UNK N   1      30.644  16.911   7.574  0.00  0.00     0.292 C 
BRANCH  25  26
HETATM   26  N   UNK N   1      32.094  16.833   7.580  0.00  0.00     0.094 N 
HETATM   27  C   UNK N   1      32.576  16.784   6.202  0.00  0.00     0.298 C 
HETATM   28  C   UNK N   1      34.106  16.840   6.222  0.00  0.00     0.198 C 
HETATM   29  O   UNK N   1      34.521  18.056   6.796  0.00  0.00    -0.388 OA
HETATM   30  C   UNK N   1      34.137  18.027   8.149  0.00  0.00     0.198 C 
HETATM   31  C   UNK N   1      32.611  18.032   8.243  0.00  0.00     0.298 C 
ENDBRANCH  25  26
ENDBRANCH  24  25
ENDBRANCH  18  24
TORSDOF 3
ENDMDL
MODEL 8
REMARK VINA RESULT:      -7.1     14.557     16.834
REMARK  3 active torsions:
REMARK  status: ('A' for Active; 'I' for Inactive)
REMARK       I    between atoms: C_9  and  N_10 
REMARK       I    between atoms: C_17  and  N_18 
REMARK    1  A    between atoms: N_18  and  C_19 
REMARK    2  A    between atoms: C_19  and  C_20 
REMARK    3  A    between atoms: C_20  and  N_21 
ROOT
HETATM    1  N   UNK N   1      27.333  24.496  -5.177  0.00  0.00    -0.190 N 
ATOM      2  HN  UNK N   1      26.993  25.224  -4.548  1.00  0.00     0.184 HD
HETATM    3  C   UNK N   1      28.303  23.595  -4.957  0.00  0.00     0.077 A 
HETATM    4  C   UNK N   1      29.093  23.439  -3.820  0.00  0.00     0.052 A 
HETATM    5  C   UNK N   1      30.092  22.438  -3.855  0.00  0.00     0.062 A 
HETATM    6  C   UNK N   1      30.947  22.203  -2.770  0.00  0.00     0.272 A 
HETATM    7  O   UNK N   1      30.839  22.850  -1.741  0.00  0.00    -0.267 OA
HETATM    8  N   UNK N   1      31.919  21.241  -2.870  0.00  0.00    -0.156 N 
HETATM    9  C   UNK N   1      32.068  20.505  -4.003  0.00  0.00     0.679 A 
HETATM   10  N   UNK N   1      33.088  19.537  -4.080  0.00  0.00    -0.234 N 
HETATM   11  N   UNK N   1      31.242  20.700  -5.063  0.00  0.00    -0.191 N 
ATOM     12  HN  UNK N   1      31.360  20.133  -5.903  1.00  0.00     0.184 HD
HETATM   13  C   UNK N   1      30.262  21.637  -5.024  0.00  0.00     0.067 A 
HETATM   14  C   UNK N   1      29.426  21.819  -6.139  0.00  0.00     0.063 A 
HETATM   15  C   UNK N   1      28.456  22.809  -6.059  0.00  0.00     0.078 A 
HETATM   16  N   UNK N   1      27.576  23.172  -7.003  0.00  0.00    -0.190 N 
HETATM   17  C   UNK N   1      26.908  24.206  -6.437  0.00  0.00     0.679 A 
HETATM   18  N   UNK N   1      25.920  24.946  -7.126  0.00  0.00    -0.224 N 
HETATM   19  H   UNK N   1      32.519  21.082  -2.106  0.00  0.00     0.187 HD
HETATM   20  H   UNK N   1      33.230  19.036  -4.916  0.00  0.00     0.174 HD
HETATM   21  H   UNK N   1      33.660  19.361  -3.299  0.00  0.00     0.174 HD
HETATM   22  H   UNK N   1      27.445  22.779  -7.896  0.00  0.00     0.184 HD
HETATM   23  H   UNK N   1      25.458  24.543  -7.896  0.00  0.00     0.177 HD
ENDROOT
BRANCH  18  24
HETATM   24  C   UNK N   1      25.586  26.281  -6.714  0.00  0.00     0.168 C 
BRANCH  24  25
HETATM   25  C   UNK N   1      26.704  27.249  -7.028  0.00  0.00     0.292 C 
BRANCH  25  26
HETATM   26  N   UNK N   1      26.844  28.147  -5.896  0.00  0.00     0.094 N 
HETATM   27  C   UNK N   1      25.813  27.835  -4.909  0.00  0.00     0.298 C 
HETATM   28  C   UNK N   1      26.056  28.696  -3.666  0.00  0.00     0.198 C 
HETATM   29  O   UNK N   1      27.311  28.375  -3.115  0.00  0.00    -0.388 OA
HETATM   30  C   UNK N   1      28.287  28.784  -4.042  0.00  0.00     0.198 C 
HETATM   31  C   UNK N   1      28.169  27.937  -5.310  0.00  0.00     0.298 C 
ENDBRANCH  25  26
ENDBRANCH  24  25
ENDBRANCH  18  24
TORSDOF 3
ENDMDL
MODEL 9
REMARK VINA RESULT:      -7.1      9.550     11.469
REMARK  3 active torsions:
REMARK  status: ('A' for Active; 'I' for Inactive)
REMARK       I    between atoms: C_9  and  N_10 
REMARK       I    between atoms: C_17  and  N_18 
REMARK    1  A    between atoms: N_18  and  C_19 
REMARK    2  A    between atoms: C_19  and  C_20 
REMARK    3  A    between atoms: C_20  and  N_21 
ROOT
HETATM    1  N   UNK N   1      32.619  16.001   9.384  0.00  0.00    -0.190 N 
ATOM      2  HN  UNK N   1      32.602  15.811  10.387  1.00  0.00     0.184 HD
HETATM    3  C   UNK N   1      31.652  16.535   8.624  0.00  0.00     0.077 A 
HETATM    4  C   UNK N   1      30.381  16.953   9.012  0.00  0.00     0.052 A 
HETATM    5  C   UNK N   1      29.518  17.439   8.001  0.00  0.00     0.062 A 
HETATM    6  C   UNK N   1      28.217  17.876   8.282  0.00  0.00     0.272 A 
HETATM    7  O   UNK N   1      27.791  17.870   9.425  0.00  0.00    -0.267 OA
HETATM    8  N   UNK N   1      27.413  18.307   7.259  0.00  0.00    -0.156 N 
HETATM    9  C   UNK N   1      27.855  18.324   5.974  0.00  0.00     0.679 A 
HETATM   10  N   UNK N   1      26.998  18.756   4.943  0.00  0.00    -0.234 N 
HETATM   11  N   UNK N   1      29.118  17.922   5.677  0.00  0.00    -0.191 N 
ATOM     12  HN  UNK N   1      29.438  17.949   4.708  1.00  0.00     0.184 HD
HETATM   13  C   UNK N   1      29.960  17.484   6.646  0.00  0.00     0.067 A 
HETATM   14  C   UNK N   1      31.259  17.070   6.306  0.00  0.00     0.063 A 
HETATM   15  C   UNK N   1      32.073  16.606   7.330  0.00  0.00     0.078 A 
HETATM   16  N   UNK N   1      33.325  16.139   7.233  0.00  0.00    -0.190 N 
HETATM   17  C   UNK N   1      33.629  15.774   8.502  0.00  0.00     0.679 A 
HETATM   18  N   UNK N   1      34.852  15.153   8.846  0.00  0.00    -0.224 N 
HETATM   19  H   UNK N   1      26.499  18.611   7.461  0.00  0.00     0.187 HD
HETATM   20  H   UNK N   1      27.299  18.724   4.006  0.00  0.00     0.174 HD
HETATM   21  H   UNK N   1      26.098  19.091   5.159  0.00  0.00     0.174 HD
HETATM   22  H   UNK N   1      33.892  16.077   6.431  0.00  0.00     0.184 HD
HETATM   23  H   UNK N   1      35.636  15.264   8.261  0.00  0.00     0.177 HD
ENDROOT
BRANCH  18  24
HETATM   24  C   UNK N   1      34.961  14.361  10.040  0.00  0.00     0.168 C 
BRANCH  24  25
HETATM   25  C   UNK N   1      36.231  14.680  10.797  0.00  0.00     0.292 C 
BRANCH  25  26
HETATM   26  N   UNK N   1      36.243  13.873  12.003  0.00  0.00     0.094 N 
HETATM   27  C   UNK N   1      36.209  14.753  13.168  0.00  0.00     0.298 C 
HETATM   28  C   UNK N   1      36.083  13.888  14.425  0.00  0.00     0.198 C 
HETATM   29  O   UNK N   1      34.875  13.168  14.377  0.00  0.00    -0.388 OA
HETATM   30  C   UNK N   1      34.980  12.254  13.312  0.00  0.00     0.198 C 
HETATM   31  C   UNK N   1      35.051  13.022  11.991  0.00  0.00     0.298 C 
ENDBRANCH  25  26
ENDBRANCH  24  25
ENDBRANCH  18  24
TORSDOF 3
ENDMDL
