MODEL 1
REMARK VINA RESULT:      -6.3      0.000      0.000
REMARK  13 active torsions:
REMARK  status: ('A' for Active; 'I' for Inactive)
REMARK    1  A    between atoms: C_1  and  C_4 
REMARK       I    between atoms: C_4  and  N_6 
REMARK    2  A    between atoms: C_7  and  N_6 
REMARK    3  A    between atoms: C_7  and  C_8 
REMARK    4  A    between atoms: C_7  and  C_9 
REMARK    5  A    between atoms: C_8  and  O_20 
REMARK    6  A    between atoms: C_9  and  O_10 
REMARK    7  A    between atoms: C_9  and  C_11 
REMARK    8  A    between atoms: C_14  and  N_15 
REMARK    9  A    between atoms: O_20  and  C_26 
REMARK   10  A    between atoms: C_22  and  O_23 
REMARK   11  A    between atoms: C_22  and  C_24 
REMARK   12  A    between atoms: C_24  and  C_25 
REMARK   13  A    between atoms: C_25  and  C_26 
ROOT
HETATM    1  C   UNK N   1      22.835  17.232   5.004  0.00  0.00     0.142 C 
ENDROOT
BRANCH   1   2
HETATM    2  N   UNK N   1      23.443  18.536   4.774  0.00  0.00    -0.349 N 
HETATM    3  C   UNK N   1      24.781  18.769   4.670  0.00  0.00     0.251 C 
HETATM    4  O   UNK N   1      25.580  17.848   4.741  0.00  0.00    -0.271 OA
HETATM    5  H   UNK N   1      22.840  19.309   4.685  0.00  0.00     0.163 HD
BRANCH   3   6
HETATM    6  C   UNK N   1      25.304  20.171   4.507  0.00  0.00     0.269 C 
HETATM    7 Cl   UNK N   1      25.852  20.540   2.848  0.00  0.00    -0.098 Cl
HETATM    8 Cl   UNK N   1      26.630  20.491   5.653  0.00  0.00    -0.098 Cl
ENDBRANCH   3   6
ENDBRANCH   1   2
BRANCH   1   9
HETATM    9  C   UNK N   1      22.411  16.580   3.678  0.00  0.00     0.206 C 
BRANCH   9  10
HETATM   10  O   UNK N   1      21.046  16.617   3.502  0.00  0.00    -0.319 OA
BRANCH  10  11
HETATM   11  C   UNK N   1      20.465  17.055   2.358  0.00  0.00     0.259 C 
HETATM   12  O   UNK N   1      20.541  16.370   1.351  0.00  0.00    -0.265 OA
BRANCH  11  13
HETATM   13  C   UNK N   1      19.739  18.368   2.289  0.00  0.00     0.121 C 
BRANCH  13  14
HETATM   14  C   UNK N   1      20.676  19.476   1.826  0.00  0.00     0.119 C 
BRANCH  14  15
HETATM   15  C   UNK N   1      21.267  20.251   2.968  0.00  0.00     0.139 C 
HETATM   16  O   UNK N   1      22.288  20.895   2.791  0.00  0.00    -0.650 OA
BRANCH  15  17
HETATM   17  O   UNK N   1      20.680  20.254   4.180  0.00  0.00    -0.776 OA
HETATM   18  H   UNK N   1      20.980  19.673   4.851  0.00  0.00     0.167 HD
ENDBRANCH  15  17
ENDBRANCH  14  15
ENDBRANCH  13  14
ENDBRANCH  11  13
ENDBRANCH  10  11
ENDBRANCH   9  10
ENDBRANCH   1   9
BRANCH   1  19
HETATM   19  C   UNK N   1      21.591  17.414   5.910  0.00  0.00     0.176 C 
BRANCH  19  20
HETATM   20  O   UNK N   1      21.632  18.687   6.493  0.00  0.00    -0.389 OA
HETATM   21  H   UNK N   1      21.672  18.866   7.446  0.00  0.00     0.210 HD
ENDBRANCH  19  20
BRANCH  19  22
HETATM   22  C   UNK N   1      21.480  16.353   6.998  0.00  0.00    -0.028 A 
HETATM   23  C   UNK N   1      20.517  16.475   8.008  0.00  0.00     0.012 A 
HETATM   24  C   UNK N   1      20.401  15.512   9.010  0.00  0.00     0.037 A 
HETATM   25  C   UNK N   1      21.268  14.413   9.039  0.00  0.00     0.102 A 
HETATM   26  C   UNK N   1      22.250  14.291   8.044  0.00  0.00     0.037 A 
HETATM   27  C   UNK N   1      22.352  15.250   7.028  0.00  0.00     0.012 A 
BRANCH  25  28
HETATM   28  N   UNK N   1      21.155  13.438  10.069  0.00  0.00    -0.116 N 
HETATM   29  O   UNK N   1      19.968  13.027  10.464  0.00  0.00    -0.532 OA
HETATM   30  O   UNK N   1      22.133  12.977  10.573  0.00  0.00    -0.532 OA
ENDBRANCH  25  28
ENDBRANCH  19  22
ENDBRANCH   1  19
TORSDOF 13
ENDMDL
MODEL 2
REMARK VINA RESULT:      -6.1     13.512     15.684
REMARK  13 active torsions:
REMARK  status: ('A' for Active; 'I' for Inactive)
REMARK    1  A    between atoms: C_1  and  C_4 
REMARK       I    between atoms: C_4  and  N_6 
REMARK    2  A    between atoms: C_7  and  N_6 
REMARK    3  A    between atoms: C_7  and  C_8 
REMARK    4  A    between atoms: C_7  and  C_9 
REMARK    5  A    between atoms: C_8  and  O_20 
REMARK    6  A    between atoms: C_9  and  O_10 
REMARK    7  A    between atoms: C_9  and  C_11 
REMARK    8  A    between atoms: C_14  and  N_15 
REMARK    9  A    between atoms: O_20  and  C_26 
REMARK   10  A    between atoms: C_22  and  O_23 
REMARK   11  A    between atoms: C_22  and  C_24 
REMARK   12  A    between atoms: C_24  and  C_25 
REMARK   13  A    between atoms: C_25  and  C_26 
ROOT
HETATM    1  C   UNK N   1      27.892  25.721  -3.562  0.00  0.00     0.142 C 
ENDROOT
BRANCH   1   2
HETATM    2  N   UNK N   1      28.011  26.996  -4.254  0.00  0.00    -0.349 N 
HETATM    3  C   UNK N   1      27.595  28.196  -3.762  0.00  0.00     0.251 C 
HETATM    4  O   UNK N   1      27.101  28.273  -2.649  0.00  0.00    -0.271 OA
HETATM    5  H   UNK N   1      28.425  26.991  -5.148  0.00  0.00     0.163 HD
BRANCH   3   6
HETATM    6  C   UNK N   1      27.699  29.444  -4.598  0.00  0.00     0.269 C 
HETATM    7 Cl   UNK N   1      26.461  30.670  -4.207  0.00  0.00    -0.098 Cl
HETATM    8 Cl   UNK N   1      27.616  29.053  -6.334  0.00  0.00    -0.098 Cl
ENDBRANCH   3   6
ENDBRANCH   1   2
BRANCH   1   9
HETATM    9  C   UNK N   1      28.937  24.715  -4.075  0.00  0.00     0.206 C 
BRANCH   9  10
HETATM   10  O   UNK N   1      29.120  23.672  -3.196  0.00  0.00    -0.319 OA
BRANCH  10  11
HETATM   11  C   UNK N   1      30.342  23.303  -2.740  0.00  0.00     0.259 C 
HETATM   12  O   UNK N   1      30.479  23.025  -1.559  0.00  0.00    -0.265 OA
BRANCH  11  13
HETATM   13  C   UNK N   1      31.541  23.237  -3.643  0.00  0.00     0.121 C 
BRANCH  13  14
HETATM   14  C   UNK N   1      31.825  21.798  -4.055  0.00  0.00     0.119 C 
BRANCH  14  15
HETATM   15  C   UNK N   1      32.923  21.170  -3.248  0.00  0.00     0.139 C 
HETATM   16  O   UNK N   1      33.894  20.701  -3.819  0.00  0.00    -0.650 OA
BRANCH  15  17
HETATM   17  O   UNK N   1      32.857  21.125  -1.903  0.00  0.00    -0.776 OA
HETATM   18  H   UNK N   1      32.212  20.593  -1.480  0.00  0.00     0.167 HD
ENDBRANCH  15  17
ENDBRANCH  14  15
ENDBRANCH  13  14
ENDBRANCH  11  13
ENDBRANCH  10  11
ENDBRANCH   9  10
ENDBRANCH   1   9
BRANCH   1  19
HETATM   19  C   UNK N   1      26.470  25.153  -3.800  0.00  0.00     0.176 C 
BRANCH  19  20
HETATM   20  O   UNK N   1      26.298  24.005  -3.017  0.00  0.00    -0.389 OA
HETATM   21  H   UNK N   1      26.759  23.161  -3.150  0.00  0.00     0.210 HD
ENDBRANCH  19  20
BRANCH  19  22
HETATM   22  C   UNK N   1      26.191  24.825  -5.262  0.00  0.00    -0.028 A 
HETATM   23  C   UNK N   1      25.941  25.852  -6.180  0.00  0.00     0.012 A 
HETATM   24  C   UNK N   1      25.686  25.569  -7.522  0.00  0.00     0.037 A 
HETATM   25  C   UNK N   1      25.649  24.243  -7.971  0.00  0.00     0.102 A 
HETATM   26  C   UNK N   1      25.878  23.205  -7.056  0.00  0.00     0.037 A 
HETATM   27  C   UNK N   1      26.154  23.493  -5.713  0.00  0.00     0.012 A 
BRANCH  25  28
HETATM   28  N   UNK N   1      25.377  23.957  -9.338  0.00  0.00    -0.116 N 
HETATM   29  O   UNK N   1      24.850  24.879 -10.116  0.00  0.00    -0.532 OA
HETATM   30  O   UNK N   1      25.636  22.884  -9.792  0.00  0.00    -0.532 OA
ENDBRANCH  25  28
ENDBRANCH  19  22
ENDBRANCH   1  19
TORSDOF 13
ENDMDL
MODEL 3
REMARK VINA RESULT:      -6.1      3.489      7.042
REMARK  13 active torsions:
REMARK  status: ('A' for Active; 'I' for Inactive)
REMARK    1  A    between atoms: C_1  and  C_4 
REMARK       I    between atoms: C_4  and  N_6 
REMARK    2  A    between atoms: C_7  and  N_6 
REMARK    3  A    between atoms: C_7  and  C_8 
REMARK    4  A    between atoms: C_7  and  C_9 
REMARK    5  A    between atoms: C_8  and  O_20 
REMARK    6  A    between atoms: C_9  and  O_10 
REMARK    7  A    between atoms: C_9  and  C_11 
REMARK    8  A    between atoms: C_14  and  N_15 
REMARK    9  A    between atoms: O_20  and  C_26 
REMARK   10  A    between atoms: C_22  and  O_23 
REMARK   11  A    between atoms: C_22  and  C_24 
REMARK   12  A    between atoms: C_24  and  C_25 
REMARK   13  A    between atoms: C_25  and  C_26 
ROOT
HETATM    1  C   UNK N   1      21.034  14.855   4.522  0.00  0.00     0.142 C 
ENDROOT
BRANCH   1   2
HETATM    2  N   UNK N   1      20.985  14.219   3.213  0.00  0.00    -0.349 N 
HETATM    3  C   UNK N   1      21.837  14.480   2.183  0.00  0.00     0.251 C 
HETATM    4  O   UNK N   1      22.749  15.281   2.319  0.00  0.00    -0.271 OA
HETATM    5  H   UNK N   1      20.282  13.547   3.060  0.00  0.00     0.163 HD
BRANCH   3   6
HETATM    6  C   UNK N   1      21.647  13.817   0.844  0.00  0.00     0.269 C 
HETATM    7 Cl   UNK N   1      20.402  12.539   0.852  0.00  0.00    -0.098 Cl
HETATM    8 Cl   UNK N   1      23.184  13.143   0.247  0.00  0.00    -0.098 Cl
ENDBRANCH   3   6
ENDBRANCH   1   2
BRANCH   1   9
HETATM    9  C   UNK N   1      20.817  13.825   5.644  0.00  0.00     0.206 C 
BRANCH   9  10
HETATM   10  O   UNK N   1      19.934  14.283   6.596  0.00  0.00    -0.319 OA
BRANCH  10  11
HETATM   11  C   UNK N   1      20.325  14.656   7.839  0.00  0.00     0.259 C 
HETATM   12  O   UNK N   1      20.253  13.850   8.753  0.00  0.00    -0.265 OA
BRANCH  11  13
HETATM   13  C   UNK N   1      20.832  16.040   8.132  0.00  0.00     0.121 C 
BRANCH  13  14
HETATM   14  C   UNK N   1      19.735  16.895   8.751  0.00  0.00     0.119 C 
BRANCH  14  15
HETATM   15  C   UNK N   1      20.082  18.355   8.778  0.00  0.00     0.139 C 
HETATM   16  O   UNK N   1      19.849  19.008   9.782  0.00  0.00    -0.650 OA
BRANCH  15  17
HETATM   17  O   UNK N   1      20.655  18.950   7.715  0.00  0.00    -0.776 OA
HETATM   18  H   UNK N   1      20.681  18.513   6.886  0.00  0.00     0.167 HD
ENDBRANCH  15  17
ENDBRANCH  14  15
ENDBRANCH  13  14
ENDBRANCH  11  13
ENDBRANCH  10  11
ENDBRANCH   9  10
ENDBRANCH   1   9
BRANCH   1  19
HETATM   19  C   UNK N   1      19.927  15.937   4.594  0.00  0.00     0.176 C 
BRANCH  19  20
HETATM   20  O   UNK N   1      18.793  15.477   3.914  0.00  0.00    -0.389 OA
HETATM   21  H   UNK N   1      18.801  14.879   3.150  0.00  0.00     0.210 HD
ENDBRANCH  19  20
BRANCH  19  22
HETATM   22  C   UNK N   1      20.361  17.280   4.022  0.00  0.00    -0.028 A 
HETATM   23  C   UNK N   1      19.597  17.904   3.027  0.00  0.00     0.012 A 
HETATM   24  C   UNK N   1      19.980  19.135   2.494  0.00  0.00     0.037 A 
HETATM   25  C   UNK N   1      21.156  19.759   2.927  0.00  0.00     0.102 A 
HETATM   26  C   UNK N   1      21.939  19.134   3.908  0.00  0.00     0.037 A 
HETATM   27  C   UNK N   1      21.542  17.907   4.457  0.00  0.00     0.012 A 
BRANCH  25  28
HETATM   28  N   UNK N   1      21.549  21.009   2.373  0.00  0.00    -0.116 N 
HETATM   29  O   UNK N   1      20.893  21.516   1.351  0.00  0.00    -0.532 OA
HETATM   30  O   UNK N   1      22.469  21.611   2.838  0.00  0.00    -0.532 OA
ENDBRANCH  25  28
ENDBRANCH  19  22
ENDBRANCH   1  19
TORSDOF 13
ENDMDL
MODEL 4
REMARK VINA RESULT:      -6.0     14.004     16.115
REMARK  13 active torsions:
REMARK  status: ('A' for Active; 'I' for Inactive)
REMARK    1  A    between atoms: C_1  and  C_4 
REMARK       I    between atoms: C_4  and  N_6 
REMARK    2  A    between atoms: C_7  and  N_6 
REMARK    3  A    between atoms: C_7  and  C_8 
REMARK    4  A    between atoms: C_7  and  C_9 
REMARK    5  A    between atoms: C_8  and  O_20 
REMARK    6  A    between atoms: C_9  and  O_10 
REMARK    7  A    between atoms: C_9  and  C_11 
REMARK    8  A    between atoms: C_14  and  N_15 
REMARK    9  A    between atoms: O_20  and  C_26 
REMARK   10  A    between atoms: C_22  and  O_23 
REMARK   11  A    between atoms: C_22  and  C_24 
REMARK   12  A    between atoms: C_24  and  C_25 
REMARK   13  A    between atoms: C_25  and  C_26 
ROOT
HETATM    1  C   UNK N   1      35.283  12.768  12.150  0.00  0.00     0.142 C 
ENDROOT
BRANCH   1   2
HETATM    2  N   UNK N   1      35.533  11.422  11.654  0.00  0.00    -0.349 N 
HETATM    3  C   UNK N   1      34.769  10.329  11.934  0.00  0.00     0.251 C 
HETATM    4  O   UNK N   1      33.770  10.431  12.628  0.00  0.00    -0.271 OA
HETATM    5  H   UNK N   1      36.315  11.291  11.070  0.00  0.00     0.163 HD
BRANCH   3   6
HETATM    6  C   UNK N   1      35.166   8.968  11.428  0.00  0.00     0.269 C 
HETATM    7 Cl   UNK N   1      33.780   7.966  10.914  0.00  0.00    -0.098 Cl
HETATM    8 Cl   UNK N   1      36.111   8.085  12.653  0.00  0.00    -0.098 Cl
ENDBRANCH   3   6
ENDBRANCH   1   2
BRANCH   1   9
HETATM    9  C   UNK N   1      35.058  13.751  10.989  0.00  0.00     0.206 C 
BRANCH   9  10
HETATM   10  O   UNK N   1      34.876  15.039  11.436  0.00  0.00    -0.319 OA
BRANCH  10  11
HETATM   11  C   UNK N   1      34.972  16.119  10.622  0.00  0.00     0.259 C 
HETATM   12  O   UNK N   1      35.351  17.183  11.086  0.00  0.00    -0.265 OA
BRANCH  11  13
HETATM   13  C   UNK N   1      34.613  16.050   9.165  0.00  0.00     0.121 C 
BRANCH  13  14
HETATM   14  C   UNK N   1      33.724  17.223   8.774  0.00  0.00     0.119 C 
BRANCH  14  15
HETATM   15  C   UNK N   1      34.421  18.208   7.880  0.00  0.00     0.139 C 
HETATM   16  O   UNK N   1      35.051  19.127   8.376  0.00  0.00    -0.650 OA
BRANCH  15  17
HETATM   17  O   UNK N   1      34.368  18.084   6.540  0.00  0.00    -0.776 OA
HETATM   18  H   UNK N   1      34.204  18.834   6.002  0.00  0.00     0.167 HD
ENDBRANCH  15  17
ENDBRANCH  14  15
ENDBRANCH  13  14
ENDBRANCH  11  13
ENDBRANCH  10  11
ENDBRANCH   9  10
ENDBRANCH   1   9
BRANCH   1  19
HETATM   19  C   UNK N   1      36.504  13.228  12.986  0.00  0.00     0.176 C 
BRANCH  19  20
HETATM   20  O   UNK N   1      37.516  12.266  12.885  0.00  0.00    -0.389 OA
HETATM   21  H   UNK N   1      38.386  12.320  13.312  0.00  0.00     0.210 HD
ENDBRANCH  19  20
BRANCH  19  22
HETATM   22  C   UNK N   1      36.171  13.472  14.453  0.00  0.00    -0.028 A 
HETATM   23  C   UNK N   1      36.950  14.350  15.217  0.00  0.00     0.012 A 
HETATM   24  C   UNK N   1      36.657  14.586  16.560  0.00  0.00     0.037 A 
HETATM   25  C   UNK N   1      35.589  13.924  17.179  0.00  0.00     0.102 A 
HETATM   26  C   UNK N   1      34.815  13.028  16.428  0.00  0.00     0.037 A 
HETATM   27  C   UNK N   1      35.098  12.808  15.074  0.00  0.00     0.012 A 
BRANCH  25  28
HETATM   28  N   UNK N   1      35.300  14.159  18.552  0.00  0.00    -0.116 N 
HETATM   29  O   UNK N   1      35.336  13.165  19.415  0.00  0.00    -0.532 OA
HETATM   30  O   UNK N   1      35.034  15.258  18.933  0.00  0.00    -0.532 OA
ENDBRANCH  25  28
ENDBRANCH  19  22
ENDBRANCH   1  19
TORSDOF 13
ENDMDL
MODEL 5
REMARK VINA RESULT:      -6.0      5.642      8.503
REMARK  13 active torsions:
REMARK  status: ('A' for Active; 'I' for Inactive)
REMARK    1  A    between atoms: C_1  and  C_4 
REMARK       I    between atoms: C_4  and  N_6 
REMARK    2  A    between atoms: C_7  and  N_6 
REMARK    3  A    between atoms: C_7  and  C_8 
REMARK    4  A    between atoms: C_7  and  C_9 
REMARK    5  A    between atoms: C_8  and  O_20 
REMARK    6  A    between atoms: C_9  and  O_10 
REMARK    7  A    between atoms: C_9  and  C_11 
REMARK    8  A    between atoms: C_14  and  N_15 
REMARK    9  A    between atoms: O_20  and  C_26 
REMARK   10  A    between atoms: C_22  and  O_23 
REMARK   11  A    between atoms: C_22  and  C_24 
REMARK   12  A    between atoms: C_24  and  C_25 
REMARK   13  A    between atoms: C_25  and  C_26 
ROOT
HETATM    1  C   UNK N   1      27.635  17.061   6.481  0.00  0.00     0.142 C 
ENDROOT
BRANCH   1   2
HETATM    2  N   UNK N   1      27.025  18.352   6.190  0.00  0.00    -0.349 N 
HETATM    3  C   UNK N   1      27.482  19.244   5.269  0.00  0.00     0.251 C 
HETATM    4  O   UNK N   1      28.460  18.986   4.585  0.00  0.00    -0.271 OA
HETATM    5  H   UNK N   1      26.219  18.597   6.699  0.00  0.00     0.163 HD
BRANCH   3   6
HETATM    6  C   UNK N   1      26.815  20.584   5.105  0.00  0.00     0.269 C 
HETATM    7 Cl   UNK N   1      26.397  21.368   6.653  0.00  0.00    -0.098 Cl
HETATM    8 Cl   UNK N   1      25.353  20.446   4.098  0.00  0.00    -0.098 Cl
ENDBRANCH   3   6
ENDBRANCH   1   2
BRANCH   1   9
HETATM    9  C   UNK N   1      26.576  15.947   6.519  0.00  0.00     0.206 C 
BRANCH   9  10
HETATM   10  O   UNK N   1      26.467  15.302   5.307  0.00  0.00    -0.319 OA
BRANCH  10  11
HETATM   11  C   UNK N   1      25.790  15.826   4.255  0.00  0.00     0.259 C 
HETATM   12  O   UNK N   1      24.570  15.836   4.278  0.00  0.00    -0.265 OA
BRANCH  11  13
HETATM   13  C   UNK N   1      26.498  16.384   3.054  0.00  0.00     0.121 C 
BRANCH  13  14
HETATM   14  C   UNK N   1      27.595  15.436   2.588  0.00  0.00     0.119 C 
BRANCH  14  15
HETATM   15  C   UNK N   1      28.948  15.806   3.125  0.00  0.00     0.139 C 
HETATM   16  O   UNK N   1      29.545  15.020   3.841  0.00  0.00    -0.650 OA
BRANCH  15  17
HETATM   17  O   UNK N   1      29.515  16.989   2.817  0.00  0.00    -0.776 OA
HETATM   18  H   UNK N   1      30.240  17.025   2.224  0.00  0.00     0.167 HD
ENDBRANCH  15  17
ENDBRANCH  14  15
ENDBRANCH  13  14
ENDBRANCH  11  13
ENDBRANCH  10  11
ENDBRANCH   9  10
ENDBRANCH   1   9
BRANCH   1  19
HETATM   19  C   UNK N   1      28.347  17.143   7.855  0.00  0.00     0.176 C 
BRANCH  19  20
HETATM   20  O   UNK N   1      27.754  18.156   8.618  0.00  0.00    -0.389 OA
HETATM   21  H   UNK N   1      28.222  18.911   9.008  0.00  0.00     0.210 HD
ENDBRANCH  19  20
BRANCH  19  22
HETATM   22  C   UNK N   1      29.845  17.393   7.742  0.00  0.00    -0.028 A 
HETATM   23  C   UNK N   1      30.557  16.927   6.629  0.00  0.00     0.012 A 
HETATM   24  C   UNK N   1      31.929  17.150   6.509  0.00  0.00     0.037 A 
HETATM   25  C   UNK N   1      32.627  17.825   7.518  0.00  0.00     0.102 A 
HETATM   26  C   UNK N   1      31.928  18.279   8.646  0.00  0.00     0.037 A 
HETATM   27  C   UNK N   1      30.546  18.071   8.755  0.00  0.00     0.012 A 
BRANCH  25  28
HETATM   28  N   UNK N   1      34.028  18.041   7.398  0.00  0.00    -0.116 N 
HETATM   29  O   UNK N   1      34.659  18.795   8.273  0.00  0.00    -0.532 OA
HETATM   30  O   UNK N   1      34.643  17.532   6.511  0.00  0.00    -0.532 OA
ENDBRANCH  25  28
ENDBRANCH  19  22
ENDBRANCH   1  19
TORSDOF 13
ENDMDL
MODEL 6
REMARK VINA RESULT:      -6.0      5.225      7.690
REMARK  13 active torsions:
REMARK  status: ('A' for Active; 'I' for Inactive)
REMARK    1  A    between atoms: C_1  and  C_4 
REMARK       I    between atoms: C_4  and  N_6 
REMARK    2  A    between atoms: C_7  and  N_6 
REMARK    3  A    between atoms: C_7  and  C_8 
REMARK    4  A    between atoms: C_7  and  C_9 
REMARK    5  A    between atoms: C_8  and  O_20 
REMARK    6  A    between atoms: C_9  and  O_10 
REMARK    7  A    between atoms: C_9  and  C_11 
REMARK    8  A    between atoms: C_14  and  N_15 
REMARK    9  A    between atoms: O_20  and  C_26 
REMARK   10  A    between atoms: C_22  and  O_23 
REMARK   11  A    between atoms: C_22  and  C_24 
REMARK   12  A    between atoms: C_24  and  C_25 
REMARK   13  A    between atoms: C_25  and  C_26 
ROOT
HETATM    1  C   UNK N   1      27.452  16.976   6.732  0.00  0.00     0.142 C 
ENDROOT
BRANCH   1   2
HETATM    2  N   UNK N   1      26.810  18.220   6.329  0.00  0.00    -0.349 N 
HETATM    3  C   UNK N   1      27.008  18.854   5.140  0.00  0.00     0.251 C 
HETATM    4  O   UNK N   1      27.750  18.375   4.296  0.00  0.00    -0.271 OA
HETATM    5  H   UNK N   1      26.184  18.635   6.965  0.00  0.00     0.163 HD
BRANCH   3   6
HETATM    6  C   UNK N   1      26.348  20.178   4.859  0.00  0.00     0.269 C 
HETATM    7 Cl   UNK N   1      26.362  20.630   3.132  0.00  0.00    -0.098 Cl
HETATM    8 Cl   UNK N   1      27.101  21.478   5.816  0.00  0.00    -0.098 Cl
ENDBRANCH   3   6
ENDBRANCH   1   2
BRANCH   1   9
HETATM    9  C   UNK N   1      26.417  15.852   6.903  0.00  0.00     0.206 C 
BRANCH   9  10
HETATM   10  O   UNK N   1      25.552  15.785   5.835  0.00  0.00    -0.319 OA
BRANCH  10  11
HETATM   11  C   UNK N   1      24.205  15.725   5.984  0.00  0.00     0.259 C 
HETATM   12  O   UNK N   1      23.737  15.083   6.911  0.00  0.00    -0.265 OA
BRANCH  11  13
HETATM   13  C   UNK N   1      23.269  16.414   5.033  0.00  0.00     0.121 C 
BRANCH  13  14
HETATM   14  C   UNK N   1      23.178  17.901   5.351  0.00  0.00     0.119 C 
BRANCH  14  15
HETATM   15  C   UNK N   1      21.844  18.293   5.918  0.00  0.00     0.139 C 
HETATM   16  O   UNK N   1      21.412  17.705   6.896  0.00  0.00    -0.650 OA
BRANCH  15  17
HETATM   17  O   UNK N   1      21.125  19.291   5.369  0.00  0.00    -0.776 OA
HETATM   18  H   UNK N   1      21.000  19.327   4.441  0.00  0.00     0.167 HD
ENDBRANCH  15  17
ENDBRANCH  14  15
ENDBRANCH  13  14
ENDBRANCH  11  13
ENDBRANCH  10  11
ENDBRANCH   9  10
ENDBRANCH   1   9
BRANCH   1  19
HETATM   19  C   UNK N   1      28.190  17.207   8.075  0.00  0.00     0.176 C 
BRANCH  19  20
HETATM   20  O   UNK N   1      27.629  18.316   8.721  0.00  0.00    -0.389 OA
HETATM   21  H   UNK N   1      27.636  18.470   9.679  0.00  0.00     0.210 HD
ENDBRANCH  19  20
BRANCH  19  22
HETATM   22  C   UNK N   1      29.690  17.412   7.910  0.00  0.00    -0.028 A 
HETATM   23  C   UNK N   1      30.411  18.150   8.858  0.00  0.00     0.012 A 
HETATM   24  C   UNK N   1      31.785  18.345   8.722  0.00  0.00     0.037 A 
HETATM   25  C   UNK N   1      32.468  17.827   7.615  0.00  0.00     0.102 A 
HETATM   26  C   UNK N   1      31.753  17.103   6.650  0.00  0.00     0.037 A 
HETATM   27  C   UNK N   1      30.376  16.891   6.798  0.00  0.00     0.012 A 
BRANCH  25  28
HETATM   28  N   UNK N   1      33.868  18.037   7.474  0.00  0.00    -0.116 N 
HETATM   29  O   UNK N   1      34.576  18.487   8.488  0.00  0.00    -0.532 OA
HETATM   30  O   UNK N   1      34.412  17.797   6.439  0.00  0.00    -0.532 OA
ENDBRANCH  25  28
ENDBRANCH  19  22
ENDBRANCH   1  19
TORSDOF 13
ENDMDL
MODEL 7
REMARK VINA RESULT:      -6.0      3.572      8.190
REMARK  13 active torsions:
REMARK  status: ('A' for Active; 'I' for Inactive)
REMARK    1  A    between atoms: C_1  and  C_4 
REMARK       I    between atoms: C_4  and  N_6 
REMARK    2  A    between atoms: C_7  and  N_6 
REMARK    3  A    between atoms: C_7  and  C_8 
REMARK    4  A    between atoms: C_7  and  C_9 
REMARK    5  A    between atoms: C_8  and  O_20 
REMARK    6  A    between atoms: C_9  and  O_10 
REMARK    7  A    between atoms: C_9  and  C_11 
REMARK    8  A    between atoms: C_14  and  N_15 
REMARK    9  A    between atoms: O_20  and  C_26 
REMARK   10  A    between atoms: C_22  and  O_23 
REMARK   11  A    between atoms: C_22  and  C_24 
REMARK   12  A    between atoms: C_24  and  C_25 
REMARK   13  A    between atoms: C_25  and  C_26 
ROOT
HETATM    1  C   UNK N   1      20.463  16.135   6.309  0.00  0.00     0.142 C 
ENDROOT
BRANCH   1   2
HETATM    2  N   UNK N   1      20.138  16.666   7.626  0.00  0.00    -0.349 N 
HETATM    3  C   UNK N   1      18.879  16.797   8.129  0.00  0.00     0.251 C 
HETATM    4  O   UNK N   1      17.910  16.433   7.481  0.00  0.00    -0.271 OA
HETATM    5  H   UNK N   1      20.887  16.952   8.198  0.00  0.00     0.163 HD
BRANCH   3   6
HETATM    6  C   UNK N   1      18.654  17.431   9.476  0.00  0.00     0.269 C 
HETATM    7 Cl   UNK N   1      16.938  17.774   9.825  0.00  0.00    -0.098 Cl
HETATM    8 Cl   UNK N   1      19.602  18.931   9.637  0.00  0.00    -0.098 Cl
ENDBRANCH   3   6
ENDBRANCH   1   2
BRANCH   1   9
HETATM    9  C   UNK N   1      20.699  14.617   6.370  0.00  0.00     0.206 C 
BRANCH   9  10
HETATM   10  O   UNK N   1      21.652  14.283   7.306  0.00  0.00    -0.319 OA
BRANCH  10  11
HETATM   11  C   UNK N   1      21.375  13.534   8.402  0.00  0.00     0.259 C 
HETATM   12  O   UNK N   1      20.406  13.819   9.088  0.00  0.00    -0.265 OA
BRANCH  11  13
HETATM   13  C   UNK N   1      22.232  12.369   8.806  0.00  0.00     0.121 C 
BRANCH  13  14
HETATM   14  C   UNK N   1      22.758  12.555  10.223  0.00  0.00     0.119 C 
BRANCH  14  15
HETATM   15  C   UNK N   1      24.249  12.718  10.273  0.00  0.00     0.139 C 
HETATM   16  O   UNK N   1      24.825  13.253   9.339  0.00  0.00    -0.650 OA
BRANCH  15  17
HETATM   17  O   UNK N   1      24.958  12.293  11.337  0.00  0.00    -0.776 OA
HETATM   18  H   UNK N   1      24.619  12.403  12.204  0.00  0.00     0.167 HD
ENDBRANCH  15  17
ENDBRANCH  14  15
ENDBRANCH  13  14
ENDBRANCH  11  13
ENDBRANCH  10  11
ENDBRANCH   9  10
ENDBRANCH   1   9
BRANCH   1  19
HETATM   19  C   UNK N   1      21.745  16.835   5.790  0.00  0.00     0.176 C 
BRANCH  19  20
HETATM   20  O   UNK N   1      22.306  17.590   6.828  0.00  0.00    -0.389 OA
HETATM   21  H   UNK N   1      22.651  17.229   7.660  0.00  0.00     0.210 HD
ENDBRANCH  19  20
BRANCH  19  22
HETATM   22  C   UNK N   1      21.494  17.729   4.581  0.00  0.00    -0.028 A 
HETATM   23  C   UNK N   1      22.393  18.754   4.263  0.00  0.00     0.012 A 
HETATM   24  C   UNK N   1      22.179  19.579   3.158  0.00  0.00     0.037 A 
HETATM   25  C   UNK N   1      21.040  19.413   2.361  0.00  0.00     0.102 A 
HETATM   26  C   UNK N   1      20.123  18.402   2.683  0.00  0.00     0.037 A 
HETATM   27  C   UNK N   1      20.350  17.561   3.781  0.00  0.00     0.012 A 
BRANCH  25  28
HETATM   28  N   UNK N   1      20.819  20.263   1.242  0.00  0.00    -0.116 N 
HETATM   29  O   UNK N   1      20.731  21.566   1.407  0.00  0.00    -0.532 OA
HETATM   30  O   UNK N   1      20.723  19.803   0.145  0.00  0.00    -0.532 OA
ENDBRANCH  25  28
ENDBRANCH  19  22
ENDBRANCH   1  19
TORSDOF 13
ENDMDL
MODEL 8
REMARK VINA RESULT:      -5.9      6.238      9.057
REMARK  13 active torsions:
REMARK  status: ('A' for Active; 'I' for Inactive)
REMARK    1  A    between atoms: C_1  and  C_4 
REMARK       I    between atoms: C_4  and  N_6 
REMARK    2  A    between atoms: C_7  and  N_6 
REMARK    3  A    between atoms: C_7  and  C_8 
REMARK    4  A    between atoms: C_7  and  C_9 
REMARK    5  A    between atoms: C_8  and  O_20 
REMARK    6  A    between atoms: C_9  and  O_10 
REMARK    7  A    between atoms: C_9  and  C_11 
REMARK    8  A    between atoms: C_14  and  N_15 
REMARK    9  A    between atoms: O_20  and  C_26 
REMARK   10  A    between atoms: C_22  and  O_23 
REMARK   11  A    between atoms: C_22  and  C_24 
REMARK   12  A    between atoms: C_24  and  C_25 
REMARK   13  A    between atoms: C_25  and  C_26 
ROOT
HETATM    1  C   UNK N   1      29.503  17.369   4.528  0.00  0.00     0.142 C 
ENDROOT
BRANCH   1   2
HETATM    2  N   UNK N   1      28.627  18.016   5.495  0.00  0.00    -0.349 N 
HETATM    3  C   UNK N   1      28.143  19.284   5.388  0.00  0.00     0.251 C 
HETATM    4  O   UNK N   1      28.410  19.971   4.415  0.00  0.00    -0.271 OA
HETATM    5  H   UNK N   1      28.362  17.495   6.288  0.00  0.00     0.163 HD
BRANCH   3   6
HETATM    6  C   UNK N   1      27.304  19.880   6.488  0.00  0.00     0.269 C 
HETATM    7 Cl   UNK N   1      27.191  21.660   6.415  0.00  0.00    -0.098 Cl
HETATM    8 Cl   UNK N   1      27.916  19.390   8.088  0.00  0.00    -0.098 Cl
ENDBRANCH   3   6
ENDBRANCH   1   2
BRANCH   1   9
HETATM    9  C   UNK N   1      28.694  16.770   3.366  0.00  0.00     0.206 C 
BRANCH   9  10
HETATM   10  O   UNK N   1      27.445  16.357   3.770  0.00  0.00    -0.319 OA
BRANCH  10  11
HETATM   11  C   UNK N   1      26.932  15.143   3.447  0.00  0.00     0.259 C 
HETATM   12  O   UNK N   1      26.838  14.831   2.270  0.00  0.00    -0.265 OA
BRANCH  11  13
HETATM   13  C   UNK N   1      26.464  14.174   4.494  0.00  0.00     0.121 C 
BRANCH  13  14
HETATM   14  C   UNK N   1      25.372  14.798   5.353  0.00  0.00     0.119 C 
BRANCH  14  15
HETATM   15  C   UNK N   1      25.877  15.260   6.689  0.00  0.00     0.139 C 
HETATM   16  O   UNK N   1      25.631  14.600   7.685  0.00  0.00    -0.650 OA
BRANCH  15  17
HETATM   17  O   UNK N   1      26.607  16.387   6.801  0.00  0.00    -0.776 OA
HETATM   18  H   UNK N   1      27.400  16.487   6.311  0.00  0.00     0.167 HD
ENDBRANCH  15  17
ENDBRANCH  14  15
ENDBRANCH  13  14
ENDBRANCH  11  13
ENDBRANCH  10  11
ENDBRANCH   9  10
ENDBRANCH   1   9
BRANCH   1  19
HETATM   19  C   UNK N   1      30.290  16.241   5.243  0.00  0.00     0.176 C 
BRANCH  19  20
HETATM   20  O   UNK N   1      29.407  15.497   6.035  0.00  0.00    -0.389 OA
HETATM   21  H   UNK N   1      29.052  14.623   5.809  0.00  0.00     0.210 HD
ENDBRANCH  19  20
BRANCH  19  22
HETATM   22  C   UNK N   1      31.438  16.760   6.101  0.00  0.00    -0.028 A 
HETATM   23  C   UNK N   1      31.256  16.963   7.475  0.00  0.00     0.012 A 
HETATM   24  C   UNK N   1      32.297  17.436   8.274  0.00  0.00     0.037 A 
HETATM   25  C   UNK N   1      33.541  17.743   7.708  0.00  0.00     0.102 A 
HETATM   26  C   UNK N   1      33.728  17.562   6.330  0.00  0.00     0.037 A 
HETATM   27  C   UNK N   1      32.687  17.068   5.532  0.00  0.00     0.012 A 
BRANCH  25  28
HETATM   28  N   UNK N   1      34.598  18.235   8.524  0.00  0.00    -0.116 N 
HETATM   29  O   UNK N   1      35.076  17.498   9.504  0.00  0.00    -0.532 OA
HETATM   30  O   UNK N   1      35.064  19.314   8.320  0.00  0.00    -0.532 OA
ENDBRANCH  25  28
ENDBRANCH  19  22
ENDBRANCH   1  19
TORSDOF 13
ENDMDL
MODEL 9
REMARK VINA RESULT:      -5.9      5.400      8.747
REMARK  13 active torsions:
REMARK  status: ('A' for Active; 'I' for Inactive)
REMARK    1  A    between atoms: C_1  and  C_4 
REMARK       I    between atoms: C_4  and  N_6 
REMARK    2  A    between atoms: C_7  and  N_6 
REMARK    3  A    between atoms: C_7  and  C_8 
REMARK    4  A    between atoms: C_7  and  C_9 
REMARK    5  A    between atoms: C_8  and  O_20 
REMARK    6  A    between atoms: C_9  and  O_10 
REMARK    7  A    between atoms: C_9  and  C_11 
REMARK    8  A    between atoms: C_14  and  N_15 
REMARK    9  A    between atoms: O_20  and  C_26 
REMARK   10  A    between atoms: C_22  and  O_23 
REMARK   11  A    between atoms: C_22  and  C_24 
REMARK   12  A    between atoms: C_24  and  C_25 
REMARK   13  A    between atoms: C_25  and  C_26 
ROOT
HETATM    1  C   UNK N   1      27.614  16.886   6.645  0.00  0.00     0.142 C 
ENDROOT
BRANCH   1   2
HETATM    2  N   UNK N   1      26.853  18.059   6.236  0.00  0.00    -0.349 N 
HETATM    3  C   UNK N   1      27.143  18.845   5.162  0.00  0.00     0.251 C 
HETATM    4  O   UNK N   1      28.087  18.580   4.434  0.00  0.00    -0.271 OA
HETATM    5  H   UNK N   1      26.067  18.301   6.776  0.00  0.00     0.163 HD
BRANCH   3   6
HETATM    6  C   UNK N   1      26.330  20.080   4.875  0.00  0.00     0.269 C 
HETATM    7 Cl   UNK N   1      26.381  20.585   3.164  0.00  0.00    -0.098 Cl
HETATM    8 Cl   UNK N   1      26.850  21.435   5.908  0.00  0.00    -0.098 Cl
ENDBRANCH   3   6
ENDBRANCH   1   2
BRANCH   1   9
HETATM    9  C   UNK N   1      26.694  15.667   6.827  0.00  0.00     0.206 C 
BRANCH   9  10
HETATM   10  O   UNK N   1      25.409  15.929   6.411  0.00  0.00    -0.319 OA
BRANCH  10  11
HETATM   11  C   UNK N   1      24.394  15.041   6.559  0.00  0.00     0.259 C 
HETATM   12  O   UNK N   1      23.269  15.359   6.210  0.00  0.00    -0.265 OA
BRANCH  11  13
HETATM   13  C   UNK N   1      24.611  13.679   7.154  0.00  0.00     0.121 C 
BRANCH  13  14
HETATM   14  C   UNK N   1      23.825  13.527   8.449  0.00  0.00     0.119 C 
BRANCH  14  15
HETATM   15  C   UNK N   1      24.656  12.979   9.572  0.00  0.00     0.139 C 
HETATM   16  O   UNK N   1      24.512  11.817   9.914  0.00  0.00    -0.650 OA
BRANCH  15  17
HETATM   17  O   UNK N   1      25.565  13.750  10.201  0.00  0.00    -0.776 OA
HETATM   18  H   UNK N   1      25.407  14.047  11.076  0.00  0.00     0.167 HD
ENDBRANCH  15  17
ENDBRANCH  14  15
ENDBRANCH  13  14
ENDBRANCH  11  13
ENDBRANCH  10  11
ENDBRANCH   9  10
ENDBRANCH   1   9
BRANCH   1  19
HETATM   19  C   UNK N   1      28.329  17.197   7.985  0.00  0.00     0.176 C 
BRANCH  19  20
HETATM   20  O   UNK N   1      27.732  18.319   8.572  0.00  0.00    -0.389 OA
HETATM   21  H   UNK N   1      28.208  19.050   8.997  0.00  0.00     0.210 HD
ENDBRANCH  19  20
BRANCH  19  22
HETATM   22  C   UNK N   1      29.826  17.433   7.827  0.00  0.00    -0.028 A 
HETATM   23  C   UNK N   1      30.502  16.946   6.701  0.00  0.00     0.012 A 
HETATM   24  C   UNK N   1      31.872  17.156   6.541  0.00  0.00     0.037 A 
HETATM   25  C   UNK N   1      32.604  17.838   7.521  0.00  0.00     0.102 A 
HETATM   26  C   UNK N   1      31.939  18.313   8.661  0.00  0.00     0.037 A 
HETATM   27  C   UNK N   1      30.560  18.119   8.811  0.00  0.00     0.012 A 
BRANCH  25  28
HETATM   28  N   UNK N   1      34.003  18.041   7.359  0.00  0.00    -0.116 N 
HETATM   29  O   UNK N   1      34.670  18.772   8.227  0.00  0.00    -0.532 OA
HETATM   30  O   UNK N   1      34.582  17.542   6.443  0.00  0.00    -0.532 OA
ENDBRANCH  25  28
ENDBRANCH  19  22
ENDBRANCH   1  19
TORSDOF 13
ENDMDL
