MODEL 1
REMARK VINA RESULT:      -7.9      0.000      0.000
REMARK  8 active torsions:
REMARK  status: ('A' for Active; 'I' for Inactive)
REMARK    1  A    between atoms: C_1  and  C_13 
REMARK    2  A    between atoms: C_2  and  C_20 
REMARK    3  A    between atoms: C_7  and  O_8 
REMARK    4  A    between atoms: C_16  and  O_17 
REMARK    5  A    between atoms: C_23  and  O_26 
REMARK    6  A    between atoms: O_26  and  C_27 
REMARK    7  A    between atoms: C_27  and  C_28 
REMARK    8  A    between atoms: C_28  and  N_29 
ROOT
HETATM    1  C   UNK N   1      36.776  12.356  12.956  0.00  0.00     0.061 C 
HETATM    2  C   UNK N   1      35.371  13.003  12.919  0.00  0.00     0.171 C 
HETATM    3  O   UNK N   1      35.084  13.538  14.170  0.00  0.00    -0.340 OA
HETATM    4  C   UNK N   1      35.328  12.854  15.315  0.00  0.00     0.076 A 
HETATM    5  C   UNK N   1      34.752  13.283  16.518  0.00  0.00     0.040 A 
HETATM    6  C   UNK N   1      34.959  12.560  17.697  0.00  0.00     0.039 A 
HETATM    7  C   UNK N   1      35.731  11.395  17.681  0.00  0.00     0.066 A 
HETATM    8  C   UNK N   1      36.319  10.964  16.491  0.00  0.00     0.046 A 
HETATM    9  C   UNK N   1      36.148  11.697  15.311  0.00  0.00    -0.018 A 
HETATM   10  C   UNK N   1      36.805  11.237  14.026  0.00  0.00     0.029 C 
HETATM   11  C   UNK N   1      38.253  10.824  14.267  0.00  0.00     0.016 C 
ENDROOT
BRANCH   2  12
HETATM   12  C   UNK N   1      35.344  14.068  11.854  0.00  0.00    -0.028 A 
HETATM   13  C   UNK N   1      35.963  15.291  12.139  0.00  0.00     0.012 A 
HETATM   14  C   UNK N   1      35.709  16.408  11.354  0.00  0.00     0.037 A 
HETATM   15  C   UNK N   1      34.849  16.321  10.262  0.00  0.00     0.068 A 
HETATM   16  C   UNK N   1      34.252  15.092   9.935  0.00  0.00     0.037 A 
HETATM   17  C   UNK N   1      34.471  13.976  10.755  0.00  0.00     0.012 A 
BRANCH  15  18
HETATM   18  O   UNK N   1      34.616  17.440   9.552  0.00  0.00    -0.349 OA
BRANCH  18  19
HETATM   19  C   UNK N   1      34.390  17.411   8.205  0.00  0.00     0.206 C 
BRANCH  19  20
HETATM   20  C   UNK N   1      33.102  18.205   7.988  0.00  0.00     0.299 C 
BRANCH  20  21
HETATM   21  N   UNK N   1      31.879  17.416   8.132  0.00  0.00     0.090 N 
HETATM   22  C   UNK N   1      31.380  17.073   6.815  0.00  0.00     0.272 C 
HETATM   23  C   UNK N   1      29.891  16.896   6.963  0.00  0.00     0.032 C 
HETATM   24  C   UNK N   1      29.511  17.825   8.094  0.00  0.00     0.032 C 
HETATM   25  C   UNK N   1      30.811  18.154   8.805  0.00  0.00     0.272 C 
ENDBRANCH  20  21
ENDBRANCH  19  20
ENDBRANCH  18  19
ENDBRANCH  15  18
ENDBRANCH   2  12
BRANCH   1  26
HETATM   26  C   UNK N   1      37.227  11.869  11.585  0.00  0.00    -0.050 A 
HETATM   27  C   UNK N   1      36.580  10.803  10.938  0.00  0.00     0.010 A 
HETATM   28  C   UNK N   1      36.972  10.417   9.651  0.00  0.00     0.037 A 
HETATM   29  C   UNK N   1      37.984  11.117   8.988  0.00  0.00     0.065 A 
HETATM   30  C   UNK N   1      38.619  12.191   9.615  0.00  0.00     0.037 A 
HETATM   31  C   UNK N   1      38.249  12.559  10.910  0.00  0.00     0.010 A 
BRANCH  29  32
HETATM   32  O   UNK N   1      38.345  10.758   7.745  0.00  0.00    -0.361 OA
HETATM   33  H   UNK N   1      37.735  10.341   7.169  0.00  0.00     0.217 HD
ENDBRANCH  29  32
ENDBRANCH   1  26
BRANCH   7  34
HETATM   34  O   UNK N   1      35.915  10.695  18.810  0.00  0.00    -0.361 OA
HETATM   35  H   UNK N   1      36.556  10.967  19.438  0.00  0.00     0.217 HD
ENDBRANCH   7  34
TORSDOF 8
ENDMDL
MODEL 2
REMARK VINA RESULT:      -7.7      1.701      2.414
REMARK  8 active torsions:
REMARK  status: ('A' for Active; 'I' for Inactive)
REMARK    1  A    between atoms: C_1  and  C_13 
REMARK    2  A    between atoms: C_2  and  C_20 
REMARK    3  A    between atoms: C_7  and  O_8 
REMARK    4  A    between atoms: C_16  and  O_17 
REMARK    5  A    between atoms: C_23  and  O_26 
REMARK    6  A    between atoms: O_26  and  C_27 
REMARK    7  A    between atoms: C_27  and  C_28 
REMARK    8  A    between atoms: C_28  and  N_29 
ROOT
HETATM    1  C   UNK N   1      36.194  11.382  14.577  0.00  0.00     0.061 C 
HETATM    2  C   UNK N   1      35.159  12.523  14.436  0.00  0.00     0.171 C 
HETATM    3  O   UNK N   1      35.244  13.353  15.549  0.00  0.00    -0.340 OA
HETATM    4  C   UNK N   1      35.327  12.857  16.809  0.00  0.00     0.076 A 
HETATM    5  C   UNK N   1      35.102  13.700  17.905  0.00  0.00     0.040 A 
HETATM    6  C   UNK N   1      35.139  13.191  19.206  0.00  0.00     0.039 A 
HETATM    7  C   UNK N   1      35.388  11.833  19.423  0.00  0.00     0.066 A 
HETATM    8  C   UNK N   1      35.625  10.985  18.339  0.00  0.00     0.046 A 
HETATM    9  C   UNK N   1      35.623  11.489  17.033  0.00  0.00    -0.018 A 
HETATM   10  C   UNK N   1      35.902  10.569  15.862  0.00  0.00     0.029 C 
HETATM   11  C   UNK N   1      37.091   9.658  16.149  0.00  0.00     0.016 C 
ENDROOT
BRANCH   2  12
HETATM   12  C   UNK N   1      35.432  13.287  13.167  0.00  0.00    -0.028 A 
HETATM   13  C   UNK N   1      36.157  14.480  13.268  0.00  0.00     0.012 A 
HETATM   14  C   UNK N   1      36.173  15.385  12.215  0.00  0.00     0.037 A 
HETATM   15  C   UNK N   1      35.482  15.108  11.037  0.00  0.00     0.068 A 
HETATM   16  C   UNK N   1      34.783  13.897  10.902  0.00  0.00     0.037 A 
HETATM   17  C   UNK N   1      34.727  13.005  11.982  0.00  0.00     0.012 A 
BRANCH  15  18
HETATM   18  O   UNK N   1      35.507  16.031  10.059  0.00  0.00    -0.349 OA
BRANCH  18  19
HETATM   19  C   UNK N   1      34.486  16.166   9.161  0.00  0.00     0.206 C 
BRANCH  19  20
HETATM   20  C   UNK N   1      34.500  17.636   8.741  0.00  0.00     0.299 C 
BRANCH  20  21
HETATM   21  N   UNK N   1      33.413  18.013   7.840  0.00  0.00     0.090 N 
HETATM   22  C   UNK N   1      32.189  17.370   8.280  0.00  0.00     0.272 C 
HETATM   23  C   UNK N   1      31.333  17.212   7.051  0.00  0.00     0.032 C 
HETATM   24  C   UNK N   1      32.321  17.071   5.917  0.00  0.00     0.032 C 
HETATM   25  C   UNK N   1      33.645  17.571   6.465  0.00  0.00     0.272 C 
ENDBRANCH  20  21
ENDBRANCH  19  20
ENDBRANCH  18  19
ENDBRANCH  15  18
ENDBRANCH   2  12
BRANCH   1  26
HETATM   26  C   UNK N   1      36.263  10.505  13.332  0.00  0.00    -0.050 A 
HETATM   27  C   UNK N   1      37.404  10.485  12.513  0.00  0.00     0.010 A 
HETATM   28  C   UNK N   1      37.466   9.623  11.412  0.00  0.00     0.037 A 
HETATM   29  C   UNK N   1      36.409   8.749  11.146  0.00  0.00     0.065 A 
HETATM   30  C   UNK N   1      35.279   8.748  11.967  0.00  0.00     0.037 A 
HETATM   31  C   UNK N   1      35.203   9.627  13.049  0.00  0.00     0.010 A 
BRANCH  29  32
HETATM   32  O   UNK N   1      36.479   7.909  10.101  0.00  0.00    -0.361 OA
HETATM   33  H   UNK N   1      35.807   7.898   9.448  0.00  0.00     0.217 HD
ENDBRANCH  29  32
ENDBRANCH   1  26
BRANCH   7  34
HETATM   34  O   UNK N   1      35.408  11.343  20.672  0.00  0.00    -0.361 OA
HETATM   35  H   UNK N   1      35.534  11.915  21.403  0.00  0.00     0.217 HD
ENDBRANCH   7  34
TORSDOF 8
ENDMDL
MODEL 3
REMARK VINA RESULT:      -7.7      3.157      8.799
REMARK  8 active torsions:
REMARK  status: ('A' for Active; 'I' for Inactive)
REMARK    1  A    between atoms: C_1  and  C_13 
REMARK    2  A    between atoms: C_2  and  C_20 
REMARK    3  A    between atoms: C_7  and  O_8 
REMARK    4  A    between atoms: C_16  and  O_17 
REMARK    5  A    between atoms: C_23  and  O_26 
REMARK    6  A    between atoms: O_26  and  C_27 
REMARK    7  A    between atoms: C_27  and  C_28 
REMARK    8  A    between atoms: C_28  and  N_29 
ROOT
HETATM    1  C   UNK N   1      32.143  15.675   7.294  0.00  0.00     0.061 C 
HETATM    2  C   UNK N   1      32.662  16.832   8.181  0.00  0.00     0.171 C 
HETATM    3  O   UNK N   1      31.591  17.395   8.867  0.00  0.00    -0.340 OA
HETATM    4  C   UNK N   1      30.415  17.676   8.252  0.00  0.00     0.076 A 
HETATM    5  C   UNK N   1      29.483  18.512   8.883  0.00  0.00     0.040 A 
HETATM    6  C   UNK N   1      28.288  18.847   8.241  0.00  0.00     0.039 A 
HETATM    7  C   UNK N   1      28.019  18.363   6.957  0.00  0.00     0.066 A 
HETATM    8  C   UNK N   1      28.935  17.521   6.323  0.00  0.00     0.046 A 
HETATM    9  C   UNK N   1      30.120  17.150   6.969  0.00  0.00    -0.018 A 
HETATM   10  C   UNK N   1      31.101  16.219   6.286  0.00  0.00     0.029 C 
HETATM   11  C   UNK N   1      30.381  15.041   5.638  0.00  0.00     0.016 C 
ENDROOT
BRANCH   2  12
HETATM   12  C   UNK N   1      33.697  16.298   9.135  0.00  0.00    -0.028 A 
HETATM   13  C   UNK N   1      33.355  15.186   9.913  0.00  0.00     0.012 A 
HETATM   14  C   UNK N   1      34.119  14.840  11.020  0.00  0.00     0.037 A 
HETATM   15  C   UNK N   1      35.246  15.584  11.360  0.00  0.00     0.068 A 
HETATM   16  C   UNK N   1      35.629  16.679  10.567  0.00  0.00     0.037 A 
HETATM   17  C   UNK N   1      34.832  17.057   9.477  0.00  0.00     0.012 A 
BRANCH  15  18
HETATM   18  O   UNK N   1      35.934  15.223  12.458  0.00  0.00    -0.349 OA
BRANCH  18  19
HETATM   19  C   UNK N   1      36.326  13.933  12.678  0.00  0.00     0.206 C 
BRANCH  19  20
HETATM   20  C   UNK N   1      35.731  13.549  14.033  0.00  0.00     0.299 C 
BRANCH  20  21
HETATM   21  N   UNK N   1      35.431  12.125  14.175  0.00  0.00     0.090 N 
HETATM   22  C   UNK N   1      34.851  11.638  12.938  0.00  0.00     0.272 C 
HETATM   23  C   UNK N   1      33.980  10.469  13.315  0.00  0.00     0.032 C 
HETATM   24  C   UNK N   1      33.515  10.780  14.718  0.00  0.00     0.032 C 
HETATM   25  C   UNK N   1      34.452  11.859  15.229  0.00  0.00     0.272 C 
ENDBRANCH  20  21
ENDBRANCH  19  20
ENDBRANCH  18  19
ENDBRANCH  15  18
ENDBRANCH   2  12
BRANCH   1  26
HETATM   26  C   UNK N   1      33.274  14.913   6.614  0.00  0.00    -0.050 A 
HETATM   27  C   UNK N   1      33.421  13.526   6.772  0.00  0.00     0.010 A 
HETATM   28  C   UNK N   1      34.430  12.841   6.086  0.00  0.00     0.037 A 
HETATM   29  C   UNK N   1      35.271  13.529   5.207  0.00  0.00     0.065 A 
HETATM   30  C   UNK N   1      35.118  14.905   5.027  0.00  0.00     0.037 A 
HETATM   31  C   UNK N   1      34.131  15.595   5.733  0.00  0.00     0.010 A 
BRANCH  29  32
HETATM   32  O   UNK N   1      36.225  12.866   4.533  0.00  0.00    -0.361 OA
HETATM   33  H   UNK N   1      36.107  11.968   4.293  0.00  0.00     0.217 HD
ENDBRANCH  29  32
ENDBRANCH   1  26
BRANCH   7  34
HETATM   34  O   UNK N   1      26.878  18.698   6.336  0.00  0.00    -0.361 OA
HETATM   35  H   UNK N   1      26.704  18.393   5.468  0.00  0.00     0.217 HD
ENDBRANCH   7  34
TORSDOF 8
ENDMDL
MODEL 4
REMARK VINA RESULT:      -7.2      8.333     12.787
REMARK  8 active torsions:
REMARK  status: ('A' for Active; 'I' for Inactive)
REMARK    1  A    between atoms: C_1  and  C_13 
REMARK    2  A    between atoms: C_2  and  C_20 
REMARK    3  A    between atoms: C_7  and  O_8 
REMARK    4  A    between atoms: C_16  and  O_17 
REMARK    5  A    between atoms: C_23  and  O_26 
REMARK    6  A    between atoms: O_26  and  C_27 
REMARK    7  A    between atoms: C_27  and  C_28 
REMARK    8  A    between atoms: C_28  and  N_29 
ROOT
HETATM    1  C   UNK N   1      23.332  14.311   6.803  0.00  0.00     0.061 C 
HETATM    2  C   UNK N   1      24.701  14.728   7.392  0.00  0.00     0.171 C 
HETATM    3  O   UNK N   1      25.128  13.753   8.287  0.00  0.00    -0.340 OA
HETATM    4  C   UNK N   1      24.291  13.209   9.207  0.00  0.00     0.076 A 
HETATM    5  C   UNK N   1      24.819  12.471  10.275  0.00  0.00     0.040 A 
HETATM    6  C   UNK N   1      23.971  11.945  11.254  0.00  0.00     0.039 A 
HETATM    7  C   UNK N   1      22.592  12.164  11.183  0.00  0.00     0.066 A 
HETATM    8  C   UNK N   1      22.055  12.888  10.117  0.00  0.00     0.046 A 
HETATM    9  C   UNK N   1      22.889  13.391   9.112  0.00  0.00    -0.018 A 
HETATM   10  C   UNK N   1      22.299  14.159   7.946  0.00  0.00     0.029 C 
HETATM   11  C   UNK N   1      21.059  13.459   7.399  0.00  0.00     0.016 C 
ENDROOT
BRANCH   2  12
HETATM   12  C   UNK N   1      25.690  14.905   6.270  0.00  0.00    -0.028 A 
HETATM   13  C   UNK N   1      26.271  13.754   5.725  0.00  0.00     0.012 A 
HETATM   14  C   UNK N   1      27.404  13.848   4.927  0.00  0.00     0.037 A 
HETATM   15  C   UNK N   1      27.965  15.090   4.644  0.00  0.00     0.068 A 
HETATM   16  C   UNK N   1      27.371  16.260   5.146  0.00  0.00     0.037 A 
HETATM   17  C   UNK N   1      26.257  16.163   5.991  0.00  0.00     0.012 A 
BRANCH  15  18
HETATM   18  O   UNK N   1      29.079  15.122   3.889  0.00  0.00    -0.349 OA
BRANCH  18  19
HETATM   19  C   UNK N   1      29.684  16.295   3.537  0.00  0.00     0.206 C 
BRANCH  19  20
HETATM   20  C   UNK N   1      31.148  16.141   3.951  0.00  0.00     0.299 C 
BRANCH  20  21
HETATM   21  N   UNK N   1      31.606  17.136   4.920  0.00  0.00     0.090 N 
HETATM   22  C   UNK N   1      33.054  17.102   4.983  0.00  0.00     0.272 C 
HETATM   23  C   UNK N   1      33.425  17.578   6.364  0.00  0.00     0.032 C 
HETATM   24  C   UNK N   1      32.260  17.163   7.232  0.00  0.00     0.032 C 
HETATM   25  C   UNK N   1      31.121  16.866   6.273  0.00  0.00     0.272 C 
ENDBRANCH  20  21
ENDBRANCH  19  20
ENDBRANCH  18  19
ENDBRANCH  15  18
ENDBRANCH   2  12
BRANCH   1  26
HETATM   26  C   UNK N   1      22.859  15.259   5.708  0.00  0.00    -0.050 A 
HETATM   27  C   UNK N   1      22.686  14.820   4.385  0.00  0.00     0.010 A 
HETATM   28  C   UNK N   1      22.189  15.695   3.412  0.00  0.00     0.037 A 
HETATM   29  C   UNK N   1      21.824  16.998   3.761  0.00  0.00     0.065 A 
HETATM   30  C   UNK N   1      21.974  17.436   5.078  0.00  0.00     0.037 A 
HETATM   31  C   UNK N   1      22.497  16.574   6.045  0.00  0.00     0.010 A 
BRANCH  29  32
HETATM   32  O   UNK N   1      21.329  17.829   2.830  0.00  0.00    -0.361 OA
HETATM   33  H   UNK N   1      20.412  17.841   2.637  0.00  0.00     0.217 HD
ENDBRANCH  29  32
ENDBRANCH   1  26
BRANCH   7  34
HETATM   34  O   UNK N   1      21.783  11.671  12.132  0.00  0.00    -0.361 OA
HETATM   35  H   UNK N   1      20.876  11.522  11.951  0.00  0.00     0.217 HD
ENDBRANCH   7  34
TORSDOF 8
ENDMDL
MODEL 5
REMARK VINA RESULT:      -7.2     10.539     13.271
REMARK  8 active torsions:
REMARK  status: ('A' for Active; 'I' for Inactive)
REMARK    1  A    between atoms: C_1  and  C_13 
REMARK    2  A    between atoms: C_2  and  C_20 
REMARK    3  A    between atoms: C_7  and  O_8 
REMARK    4  A    between atoms: C_16  and  O_17 
REMARK    5  A    between atoms: C_23  and  O_26 
REMARK    6  A    between atoms: O_26  and  C_27 
REMARK    7  A    between atoms: C_27  and  C_28 
REMARK    8  A    between atoms: C_28  and  N_29 
ROOT
HETATM    1  C   UNK N   1      23.139  14.354   6.956  0.00  0.00     0.061 C 
HETATM    2  C   UNK N   1      24.476  14.623   7.686  0.00  0.00     0.171 C 
HETATM    3  O   UNK N   1      24.729  13.581   8.572  0.00  0.00    -0.340 OA
HETATM    4  C   UNK N   1      23.765  13.084   9.386  0.00  0.00     0.076 A 
HETATM    5  C   UNK N   1      24.121  12.263  10.464  0.00  0.00     0.040 A 
HETATM    6  C   UNK N   1      23.142  11.781  11.338  0.00  0.00     0.039 A 
HETATM    7  C   UNK N   1      21.800  12.127  11.150  0.00  0.00     0.066 A 
HETATM    8  C   UNK N   1      21.432  12.935  10.073  0.00  0.00     0.046 A 
HETATM    9  C   UNK N   1      22.399  13.396   9.172  0.00  0.00    -0.018 A 
HETATM   10  C   UNK N   1      21.992  14.255   7.992  0.00  0.00     0.029 C 
HETATM   11  C   UNK N   1      20.754  13.691   7.303  0.00  0.00     0.016 C 
ENDROOT
BRANCH   2  12
HETATM   12  C   UNK N   1      25.579  14.749   6.668  0.00  0.00    -0.028 A 
HETATM   13  C   UNK N   1      26.020  13.581   6.036  0.00  0.00     0.012 A 
HETATM   14  C   UNK N   1      27.221  13.568   5.340  0.00  0.00     0.037 A 
HETATM   15  C   UNK N   1      27.994  14.722   5.246  0.00  0.00     0.068 A 
HETATM   16  C   UNK N   1      27.548  15.916   5.838  0.00  0.00     0.037 A 
HETATM   17  C   UNK N   1      26.359  15.917   6.581  0.00  0.00     0.012 A 
BRANCH  15  18
HETATM   18  O   UNK N   1      29.163  14.647   4.584  0.00  0.00    -0.349 OA
BRANCH  18  19
HETATM   19  C   UNK N   1      29.285  13.980   3.398  0.00  0.00     0.206 C 
BRANCH  19  20
HETATM   20  C   UNK N   1      28.854  14.977   2.321  0.00  0.00     0.299 C 
BRANCH  20  21
HETATM   21  N   UNK N   1      27.658  14.579   1.580  0.00  0.00     0.090 N 
HETATM   22  C   UNK N   1      26.550  15.424   1.983  0.00  0.00     0.272 C 
HETATM   23  C   UNK N   1      25.301  14.612   1.764  0.00  0.00     0.032 C 
HETATM   24  C   UNK N   1      25.741  13.180   1.962  0.00  0.00     0.032 C 
HETATM   25  C   UNK N   1      27.256  13.202   1.861  0.00  0.00     0.272 C 
ENDBRANCH  20  21
ENDBRANCH  19  20
ENDBRANCH  18  19
ENDBRANCH  15  18
ENDBRANCH   2  12
BRANCH   1  26
HETATM   26  C   UNK N   1      22.856  15.380   5.865  0.00  0.00    -0.050 A 
HETATM   27  C   UNK N   1      22.790  15.009   4.512  0.00  0.00     0.010 A 
HETATM   28  C   UNK N   1      22.466  15.959   3.536  0.00  0.00     0.037 A 
HETATM   29  C   UNK N   1      22.167  17.272   3.909  0.00  0.00     0.065 A 
HETATM   30  C   UNK N   1      22.210  17.644   5.254  0.00  0.00     0.037 A 
HETATM   31  C   UNK N   1      22.562  16.705   6.226  0.00  0.00     0.010 A 
BRANCH  29  32
HETATM   32  O   UNK N   1      21.837  18.177   2.973  0.00  0.00    -0.361 OA
HETATM   33  H   UNK N   1      22.483  18.752   2.612  0.00  0.00     0.217 HD
ENDBRANCH  29  32
ENDBRANCH   1  26
BRANCH   7  34
HETATM   34  O   UNK N   1      20.864  11.676  11.999  0.00  0.00    -0.361 OA
HETATM   35  H   UNK N   1      20.612  12.189  12.742  0.00  0.00     0.217 HD
ENDBRANCH   7  34
TORSDOF 8
ENDMDL
MODEL 6
REMARK VINA RESULT:      -7.2      5.414     10.960
REMARK  8 active torsions:
REMARK  status: ('A' for Active; 'I' for Inactive)
REMARK    1  A    between atoms: C_1  and  C_13 
REMARK    2  A    between atoms: C_2  and  C_20 
REMARK    3  A    between atoms: C_7  and  O_8 
REMARK    4  A    between atoms: C_16  and  O_17 
REMARK    5  A    between atoms: C_23  and  O_26 
REMARK    6  A    between atoms: O_26  and  C_27 
REMARK    7  A    between atoms: C_27  and  C_28 
REMARK    8  A    between atoms: C_28  and  N_29 
ROOT
HETATM    1  C   UNK N   1      29.234  16.316   4.700  0.00  0.00     0.061 C 
HETATM    2  C   UNK N   1      30.121  17.583   4.763  0.00  0.00     0.171 C 
HETATM    3  O   UNK N   1      29.367  18.642   5.257  0.00  0.00    -0.340 OA
HETATM    4  C   UNK N   1      28.107  18.890   4.819  0.00  0.00     0.076 A 
HETATM    5  C   UNK N   1      27.503  20.122   5.103  0.00  0.00     0.040 A 
HETATM    6  C   UNK N   1      26.224  20.409   4.619  0.00  0.00     0.039 A 
HETATM    7  C   UNK N   1      25.543  19.473   3.835  0.00  0.00     0.066 A 
HETATM    8  C   UNK N   1      26.130  18.237   3.555  0.00  0.00     0.046 A 
HETATM    9  C   UNK N   1      27.397  17.926   4.062  0.00  0.00    -0.018 A 
HETATM   10  C   UNK N   1      28.022  16.576   3.773  0.00  0.00     0.029 C 
HETATM   11  C   UNK N   1      27.009  15.450   3.961  0.00  0.00     0.016 C 
ENDROOT
BRANCH   2  12
HETATM   12  C   UNK N   1      31.314  17.310   5.640  0.00  0.00    -0.028 A 
HETATM   13  C   UNK N   1      31.123  17.335   7.027  0.00  0.00     0.012 A 
HETATM   14  C   UNK N   1      32.211  17.410   7.886  0.00  0.00     0.037 A 
HETATM   15  C   UNK N   1      33.508  17.442   7.379  0.00  0.00     0.068 A 
HETATM   16  C   UNK N   1      33.722  17.375   5.992  0.00  0.00     0.037 A 
HETATM   17  C   UNK N   1      32.622  17.347   5.123  0.00  0.00     0.012 A 
BRANCH  15  18
HETATM   18  O   UNK N   1      34.526  17.544   8.254  0.00  0.00    -0.349 OA
BRANCH  18  19
HETATM   19  C   UNK N   1      34.502  16.923   9.470  0.00  0.00     0.206 C 
BRANCH  19  20
HETATM   20  C   UNK N   1      35.497  15.767   9.359  0.00  0.00     0.299 C 
BRANCH  20  21
HETATM   21  N   UNK N   1      34.879  14.467   9.099  0.00  0.00     0.090 N 
HETATM   22  C   UNK N   1      34.942  14.190   7.677  0.00  0.00     0.272 C 
HETATM   23  C   UNK N   1      33.782  13.278   7.375  0.00  0.00     0.032 C 
HETATM   24  C   UNK N   1      32.730  13.655   8.393  0.00  0.00     0.032 C 
HETATM   25  C   UNK N   1      33.465  14.434   9.469  0.00  0.00     0.272 C 
ENDBRANCH  20  21
ENDBRANCH  19  20
ENDBRANCH  18  19
ENDBRANCH  15  18
ENDBRANCH   2  12
BRANCH   1  26
HETATM   26  C   UNK N   1      30.023  15.075   4.300  0.00  0.00    -0.050 A 
HETATM   27  C   UNK N   1      30.605  14.956   3.028  0.00  0.00     0.010 A 
HETATM   28  C   UNK N   1      31.378  13.834   2.709  0.00  0.00     0.037 A 
HETATM   29  C   UNK N   1      31.608  12.845   3.669  0.00  0.00     0.065 A 
HETATM   30  C   UNK N   1      31.051  12.965   4.943  0.00  0.00     0.037 A 
HETATM   31  C   UNK N   1      30.255  14.070   5.255  0.00  0.00     0.010 A 
BRANCH  29  32
HETATM   32  O   UNK N   1      32.367  11.780   3.367  0.00  0.00    -0.361 OA
HETATM   33  H   UNK N   1      32.384  11.433   2.496  0.00  0.00     0.217 HD
ENDBRANCH  29  32
ENDBRANCH   1  26
BRANCH   7  34
HETATM   34  O   UNK N   1      24.321  19.756   3.358  0.00  0.00    -0.361 OA
HETATM   35  H   UNK N   1      23.927  19.207   2.709  0.00  0.00     0.217 HD
ENDBRANCH   7  34
TORSDOF 8
ENDMDL
MODEL 7
REMARK VINA RESULT:      -7.1      7.683     13.137
REMARK  8 active torsions:
REMARK  status: ('A' for Active; 'I' for Inactive)
REMARK    1  A    between atoms: C_1  and  C_13 
REMARK    2  A    between atoms: C_2  and  C_20 
REMARK    3  A    between atoms: C_7  and  O_8 
REMARK    4  A    between atoms: C_16  and  O_17 
REMARK    5  A    between atoms: C_23  and  O_26 
REMARK    6  A    between atoms: O_26  and  C_27 
REMARK    7  A    between atoms: C_27  and  C_28 
REMARK    8  A    between atoms: C_28  and  N_29 
ROOT
HETATM    1  C   UNK N   1      27.477  17.486   5.372  0.00  0.00     0.061 C 
HETATM    2  C   UNK N   1      28.132  16.480   4.395  0.00  0.00     0.171 C 
HETATM    3  O   UNK N   1      28.942  15.609   5.115  0.00  0.00    -0.340 OA
HETATM    4  C   UNK N   1      29.789  16.049   6.079  0.00  0.00     0.076 A 
HETATM    5  C   UNK N   1      30.796  15.201   6.559  0.00  0.00     0.040 A 
HETATM    6  C   UNK N   1      31.705  15.658   7.518  0.00  0.00     0.039 A 
HETATM    7  C   UNK N   1      31.623  16.970   7.996  0.00  0.00     0.066 A 
HETATM    8  C   UNK N   1      30.617  17.820   7.532  0.00  0.00     0.046 A 
HETATM    9  C   UNK N   1      29.681  17.364   6.597  0.00  0.00    -0.018 A 
HETATM   10  C   UNK N   1      28.578  18.283   6.113  0.00  0.00     0.029 C 
HETATM   11  C   UNK N   1      27.942  19.037   7.276  0.00  0.00     0.016 C 
ENDROOT
BRANCH   2  12
HETATM   12  C   UNK N   1      27.053  15.733   3.657  0.00  0.00    -0.028 A 
HETATM   13  C   UNK N   1      26.465  14.635   4.296  0.00  0.00     0.012 A 
HETATM   14  C   UNK N   1      25.710  13.721   3.574  0.00  0.00     0.037 A 
HETATM   15  C   UNK N   1      25.511  13.895   2.206  0.00  0.00     0.068 A 
HETATM   16  C   UNK N   1      26.058  15.014   1.555  0.00  0.00     0.037 A 
HETATM   17  C   UNK N   1      26.860  15.911   2.274  0.00  0.00     0.012 A 
BRANCH  15  18
HETATM   18  O   UNK N   1      24.795  12.965   1.549  0.00  0.00    -0.349 OA
BRANCH  18  19
HETATM   19  C   UNK N   1      23.862  13.299   0.608  0.00  0.00     0.206 C 
BRANCH  19  20
HETATM   20  C   UNK N   1      22.573  13.565   1.386  0.00  0.00     0.299 C 
BRANCH  20  21
HETATM   21  N   UNK N   1      22.164  14.969   1.407  0.00  0.00     0.090 N 
HETATM   22  C   UNK N   1      22.271  15.473   2.763  0.00  0.00     0.272 C 
HETATM   23  C   UNK N   1      21.267  16.589   2.877  0.00  0.00     0.032 C 
HETATM   24  C   UNK N   1      20.168  16.209   1.911  0.00  0.00     0.032 C 
HETATM   25  C   UNK N   1      20.771  15.154   1.001  0.00  0.00     0.272 C 
ENDBRANCH  20  21
ENDBRANCH  19  20
ENDBRANCH  18  19
ENDBRANCH  15  18
ENDBRANCH   2  12
BRANCH   1  26
HETATM   26  C   UNK N   1      26.463  18.390   4.681  0.00  0.00    -0.050 A 
HETATM   27  C   UNK N   1      25.084  18.246   4.903  0.00  0.00     0.010 A 
HETATM   28  C   UNK N   1      24.178  19.130   4.306  0.00  0.00     0.037 A 
HETATM   29  C   UNK N   1      24.645  20.186   3.517  0.00  0.00     0.065 A 
HETATM   30  C   UNK N   1      26.017  20.348   3.308  0.00  0.00     0.037 A 
HETATM   31  C   UNK N   1      26.920  19.450   3.880  0.00  0.00     0.010 A 
BRANCH  29  32
HETATM   32  O   UNK N   1      23.776  21.045   2.962  0.00  0.00    -0.361 OA
HETATM   33  H   UNK N   1      23.415  20.881   2.113  0.00  0.00     0.217 HD
ENDBRANCH  29  32
ENDBRANCH   1  26
BRANCH   7  34
HETATM   34  O   UNK N   1      32.505  17.411   8.905  0.00  0.00    -0.361 OA
HETATM   35  H   UNK N   1      33.425  17.387   8.724  0.00  0.00     0.217 HD
ENDBRANCH   7  34
TORSDOF 8
ENDMDL
MODEL 8
REMARK VINA RESULT:      -7.0      3.727      9.068
REMARK  8 active torsions:
REMARK  status: ('A' for Active; 'I' for Inactive)
REMARK    1  A    between atoms: C_1  and  C_13 
REMARK    2  A    between atoms: C_2  and  C_20 
REMARK    3  A    between atoms: C_7  and  O_8 
REMARK    4  A    between atoms: C_16  and  O_17 
REMARK    5  A    between atoms: C_23  and  O_26 
REMARK    6  A    between atoms: O_26  and  C_27 
REMARK    7  A    between atoms: C_27  and  C_28 
REMARK    8  A    between atoms: C_28  and  N_29 
ROOT
HETATM    1  C   UNK N   1      31.584  15.798   6.214  0.00  0.00     0.061 C 
HETATM    2  C   UNK N   1      32.531  16.334   7.314  0.00  0.00     0.171 C 
HETATM    3  O   UNK N   1      31.783  16.654   8.442  0.00  0.00    -0.340 OA
HETATM    4  C   UNK N   1      30.617  17.342   8.356  0.00  0.00     0.076 A 
HETATM    5  C   UNK N   1      30.058  17.908   9.510  0.00  0.00     0.040 A 
HETATM    6  C   UNK N   1      28.881  18.658   9.428  0.00  0.00     0.039 A 
HETATM    7  C   UNK N   1      28.261  18.861   8.192  0.00  0.00     0.066 A 
HETATM    8  C   UNK N   1      28.803  18.293   7.037  0.00  0.00     0.046 A 
HETATM    9  C   UNK N   1      29.962  17.512   7.111  0.00  0.00    -0.018 A 
HETATM   10  C   UNK N   1      30.535  16.880   5.858  0.00  0.00     0.029 C 
HETATM   11  C   UNK N   1      29.437  16.241   5.014  0.00  0.00     0.016 C 
ENDROOT
BRANCH   2  12
HETATM   12  C   UNK N   1      33.567  15.287   7.629  0.00  0.00    -0.028 A 
HETATM   13  C   UNK N   1      34.848  15.454   7.088  0.00  0.00     0.012 A 
HETATM   14  C   UNK N   1      35.746  14.395   7.066  0.00  0.00     0.037 A 
HETATM   15  C   UNK N   1      35.391  13.159   7.599  0.00  0.00     0.068 A 
HETATM   16  C   UNK N   1      34.125  12.984   8.185  0.00  0.00     0.037 A 
HETATM   17  C   UNK N   1      33.201  14.038   8.164  0.00  0.00     0.012 A 
BRANCH  15  18
HETATM   18  O   UNK N   1      36.288  12.159   7.527  0.00  0.00    -0.349 OA
BRANCH  18  19
HETATM   19  C   UNK N   1      36.703  11.474   8.634  0.00  0.00     0.206 C 
BRANCH  19  20
HETATM   20  C   UNK N   1      37.641  12.426   9.377  0.00  0.00     0.299 C 
BRANCH  20  21
HETATM   21  N   UNK N   1      37.157  12.838  10.694  0.00  0.00     0.090 N 
HETATM   22  C   UNK N   1      36.060  11.975  11.086  0.00  0.00     0.272 C 
HETATM   23  C   UNK N   1      35.201  12.787  12.020  0.00  0.00     0.032 C 
HETATM   24  C   UNK N   1      35.389  14.214  11.562  0.00  0.00     0.032 C 
HETATM   25  C   UNK N   1      36.636  14.205  10.697  0.00  0.00     0.272 C 
ENDBRANCH  20  21
ENDBRANCH  19  20
ENDBRANCH  18  19
ENDBRANCH  15  18
ENDBRANCH   2  12
BRANCH   1  26
HETATM   26  C   UNK N   1      32.342  15.292   4.992  0.00  0.00    -0.050 A 
HETATM   27  C   UNK N   1      32.367  13.928   4.659  0.00  0.00     0.010 A 
HETATM   28  C   UNK N   1      33.016  13.498   3.496  0.00  0.00     0.037 A 
HETATM   29  C   UNK N   1      33.608  14.430   2.639  0.00  0.00     0.065 A 
HETATM   30  C   UNK N   1      33.570  15.790   2.952  0.00  0.00     0.037 A 
HETATM   31  C   UNK N   1      32.948  16.218   4.126  0.00  0.00     0.010 A 
BRANCH  29  32
HETATM   32  O   UNK N   1      34.213  14.017   1.514  0.00  0.00    -0.361 OA
HETATM   33  H   UNK N   1      33.808  13.381   0.957  0.00  0.00     0.217 HD
ENDBRANCH  29  32
ENDBRANCH   1  26
BRANCH   7  34
HETATM   34  O   UNK N   1      27.140  19.595   8.114  0.00  0.00    -0.361 OA
HETATM   35  H   UNK N   1      26.782  19.996   8.881  0.00  0.00     0.217 HD
ENDBRANCH   7  34
TORSDOF 8
ENDMDL
MODEL 9
REMARK VINA RESULT:      -6.9      6.895     12.149
REMARK  8 active torsions:
REMARK  status: ('A' for Active; 'I' for Inactive)
REMARK    1  A    between atoms: C_1  and  C_13 
REMARK    2  A    between atoms: C_2  and  C_20 
REMARK    3  A    between atoms: C_7  and  O_8 
REMARK    4  A    between atoms: C_16  and  O_17 
REMARK    5  A    between atoms: C_23  and  O_26 
REMARK    6  A    between atoms: O_26  and  C_27 
REMARK    7  A    between atoms: C_27  and  C_28 
REMARK    8  A    between atoms: C_28  and  N_29 
ROOT
HETATM    1  C   UNK N   1      28.358  17.252   5.886  0.00  0.00     0.061 C 
HETATM    2  C   UNK N   1      29.020  16.305   4.856  0.00  0.00     0.171 C 
HETATM    3  O   UNK N   1      29.828  15.395   5.529  0.00  0.00    -0.340 OA
HETATM    4  C   UNK N   1      30.669  15.781   6.521  0.00  0.00     0.076 A 
HETATM    5  C   UNK N   1      31.674  14.908   6.958  0.00  0.00     0.040 A 
HETATM    6  C   UNK N   1      32.576  15.310   7.947  0.00  0.00     0.039 A 
HETATM    7  C   UNK N   1      32.490  16.592   8.499  0.00  0.00     0.066 A 
HETATM    8  C   UNK N   1      31.485  17.466   8.080  0.00  0.00     0.046 A 
HETATM    9  C   UNK N   1      30.555  17.063   7.114  0.00  0.00    -0.018 A 
HETATM   10  C   UNK N   1      29.453  18.007   6.677  0.00  0.00     0.029 C 
HETATM   11  C   UNK N   1      28.809  18.692   7.878  0.00  0.00     0.016 C 
ENDROOT
BRANCH   2  12
HETATM   12  C   UNK N   1      27.947  15.601   4.069  0.00  0.00    -0.028 A 
HETATM   13  C   UNK N   1      27.677  16.062   2.775  0.00  0.00     0.012 A 
HETATM   14  C   UNK N   1      26.512  15.684   2.121  0.00  0.00     0.037 A 
HETATM   15  C   UNK N   1      25.605  14.825   2.737  0.00  0.00     0.068 A 
HETATM   16  C   UNK N   1      25.879  14.318   4.019  0.00  0.00     0.037 A 
HETATM   17  C   UNK N   1      27.031  14.737   4.698  0.00  0.00     0.012 A 
BRANCH  15  18
HETATM   18  O   UNK N   1      24.479  14.513   2.071  0.00  0.00    -0.349 OA
BRANCH  18  19
HETATM   19  C   UNK N   1      23.508  13.721   2.617  0.00  0.00     0.206 C 
BRANCH  19  20
HETATM   20  C   UNK N   1      22.284  14.624   2.775  0.00  0.00     0.299 C 
BRANCH  20  21
HETATM   21  N   UNK N   1      21.922  14.905   4.164  0.00  0.00     0.090 N 
HETATM   22  C   UNK N   1      22.537  16.153   4.570  0.00  0.00     0.272 C 
HETATM   23  C   UNK N   1      22.722  16.065   6.062  0.00  0.00     0.032 C 
HETATM   24  C   UNK N   1      22.907  14.590   6.333  0.00  0.00     0.032 C 
HETATM   25  C   UNK N   1      22.406  13.880   5.088  0.00  0.00     0.272 C 
ENDBRANCH  20  21
ENDBRANCH  19  20
ENDBRANCH  18  19
ENDBRANCH  15  18
ENDBRANCH   2  12
BRANCH   1  26
HETATM   26  C   UNK N   1      27.346  18.193   5.242  0.00  0.00    -0.050 A 
HETATM   27  C   UNK N   1      27.755  19.262   4.429  0.00  0.00     0.010 A 
HETATM   28  C   UNK N   1      26.804  20.072   3.798  0.00  0.00     0.037 A 
HETATM   29  C   UNK N   1      25.442  19.795   3.942  0.00  0.00     0.065 A 
HETATM   30  C   UNK N   1      25.027  18.721   4.731  0.00  0.00     0.037 A 
HETATM   31  C   UNK N   1      25.973  17.930   5.385  0.00  0.00     0.010 A 
BRANCH  29  32
HETATM   32  O   UNK N   1      24.532  20.561   3.319  0.00  0.00    -0.361 OA
HETATM   33  H   UNK N   1      24.603  21.495   3.328  0.00  0.00     0.217 HD
ENDBRANCH  29  32
ENDBRANCH   1  26
BRANCH   7  34
HETATM   34  O   UNK N   1      33.366  16.981   9.437  0.00  0.00    -0.361 OA
HETATM   35  H   UNK N   1      34.218  16.593   9.480  0.00  0.00     0.217 HD
ENDBRANCH   7  34
TORSDOF 8
ENDMDL
