REMARK  8 active torsions:
REMARK  status: ('A' for Active; 'I' for Inactive)
REMARK    1  A    between atoms: C_1  and  C_13 
REMARK    2  A    between atoms: C_2  and  C_20 
REMARK    3  A    between atoms: C_7  and  O_8 
REMARK    4  A    between atoms: C_16  and  O_17 
REMARK    5  A    between atoms: C_23  and  O_26 
REMARK    6  A    between atoms: O_26  and  C_27 
REMARK    7  A    between atoms: C_27  and  C_28 
REMARK    8  A    between atoms: C_28  and  N_29 
ROOT
HETATM    1  C   UNK N   1       1.443  -1.973  -0.448  0.00  0.00     0.061 C 
HETATM    2  C   UNK N   1       1.523  -0.732   0.473  0.00  0.00     0.171 C 
HETATM    3  O   UNK N   1       2.657   0.004   0.147  0.00  0.00    -0.340 OA
HETATM    4  C   UNK N   1       3.860  -0.588  -0.061  0.00  0.00     0.076 A 
HETATM    5  C   UNK N   1       5.024   0.192  -0.081  0.00  0.00     0.040 A 
HETATM    6  C   UNK N   1       6.274  -0.411  -0.248  0.00  0.00     0.039 A 
HETATM    7  C   UNK N   1       6.373  -1.799  -0.383  0.00  0.00     0.066 A 
HETATM    8  C   UNK N   1       5.219  -2.585  -0.376  0.00  0.00     0.046 A 
HETATM    9  C   UNK N   1       3.959  -1.990  -0.243  0.00  0.00    -0.018 A 
HETATM   10  C   UNK N   1       2.708  -2.845  -0.257  0.00  0.00     0.029 C 
HETATM   11  C   UNK N   1       2.764  -3.882  -1.374  0.00  0.00     0.016 C 
ENDROOT
BRANCH   2  12
HETATM   12  C   UNK N   1       0.274   0.092   0.304  0.00  0.00    -0.028 A 
HETATM   13  C   UNK N   1      -0.803  -0.174   1.158  0.00  0.00     0.012 A 
HETATM   14  C   UNK N   1      -2.071   0.309   0.863  0.00  0.00     0.037 A 
HETATM   15  C   UNK N   1      -2.284   1.080  -0.277  0.00  0.00     0.068 A 
HETATM   16  C   UNK N   1      -1.207   1.393  -1.124  0.00  0.00     0.037 A 
HETATM   17  C   UNK N   1       0.063   0.866  -0.852  0.00  0.00     0.012 A 
BRANCH  15  18
HETATM   18  O   UNK N   1      -3.537   1.499  -0.531  0.00  0.00    -0.349 OA
BRANCH  18  19
HETATM   19  C   UNK N   1      -3.821   2.802  -0.827  0.00  0.00     0.206 C 
BRANCH  19  20
HETATM   20  C   UNK N   1      -4.345   3.413   0.473  0.00  0.00     0.299 C 
BRANCH  20  21
HETATM   21  N   UNK N   1      -3.699   4.670   0.848  0.00  0.00     0.090 N 
HETATM   22  C   UNK N   1      -4.206   5.733   0.002  0.00  0.00     0.272 C 
HETATM   23  C   UNK N   1      -3.115   6.769  -0.070  0.00  0.00     0.032 C 
HETATM   24  C   UNK N   1      -1.835   5.981   0.085  0.00  0.00     0.032 C 
HETATM   25  C   UNK N   1      -2.250   4.636   0.653  0.00  0.00     0.272 C 
ENDBRANCH  20  21
ENDBRANCH  19  20
ENDBRANCH  18  19
ENDBRANCH  15  18
ENDBRANCH   2  12
BRANCH   1  26
HETATM   26  C   UNK N   1       0.153  -2.760  -0.250  0.00  0.00    -0.050 A 
HETATM   27  C   UNK N   1       0.011  -3.680   0.801  0.00  0.00     0.010 A 
HETATM   28  C   UNK N   1      -1.206  -4.342   0.999  0.00  0.00     0.037 A 
HETATM   29  C   UNK N   1      -2.299  -4.060   0.175  0.00  0.00     0.065 A 
HETATM   30  C   UNK N   1      -2.173  -3.131  -0.860  0.00  0.00     0.037 A 
HETATM   31  C   UNK N   1      -0.951  -2.491  -1.077  0.00  0.00     0.010 A 
BRANCH  29  32
HETATM   32  O   UNK N   1      -3.472  -4.681   0.379  0.00  0.00    -0.361 OA
HETATM   33  H   UNK N   1      -4.257  -4.189   0.521  0.00  0.00     0.217 HD
ENDBRANCH  29  32
ENDBRANCH   1  26
BRANCH   7  34
HETATM   34  O   UNK N   1       7.575  -2.377  -0.528  0.00  0.00    -0.361 OA
HETATM   35  H   UNK N   1       7.645  -3.306  -0.629  0.00  0.00     0.217 HD
ENDBRANCH   7  34
TORSDOF 8
