REMARK  6 active torsions:
REMARK  status: ('A' for Active; 'I' for Inactive)
REMARK       I    between atoms: C_2  and  N_3 
REMARK    1  A    between atoms: C_2  and  C_11 
REMARK    2  A    between atoms: N_3  and  C_4 
REMARK    3  A    between atoms: C_11  and  N_12 
REMARK    4  A    between atoms: C_11  and  C_27 
REMARK    5  A    between atoms: N_12  and  S_13 
REMARK    6  A    between atoms: S_13  and  C_16 
ROOT
HETATM    1  C   UNK N   1      -0.159   0.553   0.619  0.00  0.00     0.218 C 
ENDROOT
BRANCH   1   2
HETATM    2  C   UNK N   1      -1.210   1.479   0.068  0.00  0.00     0.250 C 
HETATM    3  O   UNK N   1      -0.961   2.639  -0.228  0.00  0.00    -0.270 OA
HETATM    4  N   UNK N   1      -2.481   0.991   0.059  0.00  0.00    -0.325 N 
HETATM    5  H   UNK N   1      -2.553   0.018   0.185  0.00  0.00     0.169 HD
BRANCH   4   6
HETATM    6  C   UNK N   1      -3.714   1.666  -0.104  0.00  0.00     0.037 A 
HETATM    7  C   UNK N   1      -4.882   0.905  -0.015  0.00  0.00     0.046 A 
HETATM    8  C   UNK N   1      -6.125   1.533  -0.041  0.00  0.00     0.090 A 
HETATM    9  N   UNK N   1      -6.198   2.886  -0.141  0.00  0.00    -0.375 N 
HETATM   10  C   UNK N   1      -5.076   3.654  -0.226  0.00  0.00     0.090 A 
ATOM     11  HN  UNK N   1      -7.113   3.337  -0.152  1.00  0.00     0.164 HD
HETATM   12  C   UNK N   1      -3.809   3.059  -0.200  0.00  0.00     0.046 A 
ENDBRANCH   4   6
ENDBRANCH   1   2
BRANCH   1  13
HETATM   13  N   UNK N   1       1.080   1.171   1.126  0.00  0.00    -0.297 N 
HETATM   14  H   UNK N   1       1.132   1.497   2.091  0.00  0.00     0.173 HD
BRANCH  13  15
HETATM   15  S   UNK N   1       2.478   1.344   0.053  0.00  0.00     0.262 S 
HETATM   16  O   UNK N   1       3.175   1.652   1.390  0.00  0.00    -0.200 OA
HETATM   17  O   UNK N   1       2.708   2.836  -0.240  0.00  0.00    -0.200 OA
BRANCH  15  18
HETATM   18  C   UNK N   1       3.901   0.233  -0.007  0.00  0.00     0.108 A 
HETATM   19  C   UNK N   1       5.148   0.692  -0.471  0.00  0.00     0.028 A 
HETATM   20  C   UNK N   1       6.263  -0.168  -0.528  0.00  0.00     0.004 A 
HETATM   21  C   UNK N   1       6.157  -1.511  -0.136  0.00  0.00     0.032 A 
HETATM   22  C   UNK N   1       4.933  -1.978   0.322  0.00  0.00     0.068 A 
HETATM   23  N   UNK N   1       4.712  -3.263   0.725  0.00  0.00    -0.310 N 
HETATM   24  C   UNK N   1       3.791  -1.105   0.397  0.00  0.00     0.090 A 
HETATM   25  S   UNK N   1       3.132  -3.210   1.146  0.00  0.00     0.068 SA
ATOM     26  HN  UNK N   1       5.362  -4.049   0.757  1.00  0.00     0.176 HD
HETATM   27  N   UNK N   1       2.651  -1.670   0.871  0.00  0.00    -0.309 N 
ATOM     28  HN  UNK N   1       1.735  -1.246   1.017  1.00  0.00     0.176 HD
ENDBRANCH  15  18
ENDBRANCH  13  15
ENDBRANCH   1  13
BRANCH   1  29
HETATM   29  C   UNK N   1      -0.096  -0.763  -0.135  0.00  0.00    -0.026 A 
HETATM   30  C   UNK N   1       0.698  -0.957  -1.276  0.00  0.00     0.010 A 
HETATM   31  C   UNK N   1       0.650  -2.178  -1.965  0.00  0.00     0.001 A 
HETATM   32  C   UNK N   1      -0.225  -3.189  -1.552  0.00  0.00     0.000 A 
HETATM   33  C   UNK N   1      -1.047  -2.988  -0.444  0.00  0.00     0.001 A 
HETATM   34  C   UNK N   1      -0.979  -1.787   0.258  0.00  0.00     0.010 A 
ENDBRANCH   1  29
TORSDOF 6
