MODEL 1
REMARK VINA RESULT:      -7.6      0.000      0.000
REMARK  6 active torsions:
REMARK  status: ('A' for Active; 'I' for Inactive)
REMARK       I    between atoms: C_2  and  N_3 
REMARK    1  A    between atoms: C_2  and  C_11 
REMARK    2  A    between atoms: N_3  and  C_4 
REMARK    3  A    between atoms: C_11  and  N_12 
REMARK    4  A    between atoms: C_11  and  C_27 
REMARK    5  A    between atoms: N_12  and  S_13 
REMARK    6  A    between atoms: S_13  and  C_16 
ROOT
HETATM    1  C   UNK N   1      31.436  17.151   7.686  0.00  0.00     0.218 C 
ENDROOT
BRANCH   1   2
HETATM    2  C   UNK N   1      32.761  17.275   8.390  0.00  0.00     0.250 C 
HETATM    3  O   UNK N   1      33.457  18.275   8.289  0.00  0.00    -0.270 OA
HETATM    4  N   UNK N   1      33.202  16.152   9.021  0.00  0.00    -0.325 N 
HETATM    5  H   UNK N   1      32.519  15.457   9.158  0.00  0.00     0.169 HD
BRANCH   4   6
HETATM    6  C   UNK N   1      34.490  15.829   9.511  0.00  0.00     0.037 A 
HETATM    7  C   UNK N   1      34.841  16.318  10.771  0.00  0.00     0.046 A 
HETATM    8  C   UNK N   1      36.043  15.929  11.358  0.00  0.00     0.090 A 
HETATM    9  N   UNK N   1      36.866  15.066  10.707  0.00  0.00    -0.375 N 
HETATM   10  C   UNK N   1      36.548  14.571   9.478  0.00  0.00     0.090 A 
ATOM     11  HN  UNK N   1      37.741  14.782  11.148  1.00  0.00     0.164 HD
HETATM   12  C   UNK N   1      35.347  14.936   8.858  0.00  0.00     0.046 A 
ENDBRANCH   4   6
ENDBRANCH   1   2
BRANCH   1  13
HETATM   13  N   UNK N   1      30.275  16.760   8.507  0.00  0.00    -0.297 N 
HETATM   14  H   UNK N   1      30.391  16.100   9.276  0.00  0.00     0.173 HD
BRANCH  13  15
HETATM   15  S   UNK N   1      28.680  17.441   8.152  0.00  0.00     0.262 S 
HETATM   16  O   UNK N   1      29.462  18.757   8.309  0.00  0.00    -0.200 OA
HETATM   17  O   UNK N   1      28.005  17.858   9.469  0.00  0.00    -0.200 OA
BRANCH  15  18
HETATM   18  C   UNK N   1      28.226  18.324   6.643  0.00  0.00     0.108 A 
HETATM   19  C   UNK N   1      28.617  17.836   5.383  0.00  0.00     0.028 A 
HETATM   20  C   UNK N   1      28.274  18.520   4.200  0.00  0.00     0.004 A 
HETATM   21  C   UNK N   1      27.543  19.717   4.247  0.00  0.00     0.032 A 
HETATM   22  C   UNK N   1      27.151  20.211   5.483  0.00  0.00     0.068 A 
HETATM   23  N   UNK N   1      26.442  21.365   5.650  0.00  0.00    -0.310 N 
HETATM   24  C   UNK N   1      27.485  19.513   6.697  0.00  0.00     0.090 A 
HETATM   25  S   UNK N   1      26.281  21.421   7.277  0.00  0.00     0.068 SA
ATOM     26  HN  UNK N   1      26.100  22.019   4.945  1.00  0.00     0.176 HD
HETATM   27  N   UNK N   1      27.039  20.086   7.844  0.00  0.00    -0.309 N 
ATOM     28  HN  UNK N   1      27.148  19.768   8.807  1.00  0.00     0.176 HD
ENDBRANCH  15  18
ENDBRANCH  13  15
ENDBRANCH   1  13
BRANCH   1  29
HETATM   29  C   UNK N   1      31.581  16.615   6.273  0.00  0.00    -0.026 A 
HETATM   30  C   UNK N   1      32.077  17.382   5.208  0.00  0.00     0.010 A 
HETATM   31  C   UNK N   1      32.113  16.844   3.913  0.00  0.00     0.001 A 
HETATM   32  C   UNK N   1      31.609  15.563   3.665  0.00  0.00     0.000 A 
HETATM   33  C   UNK N   1      31.076  14.810   4.711  0.00  0.00     0.001 A 
HETATM   34  C   UNK N   1      31.066  15.332   6.002  0.00  0.00     0.010 A 
ENDBRANCH   1  29
TORSDOF 6
ENDMDL
MODEL 2
REMARK VINA RESULT:      -7.0     12.575     16.263
REMARK  6 active torsions:
REMARK  status: ('A' for Active; 'I' for Inactive)
REMARK       I    between atoms: C_2  and  N_3 
REMARK    1  A    between atoms: C_2  and  C_11 
REMARK    2  A    between atoms: N_3  and  C_4 
REMARK    3  A    between atoms: C_11  and  N_12 
REMARK    4  A    between atoms: C_11  and  C_27 
REMARK    5  A    between atoms: N_12  and  S_13 
REMARK    6  A    between atoms: S_13  and  C_16 
ROOT
HETATM    1  C   UNK N   1      27.446  25.156  -4.873  0.00  0.00     0.218 C 
ENDROOT
BRANCH   1   2
HETATM    2  C   UNK N   1      26.461  24.502  -5.805  0.00  0.00     0.250 C 
HETATM    3  O   UNK N   1      25.267  24.446  -5.550  0.00  0.00    -0.270 OA
HETATM    4  N   UNK N   1      27.001  23.849  -6.871  0.00  0.00    -0.325 N 
HETATM    5  H   UNK N   1      27.942  24.067  -7.058  0.00  0.00     0.169 HD
BRANCH   4   6
HETATM    6  C   UNK N   1      26.418  22.908  -7.752  0.00  0.00     0.037 A 
HETATM    7  C   UNK N   1      26.509  23.164  -9.122  0.00  0.00     0.046 A 
HETATM    8  C   UNK N   1      26.066  22.214 -10.039  0.00  0.00     0.090 A 
HETATM    9  N   UNK N   1      25.558  21.033  -9.598  0.00  0.00    -0.375 N 
HETATM   10  C   UNK N   1      25.460  20.754  -8.268  0.00  0.00     0.090 A 
ATOM     11  HN  UNK N   1      25.243  20.340 -10.277  1.00  0.00     0.164 HD
HETATM   12  C   UNK N   1      25.898  21.683  -7.317  0.00  0.00     0.046 A 
ENDBRANCH   4   6
ENDBRANCH   1   2
BRANCH   1  13
HETATM   13  N   UNK N   1      28.002  24.323  -3.791  0.00  0.00    -0.297 N 
HETATM   14  H   UNK N   1      27.412  24.041  -3.008  0.00  0.00     0.173 HD
BRANCH  13  15
HETATM   15  S   UNK N   1      29.696  23.812  -3.858  0.00  0.00     0.262 S 
HETATM   16  O   UNK N   1      29.168  22.732  -2.897  0.00  0.00    -0.200 OA
HETATM   17  O   UNK N   1      30.432  24.345  -2.617  0.00  0.00    -0.200 OA
BRANCH  15  18
HETATM   18  C   UNK N   1      30.309  22.299  -4.630  0.00  0.00     0.108 A 
HETATM   19  C   UNK N   1      29.677  21.772  -5.772  0.00  0.00     0.028 A 
HETATM   20  C   UNK N   1      30.142  20.589  -6.379  0.00  0.00     0.004 A 
HETATM   21  C   UNK N   1      31.242  19.894  -5.852  0.00  0.00     0.032 A 
HETATM   22  C   UNK N   1      31.874  20.401  -4.725  0.00  0.00     0.068 A 
HETATM   23  N   UNK N   1      32.947  19.809  -4.125  0.00  0.00    -0.310 N 
HETATM   24  C   UNK N   1      31.415  21.616  -4.105  0.00  0.00     0.090 A 
HETATM   25  S   UNK N   1      33.243  20.839  -2.888  0.00  0.00     0.068 SA
ATOM     26  HN  UNK N   1      33.437  18.952  -4.382  1.00  0.00     0.176 HD
HETATM   27  N   UNK N   1      32.117  22.020  -3.016  0.00  0.00    -0.309 N 
ATOM     28  HN  UNK N   1      31.980  22.844  -2.431  1.00  0.00     0.176 HD
ENDBRANCH  15  18
ENDBRANCH  13  15
ENDBRANCH   1  13
BRANCH   1  29
HETATM   29  C   UNK N   1      27.113  26.614  -4.612  0.00  0.00    -0.026 A 
HETATM   30  C   UNK N   1      26.344  27.042  -3.518  0.00  0.00     0.010 A 
HETATM   31  C   UNK N   1      26.014  28.398  -3.381  0.00  0.00     0.001 A 
HETATM   32  C   UNK N   1      26.403  29.323  -4.356  0.00  0.00     0.000 A 
HETATM   33  C   UNK N   1      27.131  28.899  -5.467  0.00  0.00     0.001 A 
HETATM   34  C   UNK N   1      27.484  27.557  -5.590  0.00  0.00     0.010 A 
ENDBRANCH   1  29
TORSDOF 6
ENDMDL
MODEL 3
REMARK VINA RESULT:      -6.9      3.544      7.555
REMARK  6 active torsions:
REMARK  status: ('A' for Active; 'I' for Inactive)
REMARK       I    between atoms: C_2  and  N_3 
REMARK    1  A    between atoms: C_2  and  C_11 
REMARK    2  A    between atoms: N_3  and  C_4 
REMARK    3  A    between atoms: C_11  and  N_12 
REMARK    4  A    between atoms: C_11  and  C_27 
REMARK    5  A    between atoms: N_12  and  S_13 
REMARK    6  A    between atoms: S_13  and  C_16 
ROOT
HETATM    1  C   UNK N   1      27.933  17.432   3.600  0.00  0.00     0.218 C 
ENDROOT
BRANCH   1   2
HETATM    2  C   UNK N   1      27.098  16.264   4.050  0.00  0.00     0.250 C 
HETATM    3  O   UNK N   1      26.783  15.360   3.288  0.00  0.00    -0.270 OA
HETATM    4  N   UNK N   1      26.594  16.349   5.311  0.00  0.00    -0.325 N 
HETATM    5  H   UNK N   1      27.011  17.035   5.880  0.00  0.00     0.169 HD
BRANCH   4   6
HETATM    6  C   UNK N   1      25.563  15.604   5.932  0.00  0.00     0.037 A 
HETATM    7  C   UNK N   1      25.943  14.598   6.824  0.00  0.00     0.046 A 
HETATM    8  C   UNK N   1      24.974  13.918   7.559  0.00  0.00     0.090 A 
HETATM    9  N   UNK N   1      23.663  14.244   7.415  0.00  0.00    -0.375 N 
HETATM   10  C   UNK N   1      23.264  15.223   6.556  0.00  0.00     0.090 A 
ATOM     11  HN  UNK N   1      22.962  13.745   7.963  1.00  0.00     0.164 HD
HETATM   12  C   UNK N   1      24.208  15.930   5.803  0.00  0.00     0.046 A 
ENDBRANCH   4   6
ENDBRANCH   1   2
BRANCH   1  13
HETATM   13  N   UNK N   1      29.379  17.196   3.428  0.00  0.00    -0.297 N 
HETATM   14  H   UNK N   1      29.866  17.576   2.616  0.00  0.00     0.173 HD
BRANCH  13  15
HETATM   15  S   UNK N   1      30.265  16.253   4.636  0.00  0.00     0.262 S 
HETATM   16  O   UNK N   1      31.466  16.899   3.923  0.00  0.00    -0.200 OA
HETATM   17  O   UNK N   1      30.770  14.952   3.990  0.00  0.00    -0.200 OA
BRANCH  15  18
HETATM   18  C   UNK N   1      31.197  16.934   6.025  0.00  0.00     0.108 A 
HETATM   19  C   UNK N   1      32.581  17.160   5.916  0.00  0.00     0.028 A 
HETATM   20  C   UNK N   1      33.319  17.686   6.995  0.00  0.00     0.004 A 
HETATM   21  C   UNK N   1      32.695  17.985   8.216  0.00  0.00     0.032 A 
HETATM   22  C   UNK N   1      31.330  17.766   8.339  0.00  0.00     0.068 A 
HETATM   23  N   UNK N   1      30.620  18.016   9.477  0.00  0.00    -0.310 N 
HETATM   24  C   UNK N   1      30.565  17.242   7.238  0.00  0.00     0.090 A 
HETATM   25  S   UNK N   1      29.109  17.578   9.026  0.00  0.00     0.068 SA
ATOM     26  HN  UNK N   1      30.945  18.382  10.372  1.00  0.00     0.176 HD
HETATM   27  N   UNK N   1      29.237  17.080   7.472  0.00  0.00    -0.309 N 
ATOM     28  HN  UNK N   1      28.510  16.737   6.844  1.00  0.00     0.176 HD
ENDBRANCH  15  18
ENDBRANCH  13  15
ENDBRANCH   1  13
BRANCH   1  29
HETATM   29  C   UNK N   1      27.443  18.748   4.176  0.00  0.00    -0.026 A 
HETATM   30  C   UNK N   1      28.145  19.465   5.157  0.00  0.00     0.010 A 
HETATM   31  C   UNK N   1      27.595  20.638   5.697  0.00  0.00     0.001 A 
HETATM   32  C   UNK N   1      26.325  21.071   5.300  0.00  0.00     0.000 A 
HETATM   33  C   UNK N   1      25.605  20.341   4.356  0.00  0.00     0.001 A 
HETATM   34  C   UNK N   1      26.162  19.193   3.798  0.00  0.00     0.010 A 
ENDBRANCH   1  29
TORSDOF 6
ENDMDL
MODEL 4
REMARK VINA RESULT:      -6.9      1.945      2.522
REMARK  6 active torsions:
REMARK  status: ('A' for Active; 'I' for Inactive)
REMARK       I    between atoms: C_2  and  N_3 
REMARK    1  A    between atoms: C_2  and  C_11 
REMARK    2  A    between atoms: N_3  and  C_4 
REMARK    3  A    between atoms: C_11  and  N_12 
REMARK    4  A    between atoms: C_11  and  C_27 
REMARK    5  A    between atoms: N_12  and  S_13 
REMARK    6  A    between atoms: S_13  and  C_16 
ROOT
HETATM    1  C   UNK N   1      32.357  17.371   6.507  0.00  0.00     0.218 C 
ENDROOT
BRANCH   1   2
HETATM    2  C   UNK N   1      33.564  17.355   7.405  0.00  0.00     0.250 C 
HETATM    3  O   UNK N   1      34.545  18.051   7.185  0.00  0.00    -0.270 OA
HETATM    4  N   UNK N   1      33.557  16.413   8.388  0.00  0.00    -0.325 N 
HETATM    5  H   UNK N   1      32.679  16.004   8.564  0.00  0.00     0.169 HD
BRANCH   4   6
HETATM    6  C   UNK N   1      34.614  15.932   9.196  0.00  0.00     0.037 A 
HETATM    7  C   UNK N   1      35.405  14.904   8.678  0.00  0.00     0.046 A 
HETATM    8  C   UNK N   1      36.534  14.477   9.373  0.00  0.00     0.090 A 
HETATM    9  N   UNK N   1      36.871  15.071  10.547  0.00  0.00    -0.375 N 
HETATM   10  C   UNK N   1      36.121  16.079  11.075  0.00  0.00     0.090 A 
ATOM     11  HN  UNK N   1      37.704  14.757  11.045  1.00  0.00     0.164 HD
HETATM   12  C   UNK N   1      34.980  16.536  10.404  0.00  0.00     0.046 A 
ENDBRANCH   4   6
ENDBRANCH   1   2
BRANCH   1  13
HETATM   13  N   UNK N   1      31.035  17.402   7.160  0.00  0.00    -0.297 N 
HETATM   14  H   UNK N   1      30.966  17.521   8.171  0.00  0.00     0.173 HD
BRANCH  13  15
HETATM   15  S   UNK N   1      29.568  17.231   6.184  0.00  0.00     0.262 S 
HETATM   16  O   UNK N   1      28.924  17.161   7.580  0.00  0.00    -0.200 OA
HETATM   17  O   UNK N   1      29.189  15.744   6.097  0.00  0.00    -0.200 OA
BRANCH  15  18
HETATM   18  C   UNK N   1      28.249  18.458   6.045  0.00  0.00     0.108 A 
HETATM   19  C   UNK N   1      28.242  19.598   6.871  0.00  0.00     0.028 A 
HETATM   20  C   UNK N   1      27.215  20.557   6.776  0.00  0.00     0.004 A 
HETATM   21  C   UNK N   1      26.162  20.396   5.863  0.00  0.00     0.032 A 
HETATM   22  C   UNK N   1      26.154  19.276   5.044  0.00  0.00     0.068 A 
HETATM   23  N   UNK N   1      25.181  19.014   4.124  0.00  0.00    -0.310 N 
HETATM   24  C   UNK N   1      27.206  18.296   5.123  0.00  0.00     0.090 A 
HETATM   25  S   UNK N   1      25.704  17.602   3.483  0.00  0.00     0.068 SA
ATOM     26  HN  UNK N   1      24.348  19.556   3.895  1.00  0.00     0.176 HD
HETATM   27  N   UNK N   1      27.098  17.250   4.265  0.00  0.00    -0.309 N 
ATOM     28  HN  UNK N   1      27.722  16.453   4.140  1.00  0.00     0.176 HD
ENDBRANCH  15  18
ENDBRANCH  13  15
ENDBRANCH   1  13
BRANCH   1  29
HETATM   29  C   UNK N   1      32.561  16.546   5.249  0.00  0.00    -0.026 A 
HETATM   30  C   UNK N   1      32.662  15.146   5.257  0.00  0.00     0.010 A 
HETATM   31  C   UNK N   1      32.925  14.455   4.064  0.00  0.00     0.001 A 
HETATM   32  C   UNK N   1      33.139  15.157   2.873  0.00  0.00     0.000 A 
HETATM   33  C   UNK N   1      33.081  16.550   2.866  0.00  0.00     0.001 A 
HETATM   34  C   UNK N   1      32.792  17.235   4.043  0.00  0.00     0.010 A 
ENDBRANCH   1  29
TORSDOF 6
ENDMDL
MODEL 5
REMARK VINA RESULT:      -6.9      7.982     10.420
REMARK  6 active torsions:
REMARK  status: ('A' for Active; 'I' for Inactive)
REMARK       I    between atoms: C_2  and  N_3 
REMARK    1  A    between atoms: C_2  and  C_11 
REMARK    2  A    between atoms: N_3  and  C_4 
REMARK    3  A    between atoms: C_11  and  N_12 
REMARK    4  A    between atoms: C_11  and  C_27 
REMARK    5  A    between atoms: N_12  and  S_13 
REMARK    6  A    between atoms: S_13  and  C_16 
ROOT
HETATM    1  C   UNK N   1      21.489  13.372   6.658  0.00  0.00     0.218 C 
ENDROOT
BRANCH   1   2
HETATM    2  C   UNK N   1      22.671  13.899   5.890  0.00  0.00     0.250 C 
HETATM    3  O   UNK N   1      23.159  13.288   4.950  0.00  0.00    -0.270 OA
HETATM    4  N   UNK N   1      23.252  15.021   6.397  0.00  0.00    -0.325 N 
HETATM    5  H   UNK N   1      22.711  15.505   7.061  0.00  0.00     0.169 HD
BRANCH   4   6
HETATM    6  C   UNK N   1      24.513  15.600   6.117  0.00  0.00     0.037 A 
HETATM    7  C   UNK N   1      24.558  16.611   5.154  0.00  0.00     0.046 A 
HETATM    8  C   UNK N   1      25.746  17.302   4.928  0.00  0.00     0.090 A 
HETATM    9  N   UNK N   1      26.854  17.001   5.653  0.00  0.00    -0.375 N 
HETATM   10  C   UNK N   1      26.839  16.022   6.601  0.00  0.00     0.090 A 
ATOM     11  HN  UNK N   1      27.717  17.518   5.484  1.00  0.00     0.164 HD
HETATM   12  C   UNK N   1      25.663  15.307   6.859  0.00  0.00     0.046 A 
ENDBRANCH   4   6
ENDBRANCH   1   2
BRANCH   1  13
HETATM   13  N   UNK N   1      20.192  14.036   6.432  0.00  0.00    -0.297 N 
HETATM   14  H   UNK N   1      19.550  14.184   7.210  0.00  0.00     0.173 HD
BRANCH  13  15
HETATM   15  S   UNK N   1      19.755  14.577   4.804  0.00  0.00     0.262 S 
HETATM   16  O   UNK N   1      18.881  15.553   5.612  0.00  0.00    -0.200 OA
HETATM   17  O   UNK N   1      18.413  13.941   4.404  0.00  0.00    -0.200 OA
BRANCH  15  18
HETATM   18  C   UNK N   1      20.198  16.167   4.070  0.00  0.00     0.108 A 
HETATM   19  C   UNK N   1      20.727  17.200   4.866  0.00  0.00     0.028 A 
HETATM   20  C   UNK N   1      21.071  18.446   4.304  0.00  0.00     0.004 A 
HETATM   21  C   UNK N   1      20.881  18.697   2.937  0.00  0.00     0.032 A 
HETATM   22  C   UNK N   1      20.358  17.688   2.140  0.00  0.00     0.068 A 
HETATM   23  N   UNK N   1      20.127  17.819   0.801  0.00  0.00    -0.310 N 
HETATM   24  C   UNK N   1      20.016  16.407   2.700  0.00  0.00     0.090 A 
HETATM   25  S   UNK N   1      19.530  16.344   0.423  0.00  0.00     0.068 SA
ATOM     26  HN  UNK N   1      20.287  18.625   0.196  1.00  0.00     0.176 HD
HETATM   27  N   UNK N   1      19.524  15.496   1.822  0.00  0.00    -0.309 N 
ATOM     28  HN  UNK N   1      19.228  14.534   1.991  1.00  0.00     0.176 HD
ENDBRANCH  15  18
ENDBRANCH  13  15
ENDBRANCH   1  13
BRANCH   1  29
HETATM   29  C   UNK N   1      21.868  12.903   8.051  0.00  0.00    -0.026 A 
HETATM   30  C   UNK N   1      22.843  11.923   8.292  0.00  0.00     0.010 A 
HETATM   31  C   UNK N   1      23.089  11.486   9.602  0.00  0.00     0.001 A 
HETATM   32  C   UNK N   1      22.331  11.983  10.668  0.00  0.00     0.000 A 
HETATM   33  C   UNK N   1      21.332  12.926  10.430  0.00  0.00     0.001 A 
HETATM   34  C   UNK N   1      21.106  13.382   9.134  0.00  0.00     0.010 A 
ENDBRANCH   1  29
TORSDOF 6
ENDMDL
MODEL 6
REMARK VINA RESULT:      -6.9      7.211     10.654
REMARK  6 active torsions:
REMARK  status: ('A' for Active; 'I' for Inactive)
REMARK       I    between atoms: C_2  and  N_3 
REMARK    1  A    between atoms: C_2  and  C_11 
REMARK    2  A    between atoms: N_3  and  C_4 
REMARK    3  A    between atoms: C_11  and  N_12 
REMARK    4  A    between atoms: C_11  and  C_27 
REMARK    5  A    between atoms: N_12  and  S_13 
REMARK    6  A    between atoms: S_13  and  C_16 
ROOT
HETATM    1  C   UNK N   1      20.600  16.640   5.276  0.00  0.00     0.218 C 
ENDROOT
BRANCH   1   2
HETATM    2  C   UNK N   1      21.871  17.330   5.695  0.00  0.00     0.250 C 
HETATM    3  O   UNK N   1      21.867  18.301   6.439  0.00  0.00    -0.270 OA
HETATM    4  N   UNK N   1      23.007  16.899   5.081  0.00  0.00    -0.325 N 
HETATM    5  H   UNK N   1      22.925  16.038   4.612  0.00  0.00     0.169 HD
BRANCH   4   6
HETATM    6  C   UNK N   1      24.287  17.498   5.011  0.00  0.00     0.037 A 
HETATM    7  C   UNK N   1      25.378  16.737   5.438  0.00  0.00     0.046 A 
HETATM    8  C   UNK N   1      26.673  17.225   5.275  0.00  0.00     0.090 A 
HETATM    9  N   UNK N   1      26.872  18.435   4.692  0.00  0.00    -0.375 N 
HETATM   10  C   UNK N   1      25.827  19.198   4.263  0.00  0.00     0.090 A 
ATOM     11  HN  UNK N   1      27.824  18.781   4.571  1.00  0.00     0.164 HD
HETATM   12  C   UNK N   1      24.512  18.740   4.406  0.00  0.00     0.046 A 
ENDBRANCH   4   6
ENDBRANCH   1   2
BRANCH   1  13
HETATM   13  N   UNK N   1      20.242  15.402   5.992  0.00  0.00    -0.297 N 
HETATM   14  H   UNK N   1      19.693  14.681   5.525  0.00  0.00     0.173 HD
BRANCH  13  15
HETATM   15  S   UNK N   1      20.769  15.173   7.667  0.00  0.00     0.262 S 
HETATM   16  O   UNK N   1      20.285  13.740   7.380  0.00  0.00    -0.200 OA
HETATM   17  O   UNK N   1      19.544  15.241   8.595  0.00  0.00    -0.200 OA
BRANCH  15  18
HETATM   18  C   UNK N   1      22.188  14.189   8.197  0.00  0.00     0.108 A 
HETATM   19  C   UNK N   1      23.385  14.204   7.458  0.00  0.00     0.028 A 
HETATM   20  C   UNK N   1      24.497  13.436   7.859  0.00  0.00     0.004 A 
HETATM   21  C   UNK N   1      24.435  12.623   9.000  0.00  0.00     0.032 A 
HETATM   22  C   UNK N   1      23.260  12.597   9.739  0.00  0.00     0.068 A 
HETATM   23  N   UNK N   1      23.085  11.842  10.862  0.00  0.00    -0.310 N 
HETATM   24  C   UNK N   1      22.124  13.388   9.346  0.00  0.00     0.090 A 
HETATM   25  S   UNK N   1      21.549  12.221  11.278  0.00  0.00     0.068 SA
ATOM     26  HN  UNK N   1      23.741  11.210  11.322  1.00  0.00     0.176 HD
HETATM   27  N   UNK N   1      21.035  13.290  10.151  0.00  0.00    -0.309 N 
ATOM     28  HN  UNK N   1      20.133  13.759  10.073  1.00  0.00     0.176 HD
ENDBRANCH  15  18
ENDBRANCH  13  15
ENDBRANCH   1  13
BRANCH   1  29
HETATM   29  C   UNK N   1      20.347  16.753   3.784  0.00  0.00    -0.026 A 
HETATM   30  C   UNK N   1      20.342  15.647   2.920  0.00  0.00     0.010 A 
HETATM   31  C   UNK N   1      20.174  15.835   1.540  0.00  0.00     0.001 A 
HETATM   32  C   UNK N   1      20.063  17.125   1.011  0.00  0.00     0.000 A 
HETATM   33  C   UNK N   1      20.109  18.231   1.858  0.00  0.00     0.001 A 
HETATM   34  C   UNK N   1      20.247  18.044   3.231  0.00  0.00     0.010 A 
ENDBRANCH   1  29
TORSDOF 6
ENDMDL
MODEL 7
REMARK VINA RESULT:      -6.9      3.262      8.273
REMARK  6 active torsions:
REMARK  status: ('A' for Active; 'I' for Inactive)
REMARK       I    between atoms: C_2  and  N_3 
REMARK    1  A    between atoms: C_2  and  C_11 
REMARK    2  A    between atoms: N_3  and  C_4 
REMARK    3  A    between atoms: C_11  and  N_12 
REMARK    4  A    between atoms: C_11  and  C_27 
REMARK    5  A    between atoms: N_12  and  S_13 
REMARK    6  A    between atoms: S_13  and  C_16 
ROOT
HETATM    1  C   UNK N   1      33.503  16.265   7.084  0.00  0.00     0.218 C 
ENDROOT
BRANCH   1   2
HETATM    2  C   UNK N   1      32.448  17.258   7.492  0.00  0.00     0.250 C 
HETATM    3  O   UNK N   1      32.724  18.283   8.099  0.00  0.00    -0.270 OA
HETATM    4  N   UNK N   1      31.160  16.875   7.275  0.00  0.00    -0.325 N 
HETATM    5  H   UNK N   1      31.052  16.110   6.667  0.00  0.00     0.169 HD
BRANCH   4   6
HETATM    6  C   UNK N   1      29.953  17.408   7.787  0.00  0.00     0.037 A 
HETATM    7  C   UNK N   1      29.703  17.242   9.151  0.00  0.00     0.046 A 
HETATM    8  C   UNK N   1      28.596  17.853   9.735  0.00  0.00     0.090 A 
HETATM    9  N   UNK N   1      27.768  18.619   8.977  0.00  0.00    -0.375 N 
HETATM   10  C   UNK N   1      27.988  18.801   7.646  0.00  0.00     0.090 A 
ATOM     11  HN  UNK N   1      26.963  19.068   9.416  1.00  0.00     0.164 HD
HETATM   12  C   UNK N   1      29.093  18.206   7.024  0.00  0.00     0.046 A 
ENDBRANCH   4   6
ENDBRANCH   1   2
BRANCH   1  13
HETATM   13  N   UNK N   1      34.745  16.241   7.878  0.00  0.00    -0.297 N 
HETATM   14  H   UNK N   1      35.593  16.675   7.514  0.00  0.00     0.173 HD
BRANCH  13  15
HETATM   15  S   UNK N   1      34.758  15.458   9.466  0.00  0.00     0.262 S 
HETATM   16  O   UNK N   1      34.575  14.204   8.592  0.00  0.00    -0.200 OA
HETATM   17  O   UNK N   1      33.310  15.182   9.905  0.00  0.00    -0.200 OA
BRANCH  15  18
HETATM   18  C   UNK N   1      36.061  14.375  10.093  0.00  0.00     0.108 A 
HETATM   19  C   UNK N   1      37.350  14.405   9.527  0.00  0.00     0.028 A 
HETATM   20  C   UNK N   1      38.372  13.560  10.005  0.00  0.00     0.004 A 
HETATM   21  C   UNK N   1      38.129  12.656  11.050  0.00  0.00     0.032 A 
HETATM   22  C   UNK N   1      36.863  12.615  11.616  0.00  0.00     0.068 A 
HETATM   23  N   UNK N   1      36.511  11.775  12.633  0.00  0.00    -0.310 N 
HETATM   24  C   UNK N   1      35.815  13.482  11.145  0.00  0.00     0.090 A 
HETATM   25  S   UNK N   1      34.944  12.179  12.868  0.00  0.00     0.068 SA
ATOM     26  HN  UNK N   1      37.078  11.079  13.119  1.00  0.00     0.176 HD
HETATM   27  N   UNK N   1      34.622  13.361  11.782  0.00  0.00    -0.309 N 
ATOM     28  HN  UNK N   1      33.753  13.871  11.625  1.00  0.00     0.176 HD
ENDBRANCH  15  18
ENDBRANCH  13  15
ENDBRANCH   1  13
BRANCH   1  29
HETATM   29  C   UNK N   1      33.561  16.069   5.580  0.00  0.00    -0.026 A 
HETATM   30  C   UNK N   1      33.091  17.022   4.663  0.00  0.00     0.010 A 
HETATM   31  C   UNK N   1      33.109  16.742   3.288  0.00  0.00     0.001 A 
HETATM   32  C   UNK N   1      33.545  15.495   2.827  0.00  0.00     0.000 A 
HETATM   33  C   UNK N   1      33.974  14.528   3.735  0.00  0.00     0.001 A 
HETATM   34  C   UNK N   1      33.984  14.816   5.097  0.00  0.00     0.010 A 
ENDBRANCH   1  29
TORSDOF 6
ENDMDL
MODEL 8
REMARK VINA RESULT:      -6.8      7.224     12.705
REMARK  6 active torsions:
REMARK  status: ('A' for Active; 'I' for Inactive)
REMARK       I    between atoms: C_2  and  N_3 
REMARK    1  A    between atoms: C_2  and  C_11 
REMARK    2  A    between atoms: N_3  and  C_4 
REMARK    3  A    between atoms: C_11  and  N_12 
REMARK    4  A    between atoms: C_11  and  C_27 
REMARK    5  A    between atoms: N_12  and  S_13 
REMARK    6  A    between atoms: S_13  and  C_16 
ROOT
HETATM    1  C   UNK N   1      36.942  13.571  14.387  0.00  0.00     0.218 C 
ENDROOT
BRANCH   1   2
HETATM    2  C   UNK N   1      35.937  13.995  13.350  0.00  0.00     0.250 C 
HETATM    3  O   UNK N   1      34.804  13.535  13.319  0.00  0.00    -0.270 OA
HETATM    4  N   UNK N   1      36.412  14.807  12.365  0.00  0.00    -0.325 N 
HETATM    5  H   UNK N   1      37.283  15.223  12.555  0.00  0.00     0.169 HD
BRANCH   4   6
HETATM    6  C   UNK N   1      35.846  15.145  11.113  0.00  0.00     0.037 A 
HETATM    7  C   UNK N   1      35.339  16.438  10.963  0.00  0.00     0.046 A 
HETATM    8  C   UNK N   1      34.886  16.867   9.718  0.00  0.00     0.090 A 
HETATM    9  N   UNK N   1      34.950  16.031   8.649  0.00  0.00    -0.375 N 
HETATM   10  C   UNK N   1      35.443  14.766   8.764  0.00  0.00     0.090 A 
ATOM     11  HN  UNK N   1      34.623  16.357   7.739  1.00  0.00     0.164 HD
HETATM   12  C   UNK N   1      35.910  14.300   9.999  0.00  0.00     0.046 A 
ENDBRANCH   4   6
ENDBRANCH   1   2
BRANCH   1  13
HETATM   13  N   UNK N   1      37.640  12.292  14.161  0.00  0.00    -0.297 N 
HETATM   14  H   UNK N   1      38.659  12.255  14.179  0.00  0.00     0.173 HD
BRANCH  13  15
HETATM   15  S   UNK N   1      36.702  10.820  13.860  0.00  0.00     0.262 S 
HETATM   16  O   UNK N   1      38.083  10.174  14.066  0.00  0.00    -0.200 OA
HETATM   17  O   UNK N   1      36.886  10.395  12.394  0.00  0.00    -0.200 OA
BRANCH  15  18
HETATM   18  C   UNK N   1      36.334   9.540  15.080  0.00  0.00     0.108 A 
HETATM   19  C   UNK N   1      36.291   9.851  16.452  0.00  0.00     0.028 A 
HETATM   20  C   UNK N   1      36.011   8.859  17.413  0.00  0.00     0.004 A 
HETATM   21  C   UNK N   1      35.780   7.529  17.029  0.00  0.00     0.032 A 
HETATM   22  C   UNK N   1      35.821   7.208  15.679  0.00  0.00     0.068 A 
HETATM   23  N   UNK N   1      35.617   5.950  15.191  0.00  0.00    -0.310 N 
HETATM   24  C   UNK N   1      36.093   8.216  14.688  0.00  0.00     0.090 A 
HETATM   25  S   UNK N   1      35.781   6.191  13.581  0.00  0.00     0.068 SA
ATOM     26  HN  UNK N   1      35.414   5.087  15.697  1.00  0.00     0.176 HD
HETATM   27  N   UNK N   1      36.097   7.786  13.400  0.00  0.00    -0.309 N 
ATOM     28  HN  UNK N   1      36.255   8.319  12.545  1.00  0.00     0.176 HD
ENDBRANCH  15  18
ENDBRANCH  13  15
ENDBRANCH   1  13
BRANCH   1  29
HETATM   29  C   UNK N   1      36.525  13.969  15.792  0.00  0.00    -0.026 A 
HETATM   30  C   UNK N   1      35.567  13.263  16.537  0.00  0.00     0.010 A 
HETATM   31  C   UNK N   1      35.178  13.732  17.801  0.00  0.00     0.001 A 
HETATM   32  C   UNK N   1      35.700  14.929  18.303  0.00  0.00     0.000 A 
HETATM   33  C   UNK N   1      36.620  15.657  17.550  0.00  0.00     0.001 A 
HETATM   34  C   UNK N   1      37.030  15.177  16.308  0.00  0.00     0.010 A 
ENDBRANCH   1  29
TORSDOF 6
ENDMDL
MODEL 9
REMARK VINA RESULT:      -6.8     13.509     16.831
REMARK  6 active torsions:
REMARK  status: ('A' for Active; 'I' for Inactive)
REMARK       I    between atoms: C_2  and  N_3 
REMARK    1  A    between atoms: C_2  and  C_11 
REMARK    2  A    between atoms: N_3  and  C_4 
REMARK    3  A    between atoms: C_11  and  N_12 
REMARK    4  A    between atoms: C_11  and  C_27 
REMARK    5  A    between atoms: N_12  and  S_13 
REMARK    6  A    between atoms: S_13  and  C_16 
ROOT
HETATM    1  C   UNK N   1      25.800  25.095  -4.833  0.00  0.00     0.218 C 
ENDROOT
BRANCH   1   2
HETATM    2  C   UNK N   1      26.836  24.299  -4.085  0.00  0.00     0.250 C 
HETATM    3  O   UNK N   1      26.738  24.070  -2.888  0.00  0.00    -0.270 OA
HETATM    4  N   UNK N   1      27.956  23.978  -4.790  0.00  0.00    -0.325 N 
HETATM    5  H   UNK N   1      27.878  24.085  -5.765  0.00  0.00     0.169 HD
BRANCH   4   6
HETATM    6  C   UNK N   1      29.214  23.513  -4.338  0.00  0.00     0.037 A 
HETATM    7  C   UNK N   1      30.032  24.422  -3.662  0.00  0.00     0.046 A 
HETATM    8  C   UNK N   1      31.223  23.990  -3.085  0.00  0.00     0.090 A 
HETATM    9  N   UNK N   1      31.582  22.682  -3.170  0.00  0.00    -0.375 N 
HETATM   10  C   UNK N   1      30.803  21.773  -3.820  0.00  0.00     0.090 A 
ATOM     11  HN  UNK N   1      32.453  22.374  -2.738  1.00  0.00     0.164 HD
HETATM   12  C   UNK N   1      29.597  22.169  -4.410  0.00  0.00     0.046 A 
ENDBRANCH   4   6
ENDBRANCH   1   2
BRANCH   1  13
HETATM   13  N   UNK N   1      25.166  24.446  -5.995  0.00  0.00    -0.297 N 
HETATM   14  H   UNK N   1      24.160  24.276  -6.001  0.00  0.00     0.173 HD
BRANCH  13  15
HETATM   15  S   UNK N   1      26.157  23.964  -7.381  0.00  0.00     0.262 S 
HETATM   16  O   UNK N   1      24.851  23.250  -7.773  0.00  0.00    -0.200 OA
HETATM   17  O   UNK N   1      26.691  22.541  -7.150  0.00  0.00    -0.200 OA
BRANCH  15  18
HETATM   18  C   UNK N   1      25.926  24.523  -9.084  0.00  0.00     0.108 A 
HETATM   19  C   UNK N   1      25.586  25.861  -9.357  0.00  0.00     0.028 A 
HETATM   20  C   UNK N   1      25.397  26.306 -10.681  0.00  0.00     0.004 A 
HETATM   21  C   UNK N   1      25.529  25.423 -11.763  0.00  0.00     0.032 A 
HETATM   22  C   UNK N   1      25.862  24.100 -11.508  0.00  0.00     0.068 A 
HETATM   23  N   UNK N   1      26.014  23.153 -12.479  0.00  0.00    -0.310 N 
HETATM   24  C   UNK N   1      26.071  23.638 -10.161  0.00  0.00     0.090 A 
HETATM   25  S   UNK N   1      26.399  21.831 -11.595  0.00  0.00     0.068 SA
ATOM     26  HN  UNK N   1      25.915  23.246 -13.491  1.00  0.00     0.176 HD
HETATM   27  N   UNK N   1      26.404  22.327 -10.035  0.00  0.00    -0.309 N 
ATOM     28  HN  UNK N   1      26.604  21.792  -9.190  1.00  0.00     0.176 HD
ENDBRANCH  15  18
ENDBRANCH  13  15
ENDBRANCH   1  13
BRANCH   1  29
HETATM   29  C   UNK N   1      26.133  26.575  -4.879  0.00  0.00    -0.026 A 
HETATM   30  C   UNK N   1      26.857  27.167  -5.926  0.00  0.00     0.010 A 
HETATM   31  C   UNK N   1      27.191  28.529  -5.866  0.00  0.00     0.001 A 
HETATM   32  C   UNK N   1      26.851  29.291  -4.743  0.00  0.00     0.000 A 
HETATM   33  C   UNK N   1      26.167  28.700  -3.681  0.00  0.00     0.001 A 
HETATM   34  C   UNK N   1      25.810  27.356  -3.752  0.00  0.00     0.010 A 
ENDBRANCH   1  29
TORSDOF 6
ENDMDL
