MODEL 1
REMARK VINA RESULT:      -6.3      0.000      0.000
REMARK  7 active torsions:
REMARK  status: ('A' for Active; 'I' for Inactive)
REMARK    1  A    between atoms: C_3  and  C_2 
REMARK       I    between atoms: C_2  and  N_10 
REMARK    2  A    between atoms: C_11  and  N_10 
REMARK    3  A    between atoms: C_11  and  C_12 
REMARK    4  A    between atoms: C_11  and  C_16 
REMARK    5  A    between atoms: C_12  and  C_13 
REMARK    6  A    between atoms: C_13  and  S_14 
REMARK       I    between atoms: C_16  and  N_18 
REMARK    7  A    between atoms: N_18  and  C_19 
ROOT
HETATM    1  C   UNK N   1      25.695  25.658  -4.989  0.00  0.00     0.177 C 
ENDROOT
BRANCH   1   2
HETATM    2  N   UNK N   1      27.009  25.542  -4.391  0.00  0.00    -0.347 N 
HETATM    3  C   UNK N   1      27.345  24.547  -3.529  0.00  0.00     0.222 C 
HETATM    4  O   UNK N   1      26.477  23.890  -2.973  0.00  0.00    -0.273 OA
HETATM    5  H   UNK N   1      27.689  26.215  -4.619  0.00  0.00     0.163 HD
BRANCH   3   6
HETATM    6  C   UNK N   1      28.790  24.159  -3.363  0.00  0.00     0.078 C 
HETATM    7  C   UNK N   1      28.973  23.127  -2.236  0.00  0.00     0.014 C 
HETATM    8  C   UNK N   1      30.439  22.741  -2.167  0.00  0.00     0.005 C 
HETATM    9  C   UNK N   1      30.858  21.984  -3.431  0.00  0.00    -0.019 C 
HETATM   10  C   UNK N   1      32.300  22.329  -3.741  0.00  0.00     0.010 C 
HETATM   11  C   UNK N   1      29.956  22.277  -4.647  0.00  0.00     0.005 C 
HETATM   12  C   UNK N   1      29.451  23.723  -4.686  0.00  0.00     0.014 C 
ENDBRANCH   3   6
ENDBRANCH   1   2
BRANCH   1  13
HETATM   13  C   UNK N   1      25.331  27.118  -5.258  0.00  0.00     0.045 C 
BRANCH  13  14
HETATM   14  C   UNK N   1      25.775  28.034  -4.120  0.00  0.00     0.076 C 
BRANCH  14  15
HETATM   15  S   UNK N   1      26.969  29.267  -4.739  0.00  0.00    -0.173 SA
HETATM   16  C   UNK N   1      26.517  30.484  -3.474  0.00  0.00     0.089 C 
ENDBRANCH  14  15
ENDBRANCH  13  14
ENDBRANCH   1  13
BRANCH   1  17
HETATM   17  C   UNK N   1      25.675  24.809  -6.239  0.00  0.00     0.245 C 
HETATM   18  O   UNK N   1      25.313  25.301  -7.297  0.00  0.00    -0.271 OA
HETATM   19  N   UNK N   1      26.132  23.526  -6.190  0.00  0.00    -0.325 N 
HETATM   20  H   UNK N   1      26.393  23.173  -5.309  0.00  0.00     0.169 HD
BRANCH  19  21
HETATM   21  C   UNK N   1      26.264  22.654  -7.312  0.00  0.00     0.037 A 
HETATM   22  C   UNK N   1      27.444  22.693  -8.057  0.00  0.00     0.046 A 
HETATM   23  C   UNK N   1      27.581  21.874  -9.180  0.00  0.00     0.090 A 
HETATM   24  N   UNK N   1      26.571  21.041  -9.547  0.00  0.00    -0.375 N 
HETATM   25  C   UNK N   1      25.411  20.981  -8.840  0.00  0.00     0.090 A 
ATOM     26  HN  UNK N   1      26.685  20.448 -10.370  1.00  0.00     0.164 HD
HETATM   27  C   UNK N   1      25.236  21.787  -7.716  0.00  0.00     0.046 A 
ENDBRANCH  19  21
ENDBRANCH   1  17
TORSDOF 7
ENDMDL
MODEL 2
REMARK VINA RESULT:      -6.1      2.456      3.956
REMARK  7 active torsions:
REMARK  status: ('A' for Active; 'I' for Inactive)
REMARK    1  A    between atoms: C_3  and  C_2 
REMARK       I    between atoms: C_2  and  N_10 
REMARK    2  A    between atoms: C_11  and  N_10 
REMARK    3  A    between atoms: C_11  and  C_12 
REMARK    4  A    between atoms: C_11  and  C_16 
REMARK    5  A    between atoms: C_12  and  C_13 
REMARK    6  A    between atoms: C_13  and  S_14 
REMARK       I    between atoms: C_16  and  N_18 
REMARK    7  A    between atoms: N_18  and  C_19 
ROOT
HETATM    1  C   UNK N   1      30.164  24.847  -3.526  0.00  0.00     0.177 C 
ENDROOT
BRANCH   1   2
HETATM    2  N   UNK N   1      31.080  23.730  -3.635  0.00  0.00    -0.347 N 
HETATM    3  C   UNK N   1      31.157  22.742  -2.706  0.00  0.00     0.222 C 
HETATM    4  O   UNK N   1      30.692  22.906  -1.587  0.00  0.00    -0.273 OA
HETATM    5  H   UNK N   1      31.674  23.685  -4.419  0.00  0.00     0.163 HD
BRANCH   3   6
HETATM    6  C   UNK N   1      31.692  21.390  -3.096  0.00  0.00     0.078 C 
HETATM    7  C   UNK N   1      31.613  21.166  -4.616  0.00  0.00     0.014 C 
HETATM    8  C   UNK N   1      32.222  19.813  -4.938  0.00  0.00     0.005 C 
HETATM    9  C   UNK N   1      33.724  19.813  -4.643  0.00  0.00    -0.019 C 
HETATM   10  C   UNK N   1      34.120  18.429  -4.170  0.00  0.00     0.010 C 
HETATM   11  C   UNK N   1      34.146  20.880  -3.613  0.00  0.00     0.005 C 
HETATM   12  C   UNK N   1      33.095  21.110  -2.521  0.00  0.00     0.014 C 
ENDBRANCH   3   6
ENDBRANCH   1   2
BRANCH   1  13
HETATM   13  C   UNK N   1      30.777  26.128  -4.092  0.00  0.00     0.045 C 
BRANCH  13  14
HETATM   14  C   UNK N   1      29.964  27.364  -3.714  0.00  0.00     0.076 C 
BRANCH  14  15
HETATM   15  S   UNK N   1      29.285  28.148  -5.214  0.00  0.00    -0.173 SA
HETATM   16  C   UNK N   1      27.604  28.213  -4.539  0.00  0.00     0.089 C 
ENDBRANCH  14  15
ENDBRANCH  13  14
ENDBRANCH   1  13
BRANCH   1  17
HETATM   17  C   UNK N   1      28.874  24.462  -4.211  0.00  0.00     0.245 C 
HETATM   18  O   UNK N   1      27.871  24.263  -3.542  0.00  0.00    -0.271 OA
HETATM   19  N   UNK N   1      28.822  24.415  -5.572  0.00  0.00    -0.325 N 
HETATM   20  H   UNK N   1      29.663  24.564  -6.062  0.00  0.00     0.169 HD
BRANCH  19  21
HETATM   21  C   UNK N   1      27.648  24.168  -6.344  0.00  0.00     0.037 A 
HETATM   22  C   UNK N   1      26.895  25.257  -6.788  0.00  0.00     0.046 A 
HETATM   23  C   UNK N   1      25.722  25.038  -7.515  0.00  0.00     0.090 A 
HETATM   24  N   UNK N   1      25.316  23.770  -7.792  0.00  0.00    -0.375 N 
HETATM   25  C   UNK N   1      26.029  22.691  -7.374  0.00  0.00     0.090 A 
ATOM     26  HN  UNK N   1      24.457  23.625  -8.324  1.00  0.00     0.164 HD
HETATM   27  C   UNK N   1      27.203  22.870  -6.642  0.00  0.00     0.046 A 
ENDBRANCH  19  21
ENDBRANCH   1  17
TORSDOF 7
ENDMDL
MODEL 3
REMARK VINA RESULT:      -5.9     13.028     15.031
REMARK  7 active torsions:
REMARK  status: ('A' for Active; 'I' for Inactive)
REMARK    1  A    between atoms: C_3  and  C_2 
REMARK       I    between atoms: C_2  and  N_10 
REMARK    2  A    between atoms: C_11  and  N_10 
REMARK    3  A    between atoms: C_11  and  C_12 
REMARK    4  A    between atoms: C_11  and  C_16 
REMARK    5  A    between atoms: C_12  and  C_13 
REMARK    6  A    between atoms: C_13  and  S_14 
REMARK       I    between atoms: C_16  and  N_18 
REMARK    7  A    between atoms: N_18  and  C_19 
ROOT
HETATM    1  C   UNK N   1      22.107  17.002   5.135  0.00  0.00     0.177 C 
ENDROOT
BRANCH   1   2
HETATM    2  N   UNK N   1      22.126  16.535   6.506  0.00  0.00    -0.347 N 
HETATM    3  C   UNK N   1      21.458  15.427   6.919  0.00  0.00     0.222 C 
HETATM    4  O   UNK N   1      20.562  14.953   6.236  0.00  0.00    -0.273 OA
HETATM    5  H   UNK N   1      22.646  17.045   7.168  0.00  0.00     0.163 HD
BRANCH   3   6
HETATM    6  C   UNK N   1      21.914  14.697   8.155  0.00  0.00     0.078 C 
HETATM    7  C   UNK N   1      20.722  14.213   8.999  0.00  0.00     0.014 C 
HETATM    8  C   UNK N   1      21.255  13.439  10.190  0.00  0.00     0.005 C 
HETATM    9  C   UNK N   1      21.933  12.145   9.733  0.00  0.00    -0.019 C 
HETATM   10  C   UNK N   1      23.087  11.850  10.671  0.00  0.00     0.010 C 
HETATM   11  C   UNK N   1      22.420  12.191   8.271  0.00  0.00     0.005 C 
HETATM   12  C   UNK N   1      22.927  13.576   7.850  0.00  0.00     0.014 C 
ENDBRANCH   3   6
ENDBRANCH   1   2
BRANCH   1  13
HETATM   13  C   UNK N   1      21.219  18.237   4.978  0.00  0.00     0.045 C 
BRANCH  13  14
HETATM   14  C   UNK N   1      20.711  18.396   3.547  0.00  0.00     0.076 C 
BRANCH  14  15
HETATM   15  S   UNK N   1      20.481  20.162   3.158  0.00  0.00    -0.173 SA
HETATM   16  C   UNK N   1      22.219  20.389   2.698  0.00  0.00     0.089 C 
ENDBRANCH  14  15
ENDBRANCH  13  14
ENDBRANCH   1  13
BRANCH   1  17
HETATM   17  C   UNK N   1      23.535  17.249   4.706  0.00  0.00     0.245 C 
HETATM   18  O   UNK N   1      24.049  16.521   3.870  0.00  0.00    -0.271 OA
HETATM   19  N   UNK N   1      24.210  18.326   5.198  0.00  0.00    -0.325 N 
HETATM   20  H   UNK N   1      23.757  18.869   5.884  0.00  0.00     0.169 HD
BRANCH  19  21
HETATM   21  C   UNK N   1      25.519  18.731   4.800  0.00  0.00     0.037 A 
HETATM   22  C   UNK N   1      26.621  18.066   5.341  0.00  0.00     0.046 A 
HETATM   23  C   UNK N   1      27.912  18.469   4.992  0.00  0.00     0.090 A 
HETATM   24  N   UNK N   1      28.097  19.504   4.129  0.00  0.00    -0.375 N 
HETATM   25  C   UNK N   1      27.042  20.170   3.587  0.00  0.00     0.090 A 
ATOM     26  HN  UNK N   1      29.045  19.787   3.884  1.00  0.00     0.164 HD
HETATM   27  C   UNK N   1      25.738  19.798   3.915  0.00  0.00     0.046 A 
ENDBRANCH  19  21
ENDBRANCH   1  17
TORSDOF 7
ENDMDL
MODEL 4
REMARK VINA RESULT:      -5.8     16.355     19.872
REMARK  7 active torsions:
REMARK  status: ('A' for Active; 'I' for Inactive)
REMARK    1  A    between atoms: C_3  and  C_2 
REMARK       I    between atoms: C_2  and  N_10 
REMARK    2  A    between atoms: C_11  and  N_10 
REMARK    3  A    between atoms: C_11  and  C_12 
REMARK    4  A    between atoms: C_11  and  C_16 
REMARK    5  A    between atoms: C_12  and  C_13 
REMARK    6  A    between atoms: C_13  and  S_14 
REMARK       I    between atoms: C_16  and  N_18 
REMARK    7  A    between atoms: N_18  and  C_19 
ROOT
HETATM    1  C   UNK N   1      35.707  15.525  10.431  0.00  0.00     0.177 C 
ENDROOT
BRANCH   1   2
HETATM    2  N   UNK N   1      34.675  16.025   9.546  0.00  0.00    -0.347 N 
HETATM    3  C   UNK N   1      34.685  17.283   9.033  0.00  0.00     0.222 C 
HETATM    4  O   UNK N   1      35.384  18.151   9.536  0.00  0.00    -0.273 OA
HETATM    5  H   UNK N   1      33.933  15.426   9.305  0.00  0.00     0.163 HD
BRANCH   3   6
HETATM    6  C   UNK N   1      33.942  17.575   7.757  0.00  0.00     0.078 C 
HETATM    7  C   UNK N   1      34.357  16.617   6.627  0.00  0.00     0.014 C 
HETATM    8  C   UNK N   1      33.527  16.932   5.396  0.00  0.00     0.005 C 
HETATM    9  C   UNK N   1      32.053  16.599   5.639  0.00  0.00    -0.019 C 
HETATM   10  C   UNK N   1      31.203  17.594   4.874  0.00  0.00     0.010 C 
HETATM   11  C   UNK N   1      31.665  16.589   7.131  0.00  0.00     0.005 C 
HETATM   12  C   UNK N   1      32.414  17.643   7.954  0.00  0.00     0.014 C 
ENDBRANCH   3   6
ENDBRANCH   1   2
BRANCH   1  13
HETATM   13  C   UNK N   1      35.110  14.956  11.718  0.00  0.00     0.045 C 
BRANCH  13  14
HETATM   14  C   UNK N   1      36.094  15.027  12.883  0.00  0.00     0.076 C 
BRANCH  14  15
HETATM   15  S   UNK N   1      36.045  13.475  13.840  0.00  0.00    -0.173 SA
HETATM   16  C   UNK N   1      35.014  12.634  12.609  0.00  0.00     0.089 C 
ENDBRANCH  14  15
ENDBRANCH  13  14
ENDBRANCH   1  13
BRANCH   1  17
HETATM   17  C   UNK N   1      36.527  14.513   9.667  0.00  0.00     0.245 C 
HETATM   18  O   UNK N   1      35.986  13.805   8.830  0.00  0.00    -0.271 OA
HETATM   19  N   UNK N   1      37.875  14.451   9.862  0.00  0.00    -0.325 N 
HETATM   20  H   UNK N   1      38.257  15.029  10.562  0.00  0.00     0.169 HD
BRANCH  19  21
HETATM   21  C   UNK N   1      38.776  13.617   9.135  0.00  0.00     0.037 A 
HETATM   22  C   UNK N   1      39.250  14.059   7.899  0.00  0.00     0.046 A 
HETATM   23  C   UNK N   1      40.106  13.244   7.154  0.00  0.00     0.090 A 
HETATM   24  N   UNK N   1      40.477  12.025   7.630  0.00  0.00    -0.375 N 
HETATM   25  C   UNK N   1      40.031  11.569   8.830  0.00  0.00     0.090 A 
ATOM     26  HN  UNK N   1      41.102  11.441   7.074  1.00  0.00     0.164 HD
HETATM   27  C   UNK N   1      39.172  12.353   9.601  0.00  0.00     0.046 A 
ENDBRANCH  19  21
ENDBRANCH   1  17
TORSDOF 7
ENDMDL
MODEL 5
REMARK VINA RESULT:      -5.8      1.718      2.057
REMARK  7 active torsions:
REMARK  status: ('A' for Active; 'I' for Inactive)
REMARK    1  A    between atoms: C_3  and  C_2 
REMARK       I    between atoms: C_2  and  N_10 
REMARK    2  A    between atoms: C_11  and  N_10 
REMARK    3  A    between atoms: C_11  and  C_12 
REMARK    4  A    between atoms: C_11  and  C_16 
REMARK    5  A    between atoms: C_12  and  C_13 
REMARK    6  A    between atoms: C_13  and  S_14 
REMARK       I    between atoms: C_16  and  N_18 
REMARK    7  A    between atoms: N_18  and  C_19 
ROOT
HETATM    1  C   UNK N   1      26.229  25.867  -3.972  0.00  0.00     0.177 C 
ENDROOT
BRANCH   1   2
HETATM    2  N   UNK N   1      27.617  25.547  -3.705  0.00  0.00    -0.347 N 
HETATM    3  C   UNK N   1      28.009  24.383  -3.125  0.00  0.00     0.222 C 
HETATM    4  O   UNK N   1      27.205  23.693  -2.515  0.00  0.00    -0.273 OA
HETATM    5  H   UNK N   1      28.307  26.202  -3.957  0.00  0.00     0.163 HD
BRANCH   3   6
HETATM    6  C   UNK N   1      29.407  23.870  -3.349  0.00  0.00     0.078 C 
HETATM    7  C   UNK N   1      29.836  22.891  -2.242  0.00  0.00     0.014 C 
HETATM    8  C   UNK N   1      31.225  22.372  -2.566  0.00  0.00     0.005 C 
HETATM    9  C   UNK N   1      31.197  21.510  -3.830  0.00  0.00    -0.019 C 
HETATM   10  C   UNK N   1      32.507  21.698  -4.569  0.00  0.00     0.010 C 
HETATM   11  C   UNK N   1      30.003  21.817  -4.756  0.00  0.00     0.005 C 
HETATM   12  C   UNK N   1      29.617  23.300  -4.766  0.00  0.00     0.014 C 
ENDBRANCH   3   6
ENDBRANCH   1   2
BRANCH   1  13
HETATM   13  C   UNK N   1      25.963  27.364  -3.815  0.00  0.00     0.045 C 
BRANCH  13  14
HETATM   14  C   UNK N   1      27.219  28.125  -3.395  0.00  0.00     0.076 C 
BRANCH  14  15
HETATM   15  S   UNK N   1      26.897  29.920  -3.412  0.00  0.00    -0.173 SA
HETATM   16  C   UNK N   1      27.971  30.225  -1.984  0.00  0.00     0.089 C 
ENDBRANCH  14  15
ENDBRANCH  13  14
ENDBRANCH   1  13
BRANCH   1  17
HETATM   17  C   UNK N   1      25.888  25.353  -5.351  0.00  0.00     0.245 C 
HETATM   18  O   UNK N   1      24.838  24.753  -5.529  0.00  0.00    -0.271 OA
HETATM   19  N   UNK N   1      26.717  25.629  -6.398  0.00  0.00    -0.325 N 
HETATM   20  H   UNK N   1      27.559  26.097  -6.196  0.00  0.00     0.169 HD
BRANCH  19  21
HETATM   21  C   UNK N   1      26.462  25.294  -7.761  0.00  0.00     0.037 A 
HETATM   22  C   UNK N   1      26.921  24.070  -8.249  0.00  0.00     0.046 A 
HETATM   23  C   UNK N   1      26.714  23.737  -9.590  0.00  0.00     0.090 A 
HETATM   24  N   UNK N   1      26.067  24.600 -10.417  0.00  0.00    -0.375 N 
HETATM   25  C   UNK N   1      25.608  25.800  -9.970  0.00  0.00     0.090 A 
ATOM     26  HN  UNK N   1      25.923  24.344 -11.394  1.00  0.00     0.164 HD
HETATM   27  C   UNK N   1      25.800  26.168  -8.638  0.00  0.00     0.046 A 
ENDBRANCH  19  21
ENDBRANCH   1  17
TORSDOF 7
ENDMDL
MODEL 6
REMARK VINA RESULT:      -5.8     11.628     13.847
REMARK  7 active torsions:
REMARK  status: ('A' for Active; 'I' for Inactive)
REMARK    1  A    between atoms: C_3  and  C_2 
REMARK       I    between atoms: C_2  and  N_10 
REMARK    2  A    between atoms: C_11  and  N_10 
REMARK    3  A    between atoms: C_11  and  C_12 
REMARK    4  A    between atoms: C_11  and  C_16 
REMARK    5  A    between atoms: C_12  and  C_13 
REMARK    6  A    between atoms: C_13  and  S_14 
REMARK       I    between atoms: C_16  and  N_18 
REMARK    7  A    between atoms: N_18  and  C_19 
ROOT
HETATM    1  C   UNK N   1      29.432  16.003   2.700  0.00  0.00     0.177 C 
ENDROOT
BRANCH   1   2
HETATM    2  N   UNK N   1      30.483  15.650   3.632  0.00  0.00    -0.347 N 
HETATM    3  C   UNK N   1      31.616  16.385   3.782  0.00  0.00     0.222 C 
HETATM    4  O   UNK N   1      31.949  17.192   2.926  0.00  0.00    -0.273 OA
HETATM    5  H   UNK N   1      30.371  14.842   4.182  0.00  0.00     0.163 HD
BRANCH   3   6
HETATM    6  C   UNK N   1      32.392  16.308   5.070  0.00  0.00     0.078 C 
HETATM    7  C   UNK N   1      33.336  17.512   5.236  0.00  0.00     0.014 C 
HETATM    8  C   UNK N   1      34.037  17.396   6.577  0.00  0.00     0.005 C 
HETATM    9  C   UNK N   1      33.035  17.552   7.724  0.00  0.00    -0.019 C 
HETATM   10  C   UNK N   1      33.483  16.675   8.876  0.00  0.00     0.010 C 
HETATM   11  C   UNK N   1      31.584  17.218   7.321  0.00  0.00     0.005 C 
HETATM   12  C   UNK N   1      31.492  16.078   6.300  0.00  0.00     0.014 C 
ENDBRANCH   3   6
ENDBRANCH   1   2
BRANCH   1  13
HETATM   13  C   UNK N   1      28.788  14.758   2.090  0.00  0.00     0.045 C 
BRANCH  13  14
HETATM   14  C   UNK N   1      29.194  13.486   2.830  0.00  0.00     0.076 C 
BRANCH  14  15
HETATM   15  S   UNK N   1      29.770  12.228   1.641  0.00  0.00    -0.173 SA
HETATM   16  C   UNK N   1      31.517  12.620   1.924  0.00  0.00     0.089 C 
ENDBRANCH  14  15
ENDBRANCH  13  14
ENDBRANCH   1  13
BRANCH   1  17
HETATM   17  C   UNK N   1      28.439  16.880   3.427  0.00  0.00     0.245 C 
HETATM   18  O   UNK N   1      27.292  16.488   3.589  0.00  0.00    -0.271 OA
HETATM   19  N   UNK N   1      28.850  18.065   3.961  0.00  0.00    -0.325 N 
HETATM   20  H   UNK N   1      29.778  18.342   3.784  0.00  0.00     0.169 HD
BRANCH  19  21
HETATM   21  C   UNK N   1      28.045  18.935   4.755  0.00  0.00     0.037 A 
HETATM   22  C   UNK N   1      28.174  18.887   6.144  0.00  0.00     0.046 A 
HETATM   23  C   UNK N   1      27.371  19.704   6.943  0.00  0.00     0.090 A 
HETATM   24  N   UNK N   1      26.467  20.544   6.371  0.00  0.00    -0.375 N 
HETATM   25  C   UNK N   1      26.320  20.613   5.021  0.00  0.00     0.090 A 
ATOM     26  HN  UNK N   1      25.888  21.136   6.967  1.00  0.00     0.164 HD
HETATM   27  C   UNK N   1      27.102  19.809   4.192  0.00  0.00     0.046 A 
ENDBRANCH  19  21
ENDBRANCH   1  17
TORSDOF 7
ENDMDL
MODEL 7
REMARK VINA RESULT:      -5.8     14.047     17.290
REMARK  7 active torsions:
REMARK  status: ('A' for Active; 'I' for Inactive)
REMARK    1  A    between atoms: C_3  and  C_2 
REMARK       I    between atoms: C_2  and  N_10 
REMARK    2  A    between atoms: C_11  and  N_10 
REMARK    3  A    between atoms: C_11  and  C_12 
REMARK    4  A    between atoms: C_11  and  C_16 
REMARK    5  A    between atoms: C_12  and  C_13 
REMARK    6  A    between atoms: C_13  and  S_14 
REMARK       I    between atoms: C_16  and  N_18 
REMARK    7  A    between atoms: N_18  and  C_19 
ROOT
HETATM    1  C   UNK N   1      32.721  17.940   7.924  0.00  0.00     0.177 C 
ENDROOT
BRANCH   1   2
HETATM    2  N   UNK N   1      32.410  16.989   6.877  0.00  0.00    -0.347 N 
HETATM    3  C   UNK N   1      33.055  16.967   5.681  0.00  0.00     0.222 C 
HETATM    4  O   UNK N   1      33.703  17.935   5.309  0.00  0.00    -0.273 OA
HETATM    5  H   UNK N   1      31.698  16.329   7.038  0.00  0.00     0.163 HD
BRANCH   3   6
HETATM    6  C   UNK N   1      33.089  15.697   4.874  0.00  0.00     0.078 C 
HETATM    7  C   UNK N   1      33.437  15.972   3.400  0.00  0.00     0.014 C 
HETATM    8  C   UNK N   1      33.511  14.647   2.665  0.00  0.00     0.005 C 
HETATM    9  C   UNK N   1      34.690  13.813   3.173  0.00  0.00    -0.019 C 
HETATM   10  C   UNK N   1      34.306  12.348   3.108  0.00  0.00     0.010 C 
HETATM   11  C   UNK N   1      35.141  14.193   4.598  0.00  0.00     0.005 C 
HETATM   12  C   UNK N   1      33.977  14.607   5.506  0.00  0.00     0.014 C 
ENDBRANCH   3   6
ENDBRANCH   1   2
BRANCH   1  13
HETATM   13  C   UNK N   1      31.510  18.196   8.822  0.00  0.00     0.045 C 
BRANCH  13  14
HETATM   14  C   UNK N   1      30.239  17.566   8.257  0.00  0.00     0.076 C 
BRANCH  14  15
HETATM   15  S   UNK N   1      28.772  18.286   9.066  0.00  0.00    -0.173 SA
HETATM   16  C   UNK N   1      28.188  19.062   7.536  0.00  0.00     0.089 C 
ENDBRANCH  14  15
ENDBRANCH  13  14
ENDBRANCH   1  13
BRANCH   1  17
HETATM   17  C   UNK N   1      33.916  17.419   8.687  0.00  0.00     0.245 C 
HETATM   18  O   UNK N   1      34.829  18.181   8.972  0.00  0.00    -0.271 OA
HETATM   19  N   UNK N   1      33.931  16.126   9.117  0.00  0.00    -0.325 N 
HETATM   20  H   UNK N   1      33.180  15.551   8.844  0.00  0.00     0.169 HD
BRANCH  19  21
HETATM   21  C   UNK N   1      34.945  15.539   9.932  0.00  0.00     0.037 A 
HETATM   22  C   UNK N   1      35.959  14.805   9.316  0.00  0.00     0.046 A 
HETATM   23  C   UNK N   1      36.943  14.192  10.096  0.00  0.00     0.090 A 
HETATM   24  N   UNK N   1      36.914  14.310  11.451  0.00  0.00    -0.375 N 
HETATM   25  C   UNK N   1      35.938  15.020  12.078  0.00  0.00     0.090 A 
ATOM     26  HN  UNK N   1      37.638  13.857  12.008  1.00  0.00     0.164 HD
HETATM   27  C   UNK N   1      34.937  15.642  11.332  0.00  0.00     0.046 A 
ENDBRANCH  19  21
ENDBRANCH   1  17
TORSDOF 7
ENDMDL
MODEL 8
REMARK VINA RESULT:      -5.7     14.686     16.594
REMARK  7 active torsions:
REMARK  status: ('A' for Active; 'I' for Inactive)
REMARK    1  A    between atoms: C_3  and  C_2 
REMARK       I    between atoms: C_2  and  N_10 
REMARK    2  A    between atoms: C_11  and  N_10 
REMARK    3  A    between atoms: C_11  and  C_12 
REMARK    4  A    between atoms: C_11  and  C_16 
REMARK    5  A    between atoms: C_12  and  C_13 
REMARK    6  A    between atoms: C_13  and  S_14 
REMARK       I    between atoms: C_16  and  N_18 
REMARK    7  A    between atoms: N_18  and  C_19 
ROOT
HETATM    1  C   UNK N   1      21.601  15.722   6.377  0.00  0.00     0.177 C 
ENDROOT
BRANCH   1   2
HETATM    2  N   UNK N   1      21.602  15.461   7.802  0.00  0.00    -0.347 N 
HETATM    3  C   UNK N   1      21.121  14.313   8.344  0.00  0.00     0.222 C 
HETATM    4  O   UNK N   1      20.382  13.584   7.697  0.00  0.00    -0.273 OA
HETATM    5  H   UNK N   1      21.968  16.148   8.404  0.00  0.00     0.163 HD
BRANCH   3   6
HETATM    6  C   UNK N   1      21.609  13.862   9.695  0.00  0.00     0.078 C 
HETATM    7  C   UNK N   1      20.679  12.802  10.309  0.00  0.00     0.014 C 
HETATM    8  C   UNK N   1      21.263  12.355  11.636  0.00  0.00     0.005 C 
HETATM    9  C   UNK N   1      22.582  11.608  11.421  0.00  0.00    -0.019 C 
HETATM   10  C   UNK N   1      23.497  11.900  12.593  0.00  0.00     0.010 C 
HETATM   11  C   UNK N   1      23.276  11.961  10.090  0.00  0.00     0.005 C 
HETATM   12  C   UNK N   1      23.088  13.428   9.685  0.00  0.00     0.014 C 
ENDBRANCH   3   6
ENDBRANCH   1   2
BRANCH   1  13
HETATM   13  C   UNK N   1      21.118  17.140   6.070  0.00  0.00     0.045 C 
BRANCH  13  14
HETATM   14  C   UNK N   1      20.526  17.249   4.666  0.00  0.00     0.076 C 
BRANCH  14  15
HETATM   15  S   UNK N   1      21.587  18.302   3.621  0.00  0.00    -0.173 SA
HETATM   16  C   UNK N   1      20.430  18.253   2.227  0.00  0.00     0.089 C 
ENDBRANCH  14  15
ENDBRANCH  13  14
ENDBRANCH   1  13
BRANCH   1  17
HETATM   17  C   UNK N   1      22.991  15.450   5.851  0.00  0.00     0.245 C 
HETATM   18  O   UNK N   1      23.203  14.437   5.201  0.00  0.00    -0.271 OA
HETATM   19  N   UNK N   1      23.976  16.373   6.041  0.00  0.00    -0.325 N 
HETATM   20  H   UNK N   1      23.757  17.162   6.588  0.00  0.00     0.169 HD
BRANCH  19  21
HETATM   21  C   UNK N   1      25.298  16.289   5.510  0.00  0.00     0.037 A 
HETATM   22  C   UNK N   1      26.299  15.710   6.291  0.00  0.00     0.046 A 
HETATM   23  C   UNK N   1      27.608  15.649   5.806  0.00  0.00     0.090 A 
HETATM   24  N   UNK N   1      27.906  16.150   4.577  0.00  0.00    -0.375 N 
HETATM   25  C   UNK N   1      26.951  16.719   3.794  0.00  0.00     0.090 A 
ATOM     26  HN  UNK N   1      28.866  16.099   4.236  1.00  0.00     0.164 HD
HETATM   27  C   UNK N   1      25.635  16.802   4.247  0.00  0.00     0.046 A 
ENDBRANCH  19  21
ENDBRANCH   1  17
TORSDOF 7
ENDMDL
MODEL 9
REMARK VINA RESULT:      -5.7     18.440     21.670
REMARK  7 active torsions:
REMARK  status: ('A' for Active; 'I' for Inactive)
REMARK    1  A    between atoms: C_3  and  C_2 
REMARK       I    between atoms: C_2  and  N_10 
REMARK    2  A    between atoms: C_11  and  N_10 
REMARK    3  A    between atoms: C_11  and  C_12 
REMARK    4  A    between atoms: C_11  and  C_16 
REMARK    5  A    between atoms: C_12  and  C_13 
REMARK    6  A    between atoms: C_13  and  S_14 
REMARK       I    between atoms: C_16  and  N_18 
REMARK    7  A    between atoms: N_18  and  C_19 
ROOT
HETATM    1  C   UNK N   1      36.312  14.636  11.249  0.00  0.00     0.177 C 
ENDROOT
BRANCH   1   2
HETATM    2  N   UNK N   1      36.102  13.608  12.248  0.00  0.00    -0.347 N 
HETATM    3  C   UNK N   1      36.116  13.859  13.583  0.00  0.00     0.222 C 
HETATM    4  O   UNK N   1      36.614  14.889  14.015  0.00  0.00    -0.273 OA
HETATM    5  H   UNK N   1      35.943  12.685  11.945  0.00  0.00     0.163 HD
BRANCH   3   6
HETATM    6  C   UNK N   1      35.391  12.934  14.524  0.00  0.00     0.078 C 
HETATM    7  C   UNK N   1      34.558  11.889  13.762  0.00  0.00     0.014 C 
HETATM    8  C   UNK N   1      33.907  10.960  14.770  0.00  0.00     0.005 C 
HETATM    9  C   UNK N   1      34.966  10.127  15.499  0.00  0.00    -0.019 C 
HETATM   10  C   UNK N   1      34.495   9.889  16.919  0.00  0.00     0.010 C 
HETATM   11  C   UNK N   1      36.366  10.775  15.492  0.00  0.00     0.005 C 
HETATM   12  C   UNK N   1      36.320  12.305  15.581  0.00  0.00     0.014 C 
ENDBRANCH   3   6
ENDBRANCH   1   2
BRANCH   1  13
HETATM   13  C   UNK N   1      37.314  14.186  10.187  0.00  0.00     0.045 C 
BRANCH  13  14
HETATM   14  C   UNK N   1      37.138  12.712   9.826  0.00  0.00     0.076 C 
BRANCH  14  15
HETATM   15  S   UNK N   1      36.840  12.539   8.035  0.00  0.00    -0.173 SA
HETATM   16  C   UNK N   1      38.604  12.348   7.661  0.00  0.00     0.089 C 
ENDBRANCH  14  15
ENDBRANCH  13  14
ENDBRANCH   1  13
BRANCH   1  17
HETATM   17  C   UNK N   1      34.967  15.003  10.667  0.00  0.00     0.245 C 
HETATM   18  O   UNK N   1      33.963  14.905  11.358  0.00  0.00    -0.271 OA
HETATM   19  N   UNK N   1      34.894  15.512   9.405  0.00  0.00    -0.325 N 
HETATM   20  H   UNK N   1      35.729  15.552   8.885  0.00  0.00     0.169 HD
BRANCH  19  21
HETATM   21  C   UNK N   1      33.707  15.993   8.777  0.00  0.00     0.037 A 
HETATM   22  C   UNK N   1      33.457  17.366   8.776  0.00  0.00     0.046 A 
HETATM   23  C   UNK N   1      32.283  17.856   8.198  0.00  0.00     0.090 A 
HETATM   24  N   UNK N   1      31.388  17.000   7.637  0.00  0.00    -0.375 N 
HETATM   25  C   UNK N   1      31.605  15.658   7.623  0.00  0.00     0.090 A 
ATOM     26  HN  UNK N   1      30.535  17.372   7.218  1.00  0.00     0.164 HD
HETATM   27  C   UNK N   1      32.763  15.132   8.194  0.00  0.00     0.046 A 
ENDBRANCH  19  21
ENDBRANCH   1  17
TORSDOF 7
ENDMDL
