MODEL 1
REMARK VINA RESULT:      -7.6      0.000      0.000
REMARK  6 active torsions:
REMARK  status: ('A' for Active; 'I' for Inactive)
REMARK       I    between atoms: N_6  and  C_7 
REMARK    1  A    between atoms: C_7  and  C_9 
REMARK    2  A    between atoms: C_9  and  N_10 
REMARK    3  A    between atoms: C_13  and  C_14 
REMARK    4  A    between atoms: C_14  and  O_16 
REMARK    5  A    between atoms: C_20  and  C_21 
REMARK    6  A    between atoms: C_27  and  C_28 
ROOT
HETATM    1  N   UNK N   1      29.351  23.862  -4.626  0.00  0.00    -0.336 N 
HETATM    2  C   UNK N   1      30.119  22.743  -4.669  0.00  0.00     0.047 A 
HETATM    3  C   UNK N   1      31.210  22.409  -3.875  0.00  0.00     0.048 A 
HETATM    4  C   UNK N   1      31.880  21.194  -4.093  0.00  0.00     0.040 A 
HETATM    5  C   UNK N   1      31.436  20.328  -5.116  0.00  0.00     0.019 A 
HETATM    6  C   UNK N   1      30.336  20.683  -5.918  0.00  0.00     0.015 A 
HETATM    7  C   UNK N   1      29.698  21.902  -5.672  0.00  0.00    -0.000 A 
HETATM    8  C   UNK N   1      28.622  22.508  -6.304  0.00  0.00    -0.014 A 
HETATM    9  C   UNK N   1      28.425  23.734  -5.631  0.00  0.00     0.053 A 
ENDROOT
BRANCH   1  10
HETATM   10  C   UNK N   1      29.421  25.063  -3.763  0.00  0.00     0.232 C 
BRANCH  10  11
HETATM   11  C   UNK N   1      30.271  26.294  -4.024  0.00  0.00     0.238 C 
HETATM   12  N   UNK N   1      29.663  27.514  -4.097  0.00  0.00    -0.347 N 
HETATM   13  C   UNK N   1      28.216  27.606  -3.899  0.00  0.00     0.152 C 
HETATM   14  C   UNK N   1      30.477  28.705  -4.332  0.00  0.00     0.152 C 
HETATM   15  C   UNK N   1      27.681  29.025  -4.088  0.00  0.00     0.187 C 
HETATM   16  O   UNK N   1      28.586  29.944  -3.550  0.00  0.00    -0.388 OA
HETATM   17  C   UNK N   1      29.634  29.973  -4.474  0.00  0.00     0.187 C 
HETATM   18  O   UNK N   1      31.480  26.217  -4.155  0.00  0.00    -0.272 OA
ENDBRANCH  10  11
ENDBRANCH   1  10
BRANCH   9  19
HETATM   19  C   UNK N   1      27.381  24.774  -5.967  0.00  0.00    -0.009 A 
HETATM   20  C   UNK N   1      26.166  24.835  -5.267  0.00  0.00     0.014 A 
HETATM   21  C   UNK N   1      25.203  25.801  -5.576  0.00  0.00     0.001 A 
HETATM   22  C   UNK N   1      25.437  26.722  -6.596  0.00  0.00     0.000 A 
HETATM   23  C   UNK N   1      26.634  26.675  -7.309  0.00  0.00     0.001 A 
HETATM   24  C   UNK N   1      27.592  25.710  -6.996  0.00  0.00     0.014 A 
ENDBRANCH   9  19
BRANCH   8  25
HETATM   25  C   UNK N   1      27.836  21.983  -7.494  0.00  0.00     0.022 C 
HETATM   26  C   UNK N   1      26.314  22.086  -7.367  0.00  0.00     0.009 C 
HETATM   27  C   UNK N   1      25.644  21.364  -8.536  0.00  0.00     0.001 C 
HETATM   28  C   UNK N   1      26.112  21.943  -9.870  0.00  0.00     0.000 C 
HETATM   29  C   UNK N   1      27.635  21.897  -9.975  0.00  0.00     0.001 C 
HETATM   30  C   UNK N   1      28.262  22.649  -8.803  0.00  0.00     0.009 C 
ENDBRANCH   8  25
BRANCH   4  31
HETATM   31  C   UNK N   1      33.042  20.846  -3.252  0.00  0.00     0.176 C 
HETATM   32  O   UNK N   1      34.035  20.339  -3.749  0.00  0.00    -0.646 OA
BRANCH  31  33
HETATM   33  O   UNK N   1      33.016  21.093  -1.926  0.00  0.00    -0.773 OA
HETATM   34  H   UNK N   1      33.043  21.975  -1.613  0.00  0.00     0.167 HD
ENDBRANCH  31  33
ENDBRANCH   4  31
TORSDOF 6
ENDMDL
MODEL 2
REMARK VINA RESULT:      -7.2      2.221      6.208
REMARK  6 active torsions:
REMARK  status: ('A' for Active; 'I' for Inactive)
REMARK       I    between atoms: N_6  and  C_7 
REMARK    1  A    between atoms: C_7  and  C_9 
REMARK    2  A    between atoms: C_9  and  N_10 
REMARK    3  A    between atoms: C_13  and  C_14 
REMARK    4  A    between atoms: C_14  and  O_16 
REMARK    5  A    between atoms: C_20  and  C_21 
REMARK    6  A    between atoms: C_27  and  C_28 
ROOT
HETATM    1  N   UNK N   1      26.810  25.108  -5.465  0.00  0.00    -0.336 N 
HETATM    2  C   UNK N   1      27.021  26.444  -5.339  0.00  0.00     0.047 A 
HETATM    3  C   UNK N   1      27.129  27.200  -4.177  0.00  0.00     0.048 A 
HETATM    4  C   UNK N   1      27.338  28.585  -4.268  0.00  0.00     0.040 A 
HETATM    5  C   UNK N   1      27.436  29.192  -5.539  0.00  0.00     0.019 A 
HETATM    6  C   UNK N   1      27.317  28.417  -6.707  0.00  0.00     0.015 A 
HETATM    7  C   UNK N   1      27.105  27.042  -6.574  0.00  0.00    -0.000 A 
HETATM    8  C   UNK N   1      26.934  26.052  -7.531  0.00  0.00    -0.014 A 
HETATM    9  C   UNK N   1      26.749  24.851  -6.811  0.00  0.00     0.053 A 
ENDROOT
BRANCH   1  10
HETATM   10  C   UNK N   1      26.617  24.050  -4.447  0.00  0.00     0.232 C 
BRANCH  10  11
HETATM   11  C   UNK N   1      27.484  23.830  -3.220  0.00  0.00     0.238 C 
HETATM   12  N   UNK N   1      28.764  23.387  -3.385  0.00  0.00    -0.347 N 
HETATM   13  C   UNK N   1      29.274  23.158  -4.738  0.00  0.00     0.152 C 
HETATM   14  C   UNK N   1      29.609  23.188  -2.209  0.00  0.00     0.152 C 
HETATM   15  C   UNK N   1      30.693  22.592  -4.749  0.00  0.00     0.187 C 
HETATM   16  O   UNK N   1      31.448  23.194  -3.740  0.00  0.00    -0.388 OA
HETATM   17  C   UNK N   1      30.978  22.606  -2.563  0.00  0.00     0.187 C 
HETATM   18  O   UNK N   1      27.067  24.053  -2.097  0.00  0.00    -0.272 OA
ENDBRANCH  10  11
ENDBRANCH   1  10
BRANCH   9  19
HETATM   19  C   UNK N   1      26.495  23.487  -7.409  0.00  0.00    -0.009 A 
HETATM   20  C   UNK N   1      27.556  22.668  -7.827  0.00  0.00     0.014 A 
HETATM   21  C   UNK N   1      27.319  21.404  -8.376  0.00  0.00     0.001 A 
HETATM   22  C   UNK N   1      26.013  20.937  -8.520  0.00  0.00     0.000 A 
HETATM   23  C   UNK N   1      24.944  21.736  -8.119  0.00  0.00     0.001 A 
HETATM   24  C   UNK N   1      25.186  22.997  -7.570  0.00  0.00     0.014 A 
ENDBRANCH   9  19
BRANCH   8  25
HETATM   25  C   UNK N   1      26.913  26.224  -9.041  0.00  0.00     0.022 C 
HETATM   26  C   UNK N   1      28.032  25.500  -9.795  0.00  0.00     0.009 C 
HETATM   27  C   UNK N   1      28.008  25.898 -11.270  0.00  0.00     0.001 C 
HETATM   28  C   UNK N   1      26.649  25.583 -11.894  0.00  0.00     0.000 C 
HETATM   29  C   UNK N   1      25.526  26.255 -11.109  0.00  0.00     0.001 C 
HETATM   30  C   UNK N   1      25.572  25.811  -9.649  0.00  0.00     0.009 C 
ENDBRANCH   8  25
BRANCH   4  31
HETATM   31  C   UNK N   1      27.446  29.385  -3.032  0.00  0.00     0.176 C 
HETATM   32  O   UNK N   1      27.437  28.840  -1.940  0.00  0.00    -0.646 OA
BRANCH  31  33
HETATM   33  O   UNK N   1      27.560  30.727  -3.102  0.00  0.00    -0.773 OA
HETATM   34  H   UNK N   1      26.999  31.216  -3.672  0.00  0.00     0.167 HD
ENDBRANCH  31  33
ENDBRANCH   4  31
TORSDOF 6
ENDMDL
MODEL 3
REMARK VINA RESULT:      -7.2     11.983     13.700
REMARK  6 active torsions:
REMARK  status: ('A' for Active; 'I' for Inactive)
REMARK       I    between atoms: N_6  and  C_7 
REMARK    1  A    between atoms: C_7  and  C_9 
REMARK    2  A    between atoms: C_9  and  N_10 
REMARK    3  A    between atoms: C_13  and  C_14 
REMARK    4  A    between atoms: C_14  and  O_16 
REMARK    5  A    between atoms: C_20  and  C_21 
REMARK    6  A    between atoms: C_27  and  C_28 
ROOT
HETATM    1  N   UNK N   1      27.058  16.484   3.714  0.00  0.00    -0.336 N 
HETATM    2  C   UNK N   1      27.692  15.390   3.218  0.00  0.00     0.047 A 
HETATM    3  C   UNK N   1      27.144  14.292   2.563  0.00  0.00     0.048 A 
HETATM    4  C   UNK N   1      27.983  13.251   2.135  0.00  0.00     0.040 A 
HETATM    5  C   UNK N   1      29.372  13.333   2.375  0.00  0.00     0.019 A 
HETATM    6  C   UNK N   1      29.912  14.445   3.046  0.00  0.00     0.015 A 
HETATM    7  C   UNK N   1      29.044  15.459   3.459  0.00  0.00    -0.000 A 
HETATM    8  C   UNK N   1      29.287  16.640   4.145  0.00  0.00    -0.014 A 
HETATM    9  C   UNK N   1      28.028  17.263   4.293  0.00  0.00     0.053 A 
ENDROOT
BRANCH   1  10
HETATM   10  C   UNK N   1      25.626  16.856   3.737  0.00  0.00     0.232 C 
BRANCH  10  11
HETATM   11  C   UNK N   1      24.648  16.551   4.859  0.00  0.00     0.238 C 
HETATM   12  N   UNK N   1      23.470  17.239   4.915  0.00  0.00    -0.347 N 
HETATM   13  C   UNK N   1      23.171  18.231   3.883  0.00  0.00     0.152 C 
HETATM   14  C   UNK N   1      22.518  16.940   5.984  0.00  0.00     0.152 C 
HETATM   15  C   UNK N   1      21.854  18.965   4.131  0.00  0.00     0.187 C 
HETATM   16  O   UNK N   1      20.903  18.071   4.629  0.00  0.00    -0.388 OA
HETATM   17  C   UNK N   1      21.296  17.857   5.953  0.00  0.00     0.187 C 
HETATM   18  O   UNK N   1      24.887  15.701   5.698  0.00  0.00    -0.272 OA
ENDBRANCH  10  11
ENDBRANCH   1  10
BRANCH   9  19
HETATM   19  C   UNK N   1      27.762  18.571   5.001  0.00  0.00    -0.009 A 
HETATM   20  C   UNK N   1      27.440  19.733   4.283  0.00  0.00     0.014 A 
HETATM   21  C   UNK N   1      27.189  20.942   4.939  0.00  0.00     0.001 A 
HETATM   22  C   UNK N   1      27.261  21.011   6.330  0.00  0.00     0.000 A 
HETATM   23  C   UNK N   1      27.586  19.871   7.063  0.00  0.00     0.001 A 
HETATM   24  C   UNK N   1      27.835  18.667   6.403  0.00  0.00     0.014 A 
ENDBRANCH   9  19
BRANCH   8  25
HETATM   25  C   UNK N   1      30.623  17.148   4.662  0.00  0.00     0.022 C 
HETATM   26  C   UNK N   1      31.100  16.512   5.971  0.00  0.00     0.009 C 
HETATM   27  C   UNK N   1      32.351  17.232   6.474  0.00  0.00     0.001 C 
HETATM   28  C   UNK N   1      33.459  17.191   5.422  0.00  0.00     0.000 C 
HETATM   29  C   UNK N   1      32.968  17.769   4.097  0.00  0.00     0.001 C 
HETATM   30  C   UNK N   1      31.734  17.007   3.620  0.00  0.00     0.009 C 
ENDBRANCH   8  25
BRANCH   4  31
HETATM   31  C   UNK N   1      27.397  12.084   1.447  0.00  0.00     0.176 C 
HETATM   32  O   UNK N   1      28.110  11.302   0.838  0.00  0.00    -0.646 OA
BRANCH  31  33
HETATM   33  O   UNK N   1      26.065  11.870   1.492  0.00  0.00    -0.773 OA
HETATM   34  H   UNK N   1      25.686  11.430   2.227  0.00  0.00     0.167 HD
ENDBRANCH  31  33
ENDBRANCH   4  31
TORSDOF 6
ENDMDL
MODEL 4
REMARK VINA RESULT:      -7.2     17.421     22.112
REMARK  6 active torsions:
REMARK  status: ('A' for Active; 'I' for Inactive)
REMARK       I    between atoms: N_6  and  C_7 
REMARK    1  A    between atoms: C_7  and  C_9 
REMARK    2  A    between atoms: C_9  and  N_10 
REMARK    3  A    between atoms: C_13  and  C_14 
REMARK    4  A    between atoms: C_14  and  O_16 
REMARK    5  A    between atoms: C_20  and  C_21 
REMARK    6  A    between atoms: C_27  and  C_28 
ROOT
HETATM    1  N   UNK N   1      36.432  13.913  11.622  0.00  0.00    -0.336 N 
HETATM    2  C   UNK N   1      37.014  13.398  10.508  0.00  0.00     0.047 A 
HETATM    3  C   UNK N   1      37.061  13.935   9.227  0.00  0.00     0.048 A 
HETATM    4  C   UNK N   1      37.711  13.229   8.202  0.00  0.00     0.040 A 
HETATM    5  C   UNK N   1      38.310  11.982   8.489  0.00  0.00     0.019 A 
HETATM    6  C   UNK N   1      38.247  11.446   9.788  0.00  0.00     0.015 A 
HETATM    7  C   UNK N   1      37.588  12.179  10.778  0.00  0.00    -0.000 A 
HETATM    8  C   UNK N   1      37.358  11.895  12.117  0.00  0.00    -0.014 A 
HETATM    9  C   UNK N   1      36.631  12.995  12.622  0.00  0.00     0.053 A 
ENDROOT
BRANCH   1  10
HETATM   10  C   UNK N   1      35.668  15.163  11.835  0.00  0.00     0.232 C 
BRANCH  10  11
HETATM   11  C   UNK N   1      35.375  16.215  10.780  0.00  0.00     0.238 C 
HETATM   12  N   UNK N   1      34.303  16.043   9.953  0.00  0.00    -0.347 N 
HETATM   13  C   UNK N   1      33.452  14.865  10.121  0.00  0.00     0.152 C 
HETATM   14  C   UNK N   1      34.007  17.060   8.945  0.00  0.00     0.152 C 
HETATM   15  C   UNK N   1      32.344  14.780   9.072  0.00  0.00     0.187 C 
HETATM   16  O   UNK N   1      31.838  16.057   8.817  0.00  0.00    -0.388 OA
HETATM   17  C   UNK N   1      32.831  16.672   8.049  0.00  0.00     0.187 C 
HETATM   18  O   UNK N   1      36.067  17.212  10.665  0.00  0.00    -0.272 OA
ENDBRANCH  10  11
ENDBRANCH   1  10
BRANCH   9  19
HETATM   19  C   UNK N   1      36.118  13.147  14.036  0.00  0.00    -0.009 A 
HETATM   20  C   UNK N   1      34.939  12.512  14.452  0.00  0.00     0.014 A 
HETATM   21  C   UNK N   1      34.468  12.649  15.762  0.00  0.00     0.001 A 
HETATM   22  C   UNK N   1      35.169  13.431  16.679  0.00  0.00     0.000 A 
HETATM   23  C   UNK N   1      36.340  14.077  16.285  0.00  0.00     0.001 A 
HETATM   24  C   UNK N   1      36.806  13.935  14.977  0.00  0.00     0.014 A 
ENDBRANCH   9  19
BRANCH   8  25
HETATM   25  C   UNK N   1      37.770  10.646  12.879  0.00  0.00     0.022 C 
HETATM   26  C   UNK N   1      38.385  10.896  14.258  0.00  0.00     0.009 C 
HETATM   27  C   UNK N   1      38.919   9.586  14.836  0.00  0.00     0.001 C 
HETATM   28  C   UNK N   1      37.809   8.540  14.925  0.00  0.00     0.000 C 
HETATM   29  C   UNK N   1      37.153   8.332  13.562  0.00  0.00     0.001 C 
HETATM   30  C   UNK N   1      36.612   9.659  13.034  0.00  0.00     0.009 C 
ENDBRANCH   8  25
BRANCH   4  31
HETATM   31  C   UNK N   1      37.753  13.799   6.841  0.00  0.00     0.176 C 
HETATM   32  O   UNK N   1      38.748  13.667   6.146  0.00  0.00    -0.646 OA
BRANCH  31  33
HETATM   33  O   UNK N   1      36.686  14.465   6.354  0.00  0.00    -0.773 OA
HETATM   34  H   UNK N   1      36.456  14.383   5.449  0.00  0.00     0.167 HD
ENDBRANCH  31  33
ENDBRANCH   4  31
TORSDOF 6
ENDMDL
MODEL 5
REMARK VINA RESULT:      -7.2     14.915     17.161
REMARK  6 active torsions:
REMARK  status: ('A' for Active; 'I' for Inactive)
REMARK       I    between atoms: N_6  and  C_7 
REMARK    1  A    between atoms: C_7  and  C_9 
REMARK    2  A    between atoms: C_9  and  N_10 
REMARK    3  A    between atoms: C_13  and  C_14 
REMARK    4  A    between atoms: C_14  and  O_16 
REMARK    5  A    between atoms: C_20  and  C_21 
REMARK    6  A    between atoms: C_27  and  C_28 
ROOT
HETATM    1  N   UNK N   1      23.125  15.157   6.262  0.00  0.00    -0.336 N 
HETATM    2  C   UNK N   1      22.152  15.999   6.699  0.00  0.00     0.047 A 
HETATM    3  C   UNK N   1      21.170  15.767   7.655  0.00  0.00     0.048 A 
HETATM    4  C   UNK N   1      20.243  16.777   7.956  0.00  0.00     0.040 A 
HETATM    5  C   UNK N   1      20.321  18.016   7.281  0.00  0.00     0.019 A 
HETATM    6  C   UNK N   1      21.313  18.233   6.309  0.00  0.00     0.015 A 
HETATM    7  C   UNK N   1      22.215  17.202   6.037  0.00  0.00    -0.000 A 
HETATM    8  C   UNK N   1      23.266  17.128   5.132  0.00  0.00    -0.014 A 
HETATM    9  C   UNK N   1      23.818  15.838   5.292  0.00  0.00     0.053 A 
ENDROOT
BRANCH   1  10
HETATM   10  C   UNK N   1      23.447  13.761   6.632  0.00  0.00     0.232 C 
BRANCH  10  11
HETATM   11  C   UNK N   1      24.337  13.331   7.785  0.00  0.00     0.238 C 
HETATM   12  N   UNK N   1      23.757  12.857   8.927  0.00  0.00    -0.347 N 
HETATM   13  C   UNK N   1      22.300  12.753   9.000  0.00  0.00     0.152 C 
HETATM   14  C   UNK N   1      24.609  12.428  10.035  0.00  0.00     0.152 C 
HETATM   15  C   UNK N   1      21.807  12.280  10.367  0.00  0.00     0.187 C 
HETATM   16  O   UNK N   1      22.669  11.298  10.863  0.00  0.00    -0.388 OA
HETATM   17  C   UNK N   1      23.803  12.009  11.265  0.00  0.00     0.187 C 
HETATM   18  O   UNK N   1      25.551  13.388   7.708  0.00  0.00    -0.272 OA
ENDBRANCH  10  11
ENDBRANCH   1  10
BRANCH   9  19
HETATM   19  C   UNK N   1      24.975  15.264   4.508  0.00  0.00    -0.009 A 
HETATM   20  C   UNK N   1      26.297  15.394   4.964  0.00  0.00     0.014 A 
HETATM   21  C   UNK N   1      27.366  14.858   4.240  0.00  0.00     0.001 A 
HETATM   22  C   UNK N   1      27.132  14.184   3.041  0.00  0.00     0.000 A 
HETATM   23  C   UNK N   1      25.829  14.049   2.567  0.00  0.00     0.001 A 
HETATM   24  C   UNK N   1      24.765  14.585   3.294  0.00  0.00     0.014 A 
ENDBRANCH   9  19
BRANCH   8  25
HETATM   25  C   UNK N   1      23.712  18.197   4.149  0.00  0.00     0.022 C 
HETATM   26  C   UNK N   1      22.643  19.226   3.774  0.00  0.00     0.009 C 
HETATM   27  C   UNK N   1      23.157  20.126   2.651  0.00  0.00     0.001 C 
HETATM   28  C   UNK N   1      24.451  20.824   3.066  0.00  0.00     0.000 C 
HETATM   29  C   UNK N   1      25.501  19.804   3.499  0.00  0.00     0.001 C 
HETATM   30  C   UNK N   1      24.955  18.943   4.636  0.00  0.00     0.009 C 
ENDBRANCH   8  25
BRANCH   4  31
HETATM   31  C   UNK N   1      19.198  16.525   8.968  0.00  0.00     0.176 C 
HETATM   32  O   UNK N   1      18.526  17.446   9.405  0.00  0.00    -0.646 OA
BRANCH  31  33
HETATM   33  O   UNK N   1      18.975  15.271   9.411  0.00  0.00    -0.773 OA
HETATM   34  H   UNK N   1      19.696  14.696   9.572  0.00  0.00     0.167 HD
ENDBRANCH  31  33
ENDBRANCH   4  31
TORSDOF 6
ENDMDL
MODEL 6
REMARK VINA RESULT:      -7.0     13.355     15.681
REMARK  6 active torsions:
REMARK  status: ('A' for Active; 'I' for Inactive)
REMARK       I    between atoms: N_6  and  C_7 
REMARK    1  A    between atoms: C_7  and  C_9 
REMARK    2  A    between atoms: C_9  and  N_10 
REMARK    3  A    between atoms: C_13  and  C_14 
REMARK    4  A    between atoms: C_14  and  O_16 
REMARK    5  A    between atoms: C_20  and  C_21 
REMARK    6  A    between atoms: C_27  and  C_28 
ROOT
HETATM    1  N   UNK N   1      22.948  16.567   4.516  0.00  0.00    -0.336 N 
HETATM    2  C   UNK N   1      23.090  17.823   4.018  0.00  0.00     0.047 A 
HETATM    3  C   UNK N   1      22.116  18.662   3.490  0.00  0.00     0.048 A 
HETATM    4  C   UNK N   1      22.479  19.932   3.013  0.00  0.00     0.040 A 
HETATM    5  C   UNK N   1      23.830  20.338   3.076  0.00  0.00     0.019 A 
HETATM    6  C   UNK N   1      24.807  19.475   3.603  0.00  0.00     0.015 A 
HETATM    7  C   UNK N   1      24.406  18.219   4.065  0.00  0.00    -0.000 A 
HETATM    8  C   UNK N   1      25.139  17.173   4.608  0.00  0.00    -0.014 A 
HETATM    9  C   UNK N   1      24.204  16.151   4.881  0.00  0.00     0.053 A 
ENDROOT
BRANCH   1  10
HETATM   10  C   UNK N   1      21.757  15.698   4.648  0.00  0.00     0.232 C 
BRANCH  10  11
HETATM   11  C   UNK N   1      20.388  16.137   5.139  0.00  0.00     0.238 C 
HETATM   12  N   UNK N   1      20.156  16.200   6.482  0.00  0.00    -0.347 N 
HETATM   13  C   UNK N   1      21.236  15.868   7.412  0.00  0.00     0.152 C 
HETATM   14  C   UNK N   1      18.845  16.637   6.961  0.00  0.00     0.152 C 
HETATM   15  C   UNK N   1      20.794  15.914   8.874  0.00  0.00     0.187 C 
HETATM   16  O   UNK N   1      19.922  16.987   9.069  0.00  0.00    -0.388 OA
HETATM   17  C   UNK N   1      18.724  16.567   8.484  0.00  0.00     0.187 C 
HETATM   18  O   UNK N   1      19.502  16.444   4.362  0.00  0.00    -0.272 OA
ENDBRANCH  10  11
ENDBRANCH   1  10
BRANCH   9  19
HETATM   19  C   UNK N   1      24.519  14.790   5.458  0.00  0.00    -0.009 A 
HETATM   20  C   UNK N   1      24.641  14.600   6.844  0.00  0.00     0.014 A 
HETATM   21  C   UNK N   1      24.927  13.339   7.377  0.00  0.00     0.001 A 
HETATM   22  C   UNK N   1      25.100  12.245   6.531  0.00  0.00     0.000 A 
HETATM   23  C   UNK N   1      24.991  12.412   5.152  0.00  0.00     0.001 A 
HETATM   24  C   UNK N   1      24.704  13.673   4.625  0.00  0.00     0.014 A 
ENDBRANCH   9  19
BRANCH   8  25
HETATM   25  C   UNK N   1      26.642  17.120   4.833  0.00  0.00     0.022 C 
HETATM   26  C   UNK N   1      27.492  17.112   3.560  0.00  0.00     0.009 C 
HETATM   27  C   UNK N   1      28.959  16.875   3.916  0.00  0.00     0.001 C 
HETATM   28  C   UNK N   1      29.460  17.940   4.890  0.00  0.00     0.000 C 
HETATM   29  C   UNK N   1      28.578  17.992   6.134  0.00  0.00     0.001 C 
HETATM   30  C   UNK N   1      27.127  18.255   5.736  0.00  0.00     0.009 C 
ENDBRANCH   8  25
BRANCH   4  31
HETATM   31  C   UNK N   1      21.442  20.818   2.448  0.00  0.00     0.176 C 
HETATM   32  O   UNK N   1      21.383  21.011   1.244  0.00  0.00    -0.646 OA
BRANCH  31  33
HETATM   33  O   UNK N   1      20.547  21.416   3.261  0.00  0.00    -0.773 OA
HETATM   34  H   UNK N   1      20.334  21.031   4.088  0.00  0.00     0.167 HD
ENDBRANCH  31  33
ENDBRANCH   4  31
TORSDOF 6
ENDMDL
MODEL 7
REMARK VINA RESULT:      -7.0     11.977     14.670
REMARK  6 active torsions:
REMARK  status: ('A' for Active; 'I' for Inactive)
REMARK       I    between atoms: N_6  and  C_7 
REMARK    1  A    between atoms: C_7  and  C_9 
REMARK    2  A    between atoms: C_9  and  N_10 
REMARK    3  A    between atoms: C_13  and  C_14 
REMARK    4  A    between atoms: C_14  and  O_16 
REMARK    5  A    between atoms: C_20  and  C_21 
REMARK    6  A    between atoms: C_27  and  C_28 
ROOT
HETATM    1  N   UNK N   1      29.267  15.328   3.562  0.00  0.00    -0.336 N 
HETATM    2  C   UNK N   1      27.954  15.375   3.216  0.00  0.00     0.047 A 
HETATM    3  C   UNK N   1      27.221  14.460   2.468  0.00  0.00     0.048 A 
HETATM    4  C   UNK N   1      25.862  14.704   2.213  0.00  0.00     0.040 A 
HETATM    5  C   UNK N   1      25.259  15.877   2.720  0.00  0.00     0.019 A 
HETATM    6  C   UNK N   1      26.015  16.798   3.467  0.00  0.00     0.015 A 
HETATM    7  C   UNK N   1      27.365  16.520   3.696  0.00  0.00    -0.000 A 
HETATM    8  C   UNK N   1      28.339  17.242   4.370  0.00  0.00    -0.014 A 
HETATM    9  C   UNK N   1      29.521  16.475   4.270  0.00  0.00     0.053 A 
ENDROOT
BRANCH   1  10
HETATM   10  C   UNK N   1      30.322  14.335   3.259  0.00  0.00     0.232 C 
BRANCH  10  11
HETATM   11  C   UNK N   1      30.948  13.374   4.254  0.00  0.00     0.238 C 
HETATM   12  N   UNK N   1      32.306  13.356   4.392  0.00  0.00    -0.347 N 
HETATM   13  C   UNK N   1      33.119  14.277   3.597  0.00  0.00     0.152 C 
HETATM   14  C   UNK N   1      32.914  12.444   5.359  0.00  0.00     0.152 C 
HETATM   15  C   UNK N   1      34.619  14.079   3.811  0.00  0.00     0.187 C 
HETATM   16  O   UNK N   1      34.870  13.806   5.158  0.00  0.00    -0.388 OA
HETATM   17  C   UNK N   1      34.442  12.486   5.325  0.00  0.00     0.187 C 
HETATM   18  O   UNK N   1      30.266  12.631   4.937  0.00  0.00    -0.272 OA
ENDBRANCH  10  11
ENDBRANCH   1  10
BRANCH   9  19
HETATM   19  C   UNK N   1      30.875  16.854   4.826  0.00  0.00    -0.009 A 
HETATM   20  C   UNK N   1      31.812  17.548   4.045  0.00  0.00     0.014 A 
HETATM   21  C   UNK N   1      33.062  17.901   4.562  0.00  0.00     0.001 A 
HETATM   22  C   UNK N   1      33.399  17.562   5.873  0.00  0.00     0.000 A 
HETATM   23  C   UNK N   1      32.486  16.867   6.664  0.00  0.00     0.001 A 
HETATM   24  C   UNK N   1      31.239  16.518   6.143  0.00  0.00     0.014 A 
ENDBRANCH   9  19
BRANCH   8  25
HETATM   25  C   UNK N   1      28.182  18.594   5.048  0.00  0.00     0.022 C 
HETATM   26  C   UNK N   1      27.277  19.588   4.317  0.00  0.00     0.009 C 
HETATM   27  C   UNK N   1      27.348  20.955   4.997  0.00  0.00     0.001 C 
HETATM   28  C   UNK N   1      26.951  20.849   6.469  0.00  0.00     0.000 C 
HETATM   29  C   UNK N   1      27.812  19.813   7.188  0.00  0.00     0.001 C 
HETATM   30  C   UNK N   1      27.693  18.460   6.490  0.00  0.00     0.009 C 
ENDBRANCH   8  25
BRANCH   4  31
HETATM   31  C   UNK N   1      25.089  13.734   1.413  0.00  0.00     0.176 C 
HETATM   32  O   UNK N   1      25.362  12.545   1.450  0.00  0.00    -0.646 OA
BRANCH  31  33
HETATM   33  O   UNK N   1      24.068  14.157   0.639  0.00  0.00    -0.773 OA
HETATM   34  H   UNK N   1      23.369  13.570   0.424  0.00  0.00     0.167 HD
ENDBRANCH  31  33
ENDBRANCH   4  31
TORSDOF 6
ENDMDL
MODEL 8
REMARK VINA RESULT:      -6.9     20.934     25.477
REMARK  6 active torsions:
REMARK  status: ('A' for Active; 'I' for Inactive)
REMARK       I    between atoms: N_6  and  C_7 
REMARK    1  A    between atoms: C_7  and  C_9 
REMARK    2  A    between atoms: C_9  and  N_10 
REMARK    3  A    between atoms: C_13  and  C_14 
REMARK    4  A    between atoms: C_14  and  O_16 
REMARK    5  A    between atoms: C_20  and  C_21 
REMARK    6  A    between atoms: C_27  and  C_28 
ROOT
HETATM    1  N   UNK N   1      35.232  11.645  14.764  0.00  0.00    -0.336 N 
HETATM    2  C   UNK N   1      35.335  11.713  16.117  0.00  0.00     0.047 A 
HETATM    3  C   UNK N   1      35.072  12.791  16.954  0.00  0.00     0.048 A 
HETATM    4  C   UNK N   1      35.255  12.655  18.340  0.00  0.00     0.040 A 
HETATM    5  C   UNK N   1      35.704  11.423  18.864  0.00  0.00     0.019 A 
HETATM    6  C   UNK N   1      35.975  10.343  18.005  0.00  0.00     0.015 A 
HETATM    7  C   UNK N   1      35.784  10.520  16.632  0.00  0.00    -0.000 A 
HETATM    8  C   UNK N   1      35.985   9.653  15.567  0.00  0.00    -0.014 A 
HETATM    9  C   UNK N   1      35.633  10.382  14.409  0.00  0.00     0.053 A 
ENDROOT
BRANCH   1  10
HETATM   10  C   UNK N   1      34.833  12.660  13.763  0.00  0.00     0.232 C 
BRANCH  10  11
HETATM   11  C   UNK N   1      35.768  13.632  13.065  0.00  0.00     0.238 C 
HETATM   12  N   UNK N   1      35.793  13.662  11.700  0.00  0.00    -0.347 N 
HETATM   13  C   UNK N   1      34.903  12.776  10.949  0.00  0.00     0.152 C 
HETATM   14  C   UNK N   1      36.679  14.606  11.022  0.00  0.00     0.152 C 
HETATM   15  C   UNK N   1      35.107  12.876   9.438  0.00  0.00     0.187 C 
HETATM   16  O   UNK N   1      35.340  14.206   9.081  0.00  0.00    -0.388 OA
HETATM   17  C   UNK N   1      36.650  14.449   9.502  0.00  0.00     0.187 C 
HETATM   18  O   UNK N   1      36.483  14.391  13.695  0.00  0.00    -0.272 OA
ENDBRANCH  10  11
ENDBRANCH   1  10
BRANCH   9  19
HETATM   19  C   UNK N   1      35.706   9.878  12.986  0.00  0.00    -0.009 A 
HETATM   20  C   UNK N   1      34.591   9.298  12.363  0.00  0.00     0.014 A 
HETATM   21  C   UNK N   1      34.658   8.836  11.044  0.00  0.00     0.001 A 
HETATM   22  C   UNK N   1      35.849   8.944  10.326  0.00  0.00     0.000 A 
HETATM   23  C   UNK N   1      36.971   9.511  10.927  0.00  0.00     0.001 A 
HETATM   24  C   UNK N   1      36.898   9.970  12.244  0.00  0.00     0.014 A 
ENDBRANCH   9  19
BRANCH   8  25
HETATM   25  C   UNK N   1      36.507   8.227  15.625  0.00  0.00     0.022 C 
HETATM   26  C   UNK N   1      37.947   8.079  16.121  0.00  0.00     0.009 C 
HETATM   27  C   UNK N   1      38.408   6.631  15.959  0.00  0.00     0.001 C 
HETATM   28  C   UNK N   1      37.480   5.680  16.714  0.00  0.00     0.000 C 
HETATM   29  C   UNK N   1      36.033   5.867  16.264  0.00  0.00     0.001 C 
HETATM   30  C   UNK N   1      35.607   7.320  16.465  0.00  0.00     0.009 C 
ENDBRANCH   8  25
BRANCH   4  31
HETATM   31  C   UNK N   1      34.980  13.804  19.224  0.00  0.00     0.176 C 
HETATM   32  O   UNK N   1      35.100  14.946  18.809  0.00  0.00    -0.646 OA
BRANCH  31  33
HETATM   33  O   UNK N   1      34.588  13.598  20.499  0.00  0.00    -0.773 OA
HETATM   34  H   UNK N   1      35.124  13.896  21.207  0.00  0.00     0.167 HD
ENDBRANCH  31  33
ENDBRANCH   4  31
TORSDOF 6
ENDMDL
MODEL 9
REMARK VINA RESULT:      -6.9     11.984     15.017
REMARK  6 active torsions:
REMARK  status: ('A' for Active; 'I' for Inactive)
REMARK       I    between atoms: N_6  and  C_7 
REMARK    1  A    between atoms: C_7  and  C_9 
REMARK    2  A    between atoms: C_9  and  N_10 
REMARK    3  A    between atoms: C_13  and  C_14 
REMARK    4  A    between atoms: C_14  and  O_16 
REMARK    5  A    between atoms: C_20  and  C_21 
REMARK    6  A    between atoms: C_27  and  C_28 
ROOT
HETATM    1  N   UNK N   1      29.556  16.568   4.000  0.00  0.00    -0.336 N 
HETATM    2  C   UNK N   1      28.818  17.410   4.769  0.00  0.00     0.047 A 
HETATM    3  C   UNK N   1      27.573  17.966   4.497  0.00  0.00     0.048 A 
HETATM    4  C   UNK N   1      26.982  18.832   5.431  0.00  0.00     0.040 A 
HETATM    5  C   UNK N   1      27.660  19.125   6.635  0.00  0.00     0.019 A 
HETATM    6  C   UNK N   1      28.923  18.562   6.893  0.00  0.00     0.015 A 
HETATM    7  C   UNK N   1      29.479  17.709   5.937  0.00  0.00    -0.000 A 
HETATM    8  C   UNK N   1      30.694  17.038   5.914  0.00  0.00    -0.014 A 
HETATM    9  C   UNK N   1      30.718  16.332   4.691  0.00  0.00     0.053 A 
ENDROOT
BRANCH   1  10
HETATM   10  C   UNK N   1      29.301  15.992   2.660  0.00  0.00     0.232 C 
BRANCH  10  11
HETATM   11  C   UNK N   1      28.828  14.577   2.378  0.00  0.00     0.238 C 
HETATM   12  N   UNK N   1      27.490  14.340   2.248  0.00  0.00    -0.347 N 
HETATM   13  C   UNK N   1      26.551  15.456   2.359  0.00  0.00     0.152 C 
HETATM   14  C   UNK N   1      27.030  12.982   1.961  0.00  0.00     0.152 C 
HETATM   15  C   UNK N   1      25.091  15.014   2.266  0.00  0.00     0.187 C 
HETATM   16  O   UNK N   1      24.966  14.002   1.311  0.00  0.00    -0.388 OA
HETATM   17  C   UNK N   1      25.505  12.874   1.934  0.00  0.00     0.187 C 
HETATM   18  O   UNK N   1      29.616  13.656   2.254  0.00  0.00    -0.272 OA
ENDBRANCH  10  11
ENDBRANCH   1  10
BRANCH   9  19
HETATM   19  C   UNK N   1      31.851  15.468   4.187  0.00  0.00    -0.009 A 
HETATM   20  C   UNK N   1      32.755  15.944   3.225  0.00  0.00     0.014 A 
HETATM   21  C   UNK N   1      33.806  15.144   2.763  0.00  0.00     0.001 A 
HETATM   22  C   UNK N   1      33.967  13.849   3.255  0.00  0.00     0.000 A 
HETATM   23  C   UNK N   1      33.077  13.354   4.205  0.00  0.00     0.001 A 
HETATM   24  C   UNK N   1      32.031  14.156   4.663  0.00  0.00     0.014 A 
ENDBRANCH   9  19
BRANCH   8  25
HETATM   25  C   UNK N   1      31.789  17.078   6.967  0.00  0.00     0.022 C 
HETATM   26  C   UNK N   1      32.006  15.770   7.732  0.00  0.00     0.009 C 
HETATM   27  C   UNK N   1      32.996  15.992   8.875  0.00  0.00     0.001 C 
HETATM   28  C   UNK N   1      34.324  16.530   8.344  0.00  0.00     0.000 C 
HETATM   29  C   UNK N   1      34.104  17.803   7.529  0.00  0.00     0.001 C 
HETATM   30  C   UNK N   1      33.129  17.530   6.386  0.00  0.00     0.009 C 
ENDBRANCH   8  25
BRANCH   4  31
HETATM   31  C   UNK N   1      25.663  19.425   5.136  0.00  0.00     0.176 C 
HETATM   32  O   UNK N   1      25.582  20.543   4.652  0.00  0.00    -0.646 OA
BRANCH  31  33
HETATM   33  O   UNK N   1      24.535  18.731   5.395  0.00  0.00    -0.773 OA
HETATM   34  H   UNK N   1      23.698  19.137   5.280  0.00  0.00     0.167 HD
ENDBRANCH  31  33
ENDBRANCH   4  31
TORSDOF 6
ENDMDL
