REMARK  13 active torsions:
REMARK  status: ('A' for Active; 'I' for Inactive)
REMARK    1  A    between atoms: C_2  and  O_3 
REMARK       I    between atoms: C_2  and  N_11 
REMARK    2  A    between atoms: O_3  and  C_4 
REMARK    3  A    between atoms: C_4  and  C_5 
REMARK    4  A    between atoms: C_12  and  N_11 
REMARK    5  A    between atoms: C_12  and  C_13 
REMARK    6  A    between atoms: C_12  and  C_17 
REMARK    7  A    between atoms: C_13  and  C_14 
REMARK       I    between atoms: C_17  and  N_19 
REMARK    8  A    between atoms: C_20  and  N_19 
REMARK    9  A    between atoms: C_20  and  C_21 
REMARK   10  A    between atoms: C_20  and  C_24 
REMARK   11  A    between atoms: C_21  and  O_22 
REMARK   12  A    between atoms: C_24  and  C_25 
REMARK   13  A    between atoms: C_28  and  O_29 
ROOT
HETATM    1  C   UNK N   1      -0.460  -0.346  -1.001  0.00  0.00     0.240 C 
HETATM    2  O   UNK N   1      -1.148  -0.144  -1.987  0.00  0.00    -0.271 OA
HETATM    3  N   UNK N   1       0.665  -1.090  -1.183  0.00  0.00    -0.352 N 
HETATM    4  H   UNK N   1       0.754  -1.420  -2.106  0.00  0.00     0.163 HD
ENDROOT
BRANCH   1   5
HETATM    5  C   UNK N   1      -0.891   0.288   0.322  0.00  0.00     0.179 C 
BRANCH   5   6
HETATM    6  N   UNK N   1      -2.114  -0.300   0.871  0.00  0.00    -0.324 N 
HETATM    7  C   UNK N   1      -3.306  -0.410   0.223  0.00  0.00     0.361 C 
HETATM    8  O   UNK N   1      -3.376  -0.254  -0.991  0.00  0.00    -0.238 OA
HETATM    9  H   UNK N   1      -2.070  -0.648   1.791  0.00  0.00     0.165 HD
BRANCH   7  10
HETATM   10  O   UNK N   1      -4.449  -0.539   0.935  0.00  0.00    -0.299 OA
BRANCH  10  11
HETATM   11  C   UNK N   1      -5.664  -0.089   0.439  0.00  0.00     0.219 C 
BRANCH  11  12
HETATM   12  C   UNK N   1      -5.664   1.419   0.328  0.00  0.00    -0.034 A 
HETATM   13  C   UNK N   1      -6.553   2.176   1.095  0.00  0.00     0.009 A 
HETATM   14  C   UNK N   1      -6.524   3.575   1.026  0.00  0.00     0.001 A 
HETATM   15  C   UNK N   1      -5.602   4.221   0.195  0.00  0.00     0.000 A 
HETATM   16  C   UNK N   1      -4.719   3.470  -0.581  0.00  0.00     0.001 A 
HETATM   17  C   UNK N   1      -4.755   2.078  -0.517  0.00  0.00     0.009 A 
ENDBRANCH  11  12
ENDBRANCH  10  11
ENDBRANCH   7  10
ENDBRANCH   5   6
BRANCH   5  18
HETATM   18  C   UNK N   1      -1.170   1.798   0.165  0.00  0.00     0.038 C 
BRANCH  18  19
HETATM   19  C   UNK N   1       0.020   2.726  -0.071  0.00  0.00    -0.020 C 
HETATM   20  C   UNK N   1       1.003   2.701   1.082  0.00  0.00     0.009 C 
HETATM   21  C   UNK N   1       0.711   2.474  -1.394  0.00  0.00     0.009 C 
ENDBRANCH  18  19
ENDBRANCH   5  18
ENDBRANCH   1   5
BRANCH   3  22
HETATM   22  C   UNK N   1       1.763  -1.510  -0.333  0.00  0.00     0.117 C 
BRANCH  22  23
HETATM   23  C   UNK N   1       1.426  -2.558   0.755  0.00  0.00     0.137 C 
HETATM   24  C   UNK N   1       0.353  -2.158   1.739  0.00  0.00     0.041 C 
BRANCH  23  25
HETATM   25  O   UNK N   1       2.580  -2.883   1.472  0.00  0.00    -0.394 OA
HETATM   26  H   UNK N   1       2.785  -3.690   1.970  0.00  0.00     0.210 HD
ENDBRANCH  23  25
ENDBRANCH  22  23
BRANCH  22  27
HETATM   27  C   UNK N   1       2.679  -0.334   0.094  0.00  0.00     0.066 C 
BRANCH  27  28
HETATM   28  C   UNK N   1       4.167  -0.673   0.019  0.00  0.00    -0.056 A 
HETATM   29  C   UNK N   1       5.082  -0.077   0.898  0.00  0.00     0.010 A 
HETATM   30  C   UNK N   1       6.451  -0.390   0.810  0.00  0.00     0.037 A 
HETATM   31  C   UNK N   1       6.908  -1.299  -0.153  0.00  0.00     0.065 A 
HETATM   32  C   UNK N   1       6.007  -1.882  -1.038  0.00  0.00     0.037 A 
HETATM   33  C   UNK N   1       4.655  -1.562  -0.958  0.00  0.00     0.010 A 
BRANCH  31  34
HETATM   34  O   UNK N   1       8.212  -1.610  -0.231  0.00  0.00    -0.361 OA
HETATM   35  H   UNK N   1       8.479  -2.507  -0.285  0.00  0.00     0.217 HD
ENDBRANCH  31  34
ENDBRANCH  27  28
ENDBRANCH  22  27
ENDBRANCH   3  22
TORSDOF 13
