MODEL 1
REMARK VINA RESULT:      -7.5      0.000      0.000
REMARK  13 active torsions:
REMARK  status: ('A' for Active; 'I' for Inactive)
REMARK    1  A    between atoms: C_2  and  O_3 
REMARK       I    between atoms: C_2  and  N_11 
REMARK    2  A    between atoms: O_3  and  C_4 
REMARK    3  A    between atoms: C_4  and  C_5 
REMARK    4  A    between atoms: C_12  and  N_11 
REMARK    5  A    between atoms: C_12  and  C_13 
REMARK    6  A    between atoms: C_12  and  C_17 
REMARK    7  A    between atoms: C_13  and  C_14 
REMARK       I    between atoms: C_17  and  N_19 
REMARK    8  A    between atoms: C_20  and  N_19 
REMARK    9  A    between atoms: C_20  and  C_21 
REMARK   10  A    between atoms: C_20  and  C_24 
REMARK   11  A    between atoms: C_21  and  O_22 
REMARK   12  A    between atoms: C_24  and  C_25 
REMARK   13  A    between atoms: C_28  and  O_29 
ROOT
HETATM    1  C   UNK N   1      34.720  16.418  10.215  0.00  0.00     0.240 C 
HETATM    2  O   UNK N   1      35.234  17.170  11.026  0.00  0.00    -0.271 OA
HETATM    3  N   UNK N   1      33.981  16.996   9.229  0.00  0.00    -0.352 N 
HETATM    4  H   UNK N   1      33.914  17.972   9.330  0.00  0.00     0.163 HD
ENDROOT
BRANCH   1   5
HETATM    5  C   UNK N   1      34.991  14.919  10.348  0.00  0.00     0.179 C 
BRANCH   5   6
HETATM    6  N   UNK N   1      35.315  14.512  11.717  0.00  0.00    -0.324 N 
HETATM    7  C   UNK N   1      35.047  13.298  12.271  0.00  0.00     0.361 C 
HETATM    8  O   UNK N   1      34.737  12.343  11.569  0.00  0.00    -0.238 OA
HETATM    9  H   UNK N   1      35.768  15.175  12.286  0.00  0.00     0.165 HD
BRANCH   7  10
HETATM   10  O   UNK N   1      34.968  13.176  13.616  0.00  0.00    -0.299 OA
BRANCH  10  11
HETATM   11  C   UNK N   1      36.064  12.785  14.372  0.00  0.00     0.219 C 
BRANCH  11  12
HETATM   12  C   UNK N   1      36.222  13.682  15.578  0.00  0.00    -0.034 A 
HETATM   13  C   UNK N   1      37.117  14.755  15.539  0.00  0.00     0.009 A 
HETATM   14  C   UNK N   1      37.232  15.613  16.640  0.00  0.00     0.001 A 
HETATM   15  C   UNK N   1      36.450  15.405  17.781  0.00  0.00     0.000 A 
HETATM   16  C   UNK N   1      35.563  14.329  17.830  0.00  0.00     0.001 A 
HETATM   17  C   UNK N   1      35.455  13.472  16.737  0.00  0.00     0.009 A 
ENDBRANCH  11  12
ENDBRANCH  10  11
ENDBRANCH   7  10
ENDBRANCH   5   6
BRANCH   5  18
HETATM   18  C   UNK N   1      36.182  14.476   9.472  0.00  0.00     0.038 C 
BRANCH  18  19
HETATM   19  C   UNK N   1      35.883  13.668   8.211  0.00  0.00    -0.020 C 
HETATM   20  C   UNK N   1      34.506  13.038   8.249  0.00  0.00     0.009 C 
HETATM   21  C   UNK N   1      36.096  14.459   6.939  0.00  0.00     0.009 C 
ENDBRANCH  18  19
ENDBRANCH   5  18
ENDBRANCH   1   5
BRANCH   3  22
HETATM   22  C   UNK N   1      33.268  16.506   8.064  0.00  0.00     0.117 C 
BRANCH  22  23
HETATM   23  C   UNK N   1      33.335  17.392   6.797  0.00  0.00     0.137 C 
HETATM   24  C   UNK N   1      33.353  16.652   5.481  0.00  0.00     0.041 C 
BRANCH  23  25
HETATM   25  O   UNK N   1      34.463  18.214   6.854  0.00  0.00    -0.394 OA
HETATM   26  H   UNK N   1      34.968  18.509   7.628  0.00  0.00     0.210 HD
ENDBRANCH  23  25
ENDBRANCH  22  23
BRANCH  22  27
HETATM   27  C   UNK N   1      31.886  15.897   8.414  0.00  0.00     0.066 C 
BRANCH  27  28
HETATM   28  C   UNK N   1      30.729  16.875   8.214  0.00  0.00    -0.056 A 
HETATM   29  C   UNK N   1      30.451  17.860   9.172  0.00  0.00     0.010 A 
HETATM   30  C   UNK N   1      29.375  18.747   8.979  0.00  0.00     0.037 A 
HETATM   31  C   UNK N   1      28.579  18.653   7.831  0.00  0.00     0.065 A 
HETATM   32  C   UNK N   1      28.841  17.669   6.884  0.00  0.00     0.037 A 
HETATM   33  C   UNK N   1      29.897  16.784   7.082  0.00  0.00     0.010 A 
BRANCH  31  34
HETATM   34  O   UNK N   1      27.560  19.507   7.638  0.00  0.00    -0.361 OA
HETATM   35  H   UNK N   1      26.949  19.360   6.942  0.00  0.00     0.217 HD
ENDBRANCH  31  34
ENDBRANCH  27  28
ENDBRANCH  22  27
ENDBRANCH   3  22
TORSDOF 13
ENDMDL
MODEL 2
REMARK VINA RESULT:      -7.2      1.369      2.066
REMARK  13 active torsions:
REMARK  status: ('A' for Active; 'I' for Inactive)
REMARK    1  A    between atoms: C_2  and  O_3 
REMARK       I    between atoms: C_2  and  N_11 
REMARK    2  A    between atoms: O_3  and  C_4 
REMARK    3  A    between atoms: C_4  and  C_5 
REMARK    4  A    between atoms: C_12  and  N_11 
REMARK    5  A    between atoms: C_12  and  C_13 
REMARK    6  A    between atoms: C_12  and  C_17 
REMARK    7  A    between atoms: C_13  and  C_14 
REMARK       I    between atoms: C_17  and  N_19 
REMARK    8  A    between atoms: C_20  and  N_19 
REMARK    9  A    between atoms: C_20  and  C_21 
REMARK   10  A    between atoms: C_20  and  C_24 
REMARK   11  A    between atoms: C_21  and  O_22 
REMARK   12  A    between atoms: C_24  and  C_25 
REMARK   13  A    between atoms: C_28  and  O_29 
ROOT
HETATM    1  C   UNK N   1      35.178  16.243  10.168  0.00  0.00     0.240 C 
HETATM    2  O   UNK N   1      35.887  17.165  10.533  0.00  0.00    -0.271 OA
HETATM    3  N   UNK N   1      34.037  16.575   9.504  0.00  0.00    -0.352 N 
HETATM    4  H   UNK N   1      33.904  17.548   9.446  0.00  0.00     0.163 HD
ENDROOT
BRANCH   1   5
HETATM    5  C   UNK N   1      35.652  14.815  10.443  0.00  0.00     0.179 C 
BRANCH   5   6
HETATM    6  N   UNK N   1      35.781  14.515  11.869  0.00  0.00    -0.324 N 
HETATM    7  C   UNK N   1      35.193  13.475  12.522  0.00  0.00     0.361 C 
HETATM    8  O   UNK N   1      34.707  12.539  11.898  0.00  0.00    -0.238 OA
HETATM    9  H   UNK N   1      36.344  15.120  12.405  0.00  0.00     0.165 HD
BRANCH   7  10
HETATM   10  O   UNK N   1      35.004  13.541  13.860  0.00  0.00    -0.299 OA
BRANCH  10  11
HETATM   11  C   UNK N   1      36.064  13.748  14.730  0.00  0.00     0.219 C 
BRANCH  11  12
HETATM   12  C   UNK N   1      35.870  12.947  15.998  0.00  0.00    -0.034 A 
HETATM   13  C   UNK N   1      35.324  13.554  17.132  0.00  0.00     0.009 A 
HETATM   14  C   UNK N   1      35.104  12.802  18.293  0.00  0.00     0.001 A 
HETATM   15  C   UNK N   1      35.423  11.440  18.322  0.00  0.00     0.000 A 
HETATM   16  C   UNK N   1      35.978  10.831  17.197  0.00  0.00     0.001 A 
HETATM   17  C   UNK N   1      36.204  11.583  16.045  0.00  0.00     0.009 A 
ENDBRANCH  11  12
ENDBRANCH  10  11
ENDBRANCH   7  10
ENDBRANCH   5   6
BRANCH   5  18
HETATM   18  C   UNK N   1      37.037  14.546   9.817  0.00  0.00     0.038 C 
BRANCH  18  19
HETATM   19  C   UNK N   1      37.131  13.504   8.704  0.00  0.00    -0.020 C 
HETATM   20  C   UNK N   1      36.319  12.262   9.013  0.00  0.00     0.009 C 
HETATM   21  C   UNK N   1      36.788  14.065   7.341  0.00  0.00     0.009 C 
ENDBRANCH  18  19
ENDBRANCH   5  18
ENDBRANCH   1   5
BRANCH   3  22
HETATM   22  C   UNK N   1      32.971  15.828   8.863  0.00  0.00     0.117 C 
BRANCH  22  23
HETATM   23  C   UNK N   1      33.196  14.304   8.713  0.00  0.00     0.137 C 
HETATM   24  C   UNK N   1      33.198  13.779   7.298  0.00  0.00     0.041 C 
BRANCH  23  25
HETATM   25  O   UNK N   1      32.224  13.609   9.437  0.00  0.00    -0.394 OA
HETATM   26  H   UNK N   1      31.610  13.939  10.112  0.00  0.00     0.210 HD
ENDBRANCH  23  25
ENDBRANCH  22  23
BRANCH  22  27
HETATM   27  C   UNK N   1      32.369  16.566   7.640  0.00  0.00     0.066 C 
BRANCH  27  28
HETATM   28  C   UNK N   1      31.028  17.235   7.941  0.00  0.00    -0.056 A 
HETATM   29  C   UNK N   1      30.903  18.141   9.003  0.00  0.00     0.010 A 
HETATM   30  C   UNK N   1      29.660  18.741   9.275  0.00  0.00     0.037 A 
HETATM   31  C   UNK N   1      28.541  18.438   8.489  0.00  0.00     0.065 A 
HETATM   32  C   UNK N   1      28.655  17.527   7.443  0.00  0.00     0.037 A 
HETATM   33  C   UNK N   1      29.883  16.926   7.182  0.00  0.00     0.010 A 
BRANCH  31  34
HETATM   34  O   UNK N   1      27.356  19.018   8.738  0.00  0.00    -0.361 OA
HETATM   35  H   UNK N   1      27.218  19.480   9.542  0.00  0.00     0.217 HD
ENDBRANCH  31  34
ENDBRANCH  27  28
ENDBRANCH  22  27
ENDBRANCH   3  22
TORSDOF 13
ENDMDL
MODEL 3
REMARK VINA RESULT:      -7.1      4.808      9.406
REMARK  13 active torsions:
REMARK  status: ('A' for Active; 'I' for Inactive)
REMARK    1  A    between atoms: C_2  and  O_3 
REMARK       I    between atoms: C_2  and  N_11 
REMARK    2  A    between atoms: O_3  and  C_4 
REMARK    3  A    between atoms: C_4  and  C_5 
REMARK    4  A    between atoms: C_12  and  N_11 
REMARK    5  A    between atoms: C_12  and  C_13 
REMARK    6  A    between atoms: C_12  and  C_17 
REMARK    7  A    between atoms: C_13  and  C_14 
REMARK       I    between atoms: C_17  and  N_19 
REMARK    8  A    between atoms: C_20  and  N_19 
REMARK    9  A    between atoms: C_20  and  C_21 
REMARK   10  A    between atoms: C_20  and  C_24 
REMARK   11  A    between atoms: C_21  and  O_22 
REMARK   12  A    between atoms: C_24  and  C_25 
REMARK   13  A    between atoms: C_28  and  O_29 
ROOT
HETATM    1  C   UNK N   1      27.242  17.102   5.826  0.00  0.00     0.240 C 
HETATM    2  O   UNK N   1      26.235  16.461   5.580  0.00  0.00    -0.271 OA
HETATM    3  N   UNK N   1      27.841  16.863   7.025  0.00  0.00    -0.352 N 
HETATM    4  H   UNK N   1      27.340  16.219   7.575  0.00  0.00     0.163 HD
ENDROOT
BRANCH   1   5
HETATM    5  C   UNK N   1      27.761  18.067   4.760  0.00  0.00     0.179 C 
BRANCH   5   6
HETATM    6  N   UNK N   1      28.973  17.589   4.092  0.00  0.00    -0.324 N 
HETATM    7  C   UNK N   1      29.044  16.550   3.217  0.00  0.00     0.361 C 
HETATM    8  O   UNK N   1      28.028  16.086   2.711  0.00  0.00    -0.238 OA
HETATM    9  H   UNK N   1      29.813  18.063   4.294  0.00  0.00     0.165 HD
BRANCH   7  10
HETATM   10  O   UNK N   1      30.223  15.918   3.017  0.00  0.00    -0.299 OA
BRANCH  10  11
HETATM   11  C   UNK N   1      31.433  16.578   3.176  0.00  0.00     0.219 C 
BRANCH  11  12
HETATM   12  C   UNK N   1      32.332  15.814   4.122  0.00  0.00    -0.034 A 
HETATM   13  C   UNK N   1      31.934  14.567   4.610  0.00  0.00     0.009 A 
HETATM   14  C   UNK N   1      32.785  13.838   5.451  0.00  0.00     0.001 A 
HETATM   15  C   UNK N   1      34.039  14.351   5.801  0.00  0.00     0.000 A 
HETATM   16  C   UNK N   1      34.437  15.601   5.326  0.00  0.00     0.001 A 
HETATM   17  C   UNK N   1      33.585  16.328   4.496  0.00  0.00     0.009 A 
ENDBRANCH  11  12
ENDBRANCH  10  11
ENDBRANCH   7  10
ENDBRANCH   5   6
BRANCH   5  18
HETATM   18  C   UNK N   1      28.113  19.444   5.362  0.00  0.00     0.038 C 
BRANCH  18  19
HETATM   19  C   UNK N   1      27.212  20.628   5.018  0.00  0.00    -0.020 C 
HETATM   20  C   UNK N   1      26.151  20.263   3.999  0.00  0.00     0.009 C 
HETATM   21  C   UNK N   1      26.605  21.282   6.241  0.00  0.00     0.009 C 
ENDBRANCH  18  19
ENDBRANCH   5  18
ENDBRANCH   1   5
BRANCH   3  22
HETATM   22  C   UNK N   1      29.045  17.337   7.679  0.00  0.00     0.117 C 
BRANCH  22  23
HETATM   23  C   UNK N   1      28.914  18.647   8.492  0.00  0.00     0.137 C 
HETATM   24  C   UNK N   1      29.679  18.690   9.793  0.00  0.00     0.041 C 
BRANCH  23  25
HETATM   25  O   UNK N   1      27.568  18.901   8.766  0.00  0.00    -0.394 OA
HETATM   26  H   UNK N   1      26.917  18.338   9.213  0.00  0.00     0.210 HD
ENDBRANCH  23  25
ENDBRANCH  22  23
BRANCH  22  27
HETATM   27  C   UNK N   1      30.310  17.191   6.794  0.00  0.00     0.066 C 
BRANCH  27  28
HETATM   28  C   UNK N   1      31.588  16.971   7.603  0.00  0.00    -0.056 A 
HETATM   29  C   UNK N   1      31.756  15.812   8.374  0.00  0.00     0.010 A 
HETATM   30  C   UNK N   1      32.933  15.628   9.122  0.00  0.00     0.037 A 
HETATM   31  C   UNK N   1      33.944  16.598   9.101  0.00  0.00     0.065 A 
HETATM   32  C   UNK N   1      33.776  17.756   8.350  0.00  0.00     0.037 A 
HETATM   33  C   UNK N   1      32.606  17.943   7.620  0.00  0.00     0.010 A 
BRANCH  31  34
HETATM   34  O   UNK N   1      35.074  16.419   9.803  0.00  0.00    -0.361 OA
HETATM   35  H   UNK N   1      35.277  16.987  10.521  0.00  0.00     0.217 HD
ENDBRANCH  31  34
ENDBRANCH  27  28
ENDBRANCH  22  27
ENDBRANCH   3  22
TORSDOF 13
ENDMDL
MODEL 4
REMARK VINA RESULT:      -7.1     11.637     14.696
REMARK  13 active torsions:
REMARK  status: ('A' for Active; 'I' for Inactive)
REMARK    1  A    between atoms: C_2  and  O_3 
REMARK       I    between atoms: C_2  and  N_11 
REMARK    2  A    between atoms: O_3  and  C_4 
REMARK    3  A    between atoms: C_4  and  C_5 
REMARK    4  A    between atoms: C_12  and  N_11 
REMARK    5  A    between atoms: C_12  and  C_13 
REMARK    6  A    between atoms: C_12  and  C_17 
REMARK    7  A    between atoms: C_13  and  C_14 
REMARK       I    between atoms: C_17  and  N_19 
REMARK    8  A    between atoms: C_20  and  N_19 
REMARK    9  A    between atoms: C_20  and  C_21 
REMARK   10  A    between atoms: C_20  and  C_24 
REMARK   11  A    between atoms: C_21  and  O_22 
REMARK   12  A    between atoms: C_24  and  C_25 
REMARK   13  A    between atoms: C_28  and  O_29 
ROOT
HETATM    1  C   UNK N   1      19.066  16.000   5.156  0.00  0.00     0.240 C 
HETATM    2  O   UNK N   1      17.983  15.833   5.689  0.00  0.00    -0.271 OA
HETATM    3  N   UNK N   1      19.075  16.068   3.797  0.00  0.00    -0.352 N 
HETATM    4  H   UNK N   1      18.184  15.920   3.406  0.00  0.00     0.163 HD
ENDROOT
BRANCH   1   5
HETATM    5  C   UNK N   1      20.294  16.165   6.054  0.00  0.00     0.179 C 
BRANCH   5   6
HETATM    6  N   UNK N   1      21.275  17.110   5.519  0.00  0.00    -0.324 N 
HETATM    7  C   UNK N   1      21.473  18.385   5.953  0.00  0.00     0.361 C 
HETATM    8  O   UNK N   1      21.009  18.762   7.023  0.00  0.00    -0.238 OA
HETATM    9  H   UNK N   1      21.844  16.795   4.779  0.00  0.00     0.165 HD
BRANCH   7  10
HETATM   10  O   UNK N   1      22.053  19.292   5.134  0.00  0.00    -0.299 OA
BRANCH  10  11
HETATM   11  C   UNK N   1      22.580  18.922   3.905  0.00  0.00     0.219 C 
BRANCH  11  12
HETATM   12  C   UNK N   1      24.066  19.199   3.862  0.00  0.00    -0.034 A 
HETATM   13  C   UNK N   1      24.560  20.248   3.082  0.00  0.00     0.009 A 
HETATM   14  C   UNK N   1      25.932  20.533   3.076  0.00  0.00     0.001 A 
HETATM   15  C   UNK N   1      26.813  19.774   3.855  0.00  0.00     0.000 A 
HETATM   16  C   UNK N   1      26.327  18.719   4.627  0.00  0.00     0.001 A 
HETATM   17  C   UNK N   1      24.963  18.432   4.625  0.00  0.00     0.009 A 
ENDBRANCH  11  12
ENDBRANCH  10  11
ENDBRANCH   7  10
ENDBRANCH   5   6
BRANCH   5  18
HETATM   18  C   UNK N   1      21.041  14.828   6.247  0.00  0.00     0.038 C 
BRANCH  18  19
HETATM   19  C   UNK N   1      22.202  14.794   7.238  0.00  0.00    -0.020 C 
HETATM   20  C   UNK N   1      21.910  13.906   8.431  0.00  0.00     0.009 C 
HETATM   21  C   UNK N   1      23.521  14.433   6.589  0.00  0.00     0.009 C 
ENDBRANCH  18  19
ENDBRANCH   5  18
ENDBRANCH   1   5
BRANCH   3  22
HETATM   22  C   UNK N   1      20.092  16.309   2.791  0.00  0.00     0.117 C 
BRANCH  22  23
HETATM   23  C   UNK N   1      19.902  17.567   1.911  0.00  0.00     0.137 C 
HETATM   24  C   UNK N   1      19.281  18.759   2.598  0.00  0.00     0.041 C 
BRANCH  23  25
HETATM   25  O   UNK N   1      19.126  17.250   0.794  0.00  0.00    -0.394 OA
HETATM   26  H   UNK N   1      18.233  16.873   0.755  0.00  0.00     0.210 HD
ENDBRANCH  23  25
ENDBRANCH  22  23
BRANCH  22  27
HETATM   27  C   UNK N   1      20.540  15.013   2.065  0.00  0.00     0.066 C 
BRANCH  27  28
HETATM   28  C   UNK N   1      22.059  14.863   1.987  0.00  0.00    -0.056 A 
HETATM   29  C   UNK N   1      22.882  15.372   3.001  0.00  0.00     0.010 A 
HETATM   30  C   UNK N   1      24.279  15.236   2.910  0.00  0.00     0.037 A 
HETATM   31  C   UNK N   1      24.857  14.590   1.809  0.00  0.00     0.065 A 
HETATM   32  C   UNK N   1      24.046  14.097   0.792  0.00  0.00     0.037 A 
HETATM   33  C   UNK N   1      22.665  14.243   0.877  0.00  0.00     0.010 A 
BRANCH  31  34
HETATM   34  O   UNK N   1      26.189  14.447   1.726  0.00  0.00    -0.361 OA
HETATM   35  H   UNK N   1      26.577  14.096   0.947  0.00  0.00     0.217 HD
ENDBRANCH  31  34
ENDBRANCH  27  28
ENDBRANCH  22  27
ENDBRANCH   3  22
TORSDOF 13
ENDMDL
MODEL 5
REMARK VINA RESULT:      -6.9     15.583     19.653
REMARK  13 active torsions:
REMARK  status: ('A' for Active; 'I' for Inactive)
REMARK    1  A    between atoms: C_2  and  O_3 
REMARK       I    between atoms: C_2  and  N_11 
REMARK    2  A    between atoms: O_3  and  C_4 
REMARK    3  A    between atoms: C_4  and  C_5 
REMARK    4  A    between atoms: C_12  and  N_11 
REMARK    5  A    between atoms: C_12  and  C_13 
REMARK    6  A    between atoms: C_12  and  C_17 
REMARK    7  A    between atoms: C_13  and  C_14 
REMARK       I    between atoms: C_17  and  N_19 
REMARK    8  A    between atoms: C_20  and  N_19 
REMARK    9  A    between atoms: C_20  and  C_21 
REMARK   10  A    between atoms: C_20  and  C_24 
REMARK   11  A    between atoms: C_21  and  O_22 
REMARK   12  A    between atoms: C_24  and  C_25 
REMARK   13  A    between atoms: C_28  and  O_29 
ROOT
HETATM    1  C   UNK N   1      30.599  23.612  -2.997  0.00  0.00     0.240 C 
HETATM    2  O   UNK N   1      30.582  23.171  -1.860  0.00  0.00    -0.271 OA
HETATM    3  N   UNK N   1      30.528  24.965  -3.128  0.00  0.00    -0.352 N 
HETATM    4  H   UNK N   1      30.420  25.423  -2.264  0.00  0.00     0.163 HD
ENDROOT
BRANCH   1   5
HETATM    5  C   UNK N   1      30.746  22.622  -4.153  0.00  0.00     0.179 C 
BRANCH   5   6
HETATM    6  N   UNK N   1      29.474  22.303  -4.802  0.00  0.00    -0.324 N 
HETATM    7  C   UNK N   1      29.211  22.403  -6.134  0.00  0.00     0.361 C 
HETATM    8  O   UNK N   1      30.123  22.526  -6.945  0.00  0.00    -0.238 OA
HETATM    9  H   UNK N   1      28.743  21.985  -4.224  0.00  0.00     0.165 HD
BRANCH   7  10
HETATM   10  O   UNK N   1      27.933  22.523  -6.561  0.00  0.00    -0.299 OA
BRANCH  10  11
HETATM   11  C   UNK N   1      27.578  23.455  -7.525  0.00  0.00     0.219 C 
BRANCH  11  12
HETATM   12  C   UNK N   1      26.630  24.481  -6.945  0.00  0.00    -0.034 A 
HETATM   13  C   UNK N   1      26.019  24.249  -5.710  0.00  0.00     0.009 A 
HETATM   14  C   UNK N   1      25.176  25.217  -5.151  0.00  0.00     0.001 A 
HETATM   15  C   UNK N   1      24.946  26.424  -5.821  0.00  0.00     0.000 A 
HETATM   16  C   UNK N   1      25.545  26.657  -7.059  0.00  0.00     0.001 A 
HETATM   17  C   UNK N   1      26.377  25.688  -7.618  0.00  0.00     0.009 A 
ENDBRANCH  11  12
ENDBRANCH  10  11
ENDBRANCH   7  10
ENDBRANCH   5   6
BRANCH   5  18
HETATM   18  C   UNK N   1      31.339  21.279  -3.679  0.00  0.00     0.038 C 
BRANCH  18  19
HETATM   19  C   UNK N   1      32.744  20.909  -4.152  0.00  0.00    -0.020 C 
HETATM   20  C   UNK N   1      33.214  21.789  -5.293  0.00  0.00     0.009 C 
HETATM   21  C   UNK N   1      33.755  20.875  -3.026  0.00  0.00     0.009 C 
ENDBRANCH  18  19
ENDBRANCH   5  18
ENDBRANCH   1   5
BRANCH   3  22
HETATM   22  C   UNK N   1      30.575  25.889  -4.246  0.00  0.00     0.117 C 
BRANCH  22  23
HETATM   23  C   UNK N   1      31.284  27.240  -3.990  0.00  0.00     0.137 C 
HETATM   24  C   UNK N   1      32.676  27.368  -4.562  0.00  0.00     0.041 C 
BRANCH  23  25
HETATM   25  O   UNK N   1      31.350  27.487  -2.617  0.00  0.00    -0.394 OA
HETATM   26  H   UNK N   1      31.482  28.327  -2.150  0.00  0.00     0.210 HD
ENDBRANCH  23  25
ENDBRANCH  22  23
BRANCH  22  27
HETATM   27  C   UNK N   1      29.245  25.941  -5.041  0.00  0.00     0.066 C 
BRANCH  27  28
HETATM   28  C   UNK N   1      28.380  27.150  -4.687  0.00  0.00    -0.056 A 
HETATM   29  C   UNK N   1      27.661  27.188  -3.484  0.00  0.00     0.010 A 
HETATM   30  C   UNK N   1      26.859  28.303  -3.177  0.00  0.00     0.037 A 
HETATM   31  C   UNK N   1      26.776  29.381  -4.067  0.00  0.00     0.065 A 
HETATM   32  C   UNK N   1      27.476  29.343  -5.269  0.00  0.00     0.037 A 
HETATM   33  C   UNK N   1      28.258  28.234  -5.577  0.00  0.00     0.010 A 
BRANCH  31  34
HETATM   34  O   UNK N   1      26.023  30.453  -3.770  0.00  0.00    -0.361 OA
HETATM   35  H   UNK N   1      26.250  31.000  -3.044  0.00  0.00     0.217 HD
ENDBRANCH  31  34
ENDBRANCH  27  28
ENDBRANCH  22  27
ENDBRANCH   3  22
TORSDOF 13
ENDMDL
MODEL 6
REMARK VINA RESULT:      -6.9      2.443      4.636
REMARK  13 active torsions:
REMARK  status: ('A' for Active; 'I' for Inactive)
REMARK    1  A    between atoms: C_2  and  O_3 
REMARK       I    between atoms: C_2  and  N_11 
REMARK    2  A    between atoms: O_3  and  C_4 
REMARK    3  A    between atoms: C_4  and  C_5 
REMARK    4  A    between atoms: C_12  and  N_11 
REMARK    5  A    between atoms: C_12  and  C_13 
REMARK    6  A    between atoms: C_12  and  C_17 
REMARK    7  A    between atoms: C_13  and  C_14 
REMARK       I    between atoms: C_17  and  N_19 
REMARK    8  A    between atoms: C_20  and  N_19 
REMARK    9  A    between atoms: C_20  and  C_21 
REMARK   10  A    between atoms: C_20  and  C_24 
REMARK   11  A    between atoms: C_21  and  O_22 
REMARK   12  A    between atoms: C_24  and  C_25 
REMARK   13  A    between atoms: C_28  and  O_29 
ROOT
HETATM    1  C   UNK N   1      33.189  13.849   8.444  0.00  0.00     0.240 C 
HETATM    2  O   UNK N   1      32.362  12.975   8.640  0.00  0.00    -0.271 OA
HETATM    3  N   UNK N   1      34.099  13.618   7.459  0.00  0.00    -0.352 N 
HETATM    4  H   UNK N   1      33.999  12.728   7.053  0.00  0.00     0.163 HD
ENDROOT
BRANCH   1   5
HETATM    5  C   UNK N   1      33.100  15.127   9.278  0.00  0.00     0.179 C 
BRANCH   5   6
HETATM    6  N   UNK N   1      33.372  14.908  10.700  0.00  0.00    -0.324 N 
HETATM    7  C   UNK N   1      34.604  14.838  11.274  0.00  0.00     0.361 C 
HETATM    8  O   UNK N   1      35.600  15.220  10.669  0.00  0.00    -0.238 OA
HETATM    9  H   UNK N   1      32.594  14.803  11.294  0.00  0.00     0.165 HD
BRANCH   7  10
HETATM   10  O   UNK N   1      34.759  14.203  12.458  0.00  0.00    -0.299 OA
BRANCH  10  11
HETATM   11  C   UNK N   1      35.497  13.032  12.558  0.00  0.00     0.219 C 
BRANCH  11  12
HETATM   12  C   UNK N   1      35.182  12.318  13.853  0.00  0.00    -0.034 A 
HETATM   13  C   UNK N   1      34.284  11.248  13.860  0.00  0.00     0.009 A 
HETATM   14  C   UNK N   1      34.024  10.557  15.051  0.00  0.00     0.001 A 
HETATM   15  C   UNK N   1      34.667  10.929  16.236  0.00  0.00     0.000 A 
HETATM   16  C   UNK N   1      35.557  12.004  16.238  0.00  0.00     0.001 A 
HETATM   17  C   UNK N   1      35.808  12.695  15.053  0.00  0.00     0.009 A 
ENDBRANCH  11  12
ENDBRANCH  10  11
ENDBRANCH   7  10
ENDBRANCH   5   6
BRANCH   5  18
HETATM   18  C   UNK N   1      31.694  15.760   9.200  0.00  0.00     0.038 C 
BRANCH  18  19
HETATM   19  C   UNK N   1      31.452  16.839   8.146  0.00  0.00    -0.020 C 
HETATM   20  C   UNK N   1      30.513  16.371   7.053  0.00  0.00     0.009 C 
HETATM   21  C   UNK N   1      30.996  18.154   8.743  0.00  0.00     0.009 C 
ENDBRANCH  18  19
ENDBRANCH   5  18
ENDBRANCH   1   5
BRANCH   3  22
HETATM   22  C   UNK N   1      35.183  14.381   6.868  0.00  0.00     0.117 C 
BRANCH  22  23
HETATM   23  C   UNK N   1      36.613  14.011   7.332  0.00  0.00     0.137 C 
HETATM   24  C   UNK N   1      37.355  13.035   6.450  0.00  0.00     0.041 C 
BRANCH  23  25
HETATM   25  O   UNK N   1      36.570  13.488   8.626  0.00  0.00    -0.394 OA
HETATM   26  H   UNK N   1      36.066  12.733   8.966  0.00  0.00     0.210 HD
ENDBRANCH  23  25
ENDBRANCH  22  23
BRANCH  22  27
HETATM   27  C   UNK N   1      34.861  15.892   6.746  0.00  0.00     0.066 C 
BRANCH  27  28
HETATM   28  C   UNK N   1      34.044  16.234   5.500  0.00  0.00    -0.056 A 
HETATM   29  C   UNK N   1      33.919  15.312   4.451  0.00  0.00     0.010 A 
HETATM   30  C   UNK N   1      33.173  15.644   3.306  0.00  0.00     0.037 A 
HETATM   31  C   UNK N   1      32.549  16.895   3.206  0.00  0.00     0.065 A 
HETATM   32  C   UNK N   1      32.682  17.819   4.237  0.00  0.00     0.037 A 
HETATM   33  C   UNK N   1      33.430  17.494   5.364  0.00  0.00     0.010 A 
BRANCH  31  34
HETATM   34  O   UNK N   1      31.826  17.210   2.120  0.00  0.00    -0.361 OA
HETATM   35  H   UNK N   1      31.658  16.563   1.462  0.00  0.00     0.217 HD
ENDBRANCH  31  34
ENDBRANCH  27  28
ENDBRANCH  22  27
ENDBRANCH   3  22
TORSDOF 13
ENDMDL
MODEL 7
REMARK VINA RESULT:      -6.9     10.423     14.148
REMARK  13 active torsions:
REMARK  status: ('A' for Active; 'I' for Inactive)
REMARK    1  A    between atoms: C_2  and  O_3 
REMARK       I    between atoms: C_2  and  N_11 
REMARK    2  A    between atoms: O_3  and  C_4 
REMARK    3  A    between atoms: C_4  and  C_5 
REMARK    4  A    between atoms: C_12  and  N_11 
REMARK    5  A    between atoms: C_12  and  C_13 
REMARK    6  A    between atoms: C_12  and  C_17 
REMARK    7  A    between atoms: C_13  and  C_14 
REMARK       I    between atoms: C_17  and  N_19 
REMARK    8  A    between atoms: C_20  and  N_19 
REMARK    9  A    between atoms: C_20  and  C_21 
REMARK   10  A    between atoms: C_20  and  C_24 
REMARK   11  A    between atoms: C_21  and  O_22 
REMARK   12  A    between atoms: C_24  and  C_25 
REMARK   13  A    between atoms: C_28  and  O_29 
ROOT
HETATM    1  C   UNK N   1      20.315  14.579   5.829  0.00  0.00     0.240 C 
HETATM    2  O   UNK N   1      19.155  14.349   5.532  0.00  0.00    -0.271 OA
HETATM    3  N   UNK N   1      21.239  13.657   5.443  0.00  0.00    -0.352 N 
HETATM    4  H   UNK N   1      20.832  12.877   5.003  0.00  0.00     0.163 HD
ENDROOT
BRANCH   1   5
HETATM    5  C   UNK N   1      20.628  15.887   6.556  0.00  0.00     0.179 C 
BRANCH   5   6
HETATM    6  N   UNK N   1      21.392  16.831   5.738  0.00  0.00    -0.324 N 
HETATM    7  C   UNK N   1      21.433  18.181   5.908  0.00  0.00     0.361 C 
HETATM    8  O   UNK N   1      21.027  18.695   6.944  0.00  0.00    -0.238 OA
HETATM    9  H   UNK N   1      21.925  16.456   5.000  0.00  0.00     0.165 HD
BRANCH   7  10
HETATM   10  O   UNK N   1      21.779  18.979   4.872  0.00  0.00    -0.299 OA
BRANCH  10  11
HETATM   11  C   UNK N   1      22.513  18.493   3.799  0.00  0.00     0.219 C 
BRANCH  11  12
HETATM   12  C   UNK N   1      23.884  19.131   3.764  0.00  0.00    -0.034 A 
HETATM   13  C   UNK N   1      24.910  18.626   4.567  0.00  0.00     0.009 A 
HETATM   14  C   UNK N   1      26.192  19.188   4.503  0.00  0.00     0.001 A 
HETATM   15  C   UNK N   1      26.453  20.252   3.632  0.00  0.00     0.000 A 
HETATM   16  C   UNK N   1      25.429  20.766   2.835  0.00  0.00     0.001 A 
HETATM   17  C   UNK N   1      24.153  20.211   2.907  0.00  0.00     0.009 A 
ENDBRANCH  11  12
ENDBRANCH  10  11
ENDBRANCH   7  10
ENDBRANCH   5   6
BRANCH   5  18
HETATM   18  C   UNK N   1      21.464  15.645   7.830  0.00  0.00     0.038 C 
BRANCH  18  19
HETATM   19  C   UNK N   1      20.718  15.397   9.140  0.00  0.00    -0.020 C 
HETATM   20  C   UNK N   1      19.317  15.973   9.119  0.00  0.00     0.009 C 
HETATM   21  C   UNK N   1      20.712  13.939   9.548  0.00  0.00     0.009 C 
ENDBRANCH  18  19
ENDBRANCH   5  18
ENDBRANCH   1   5
BRANCH   3  22
HETATM   22  C   UNK N   1      22.684  13.558   5.529  0.00  0.00     0.117 C 
BRANCH  22  23
HETATM   23  C   UNK N   1      23.483  14.127   4.332  0.00  0.00     0.137 C 
HETATM   24  C   UNK N   1      24.640  15.029   4.687  0.00  0.00     0.041 C 
BRANCH  23  25
HETATM   25  O   UNK N   1      22.625  14.828   3.481  0.00  0.00    -0.394 OA
HETATM   26  H   UNK N   1      21.744  15.192   3.663  0.00  0.00     0.210 HD
ENDBRANCH  23  25
ENDBRANCH  22  23
BRANCH  22  27
HETATM   27  C   UNK N   1      23.162  12.198   6.101  0.00  0.00     0.066 C 
BRANCH  27  28
HETATM   28  C   UNK N   1      23.653  12.293   7.544  0.00  0.00    -0.056 A 
HETATM   29  C   UNK N   1      23.176  11.408   8.522  0.00  0.00     0.010 A 
HETATM   30  C   UNK N   1      23.629  11.514   9.850  0.00  0.00     0.037 A 
HETATM   31  C   UNK N   1      24.559  12.500  10.203  0.00  0.00     0.065 A 
HETATM   32  C   UNK N   1      25.024  13.391   9.241  0.00  0.00     0.037 A 
HETATM   33  C   UNK N   1      24.566  13.293   7.931  0.00  0.00     0.010 A 
BRANCH  31  34
HETATM   34  O   UNK N   1      25.004  12.596  11.467  0.00  0.00    -0.361 OA
HETATM   35  H   UNK N   1      24.915  11.869  12.053  0.00  0.00     0.217 HD
ENDBRANCH  31  34
ENDBRANCH  27  28
ENDBRANCH  22  27
ENDBRANCH   3  22
TORSDOF 13
ENDMDL
MODEL 8
REMARK VINA RESULT:      -6.9     15.720     19.604
REMARK  13 active torsions:
REMARK  status: ('A' for Active; 'I' for Inactive)
REMARK    1  A    between atoms: C_2  and  O_3 
REMARK       I    between atoms: C_2  and  N_11 
REMARK    2  A    between atoms: O_3  and  C_4 
REMARK    3  A    between atoms: C_4  and  C_5 
REMARK    4  A    between atoms: C_12  and  N_11 
REMARK    5  A    between atoms: C_12  and  C_13 
REMARK    6  A    between atoms: C_12  and  C_17 
REMARK    7  A    between atoms: C_13  and  C_14 
REMARK       I    between atoms: C_17  and  N_19 
REMARK    8  A    between atoms: C_20  and  N_19 
REMARK    9  A    between atoms: C_20  and  C_21 
REMARK   10  A    between atoms: C_20  and  C_24 
REMARK   11  A    between atoms: C_21  and  O_22 
REMARK   12  A    between atoms: C_24  and  C_25 
REMARK   13  A    between atoms: C_28  and  O_29 
ROOT
HETATM    1  C   UNK N   1      30.265  22.889  -6.646  0.00  0.00     0.240 C 
HETATM    2  O   UNK N   1      31.076  23.306  -7.456  0.00  0.00    -0.271 OA
HETATM    3  N   UNK N   1      30.583  23.038  -5.331  0.00  0.00    -0.352 N 
HETATM    4  H   UNK N   1      31.476  23.430  -5.201  0.00  0.00     0.163 HD
ENDROOT
BRANCH   1   5
HETATM    5  C   UNK N   1      28.961  22.290  -7.173  0.00  0.00     0.179 C 
BRANCH   5   6
HETATM    6  N   UNK N   1      27.774  22.790  -6.477  0.00  0.00    -0.324 N 
HETATM    7  C   UNK N   1      26.520  22.875  -6.999  0.00  0.00     0.361 C 
HETATM    8  O   UNK N   1      26.231  22.283  -8.033  0.00  0.00    -0.238 OA
HETATM    9  H   UNK N   1      27.894  23.092  -5.548  0.00  0.00     0.165 HD
BRANCH   7  10
HETATM   10  O   UNK N   1      25.626  23.738  -6.465  0.00  0.00    -0.299 OA
BRANCH  10  11
HETATM   11  C   UNK N   1      25.622  25.081  -6.813  0.00  0.00     0.219 C 
BRANCH  11  12
HETATM   12  C   UNK N   1      25.714  25.948  -5.578  0.00  0.00    -0.034 A 
HETATM   13  C   UNK N   1      26.375  25.477  -4.441  0.00  0.00     0.009 A 
HETATM   14  C   UNK N   1      26.499  26.296  -3.311  0.00  0.00     0.001 A 
HETATM   15  C   UNK N   1      25.968  27.590  -3.317  0.00  0.00     0.000 A 
HETATM   16  C   UNK N   1      25.298  28.063  -4.446  0.00  0.00     0.001 A 
HETATM   17  C   UNK N   1      25.168  27.243  -5.566  0.00  0.00     0.009 A 
ENDBRANCH  11  12
ENDBRANCH  10  11
ENDBRANCH   7  10
ENDBRANCH   5   6
BRANCH   5  18
HETATM   18  C   UNK N   1      28.937  20.754  -7.019  0.00  0.00     0.038 C 
BRANCH  18  19
HETATM   19  C   UNK N   1      29.621  19.915  -8.096  0.00  0.00    -0.020 C 
HETATM   20  C   UNK N   1      29.522  18.429  -7.813  0.00  0.00     0.009 C 
HETATM   21  C   UNK N   1      29.143  20.245  -9.494  0.00  0.00     0.009 C 
ENDBRANCH  18  19
ENDBRANCH   5  18
ENDBRANCH   1   5
BRANCH   3  22
HETATM   22  C   UNK N   1      29.913  22.752  -4.077  0.00  0.00     0.117 C 
BRANCH  22  23
HETATM   23  C   UNK N   1      29.930  23.880  -3.018  0.00  0.00     0.137 C 
HETATM   24  C   UNK N   1      30.709  25.118  -3.392  0.00  0.00     0.041 C 
BRANCH  23  25
HETATM   25  O   UNK N   1      30.438  23.389  -1.812  0.00  0.00    -0.394 OA
HETATM   26  H   UNK N   1      30.113  22.658  -1.263  0.00  0.00     0.210 HD
ENDBRANCH  23  25
ENDBRANCH  22  23
BRANCH  22  27
HETATM   27  C   UNK N   1      30.179  21.312  -3.565  0.00  0.00     0.066 C 
BRANCH  27  28
HETATM   28  C   UNK N   1      31.612  20.842  -3.812  0.00  0.00    -0.056 A 
HETATM   29  C   UNK N   1      31.895  19.905  -4.815  0.00  0.00     0.010 A 
HETATM   30  C   UNK N   1      33.218  19.473  -5.023  0.00  0.00     0.037 A 
HETATM   31  C   UNK N   1      34.259  19.976  -4.233  0.00  0.00     0.065 A 
HETATM   32  C   UNK N   1      33.983  20.895  -3.226  0.00  0.00     0.037 A 
HETATM   33  C   UNK N   1      32.672  21.312  -3.012  0.00  0.00     0.010 A 
BRANCH  31  34
HETATM   34  O   UNK N   1      35.525  19.576  -4.438  0.00  0.00    -0.361 OA
HETATM   35  H   UNK N   1      36.160  19.658  -3.754  0.00  0.00     0.217 HD
ENDBRANCH  31  34
ENDBRANCH  27  28
ENDBRANCH  22  27
ENDBRANCH   3  22
TORSDOF 13
ENDMDL
MODEL 9
REMARK VINA RESULT:      -6.8      2.151      8.574
REMARK  13 active torsions:
REMARK  status: ('A' for Active; 'I' for Inactive)
REMARK    1  A    between atoms: C_2  and  O_3 
REMARK       I    between atoms: C_2  and  N_11 
REMARK    2  A    between atoms: O_3  and  C_4 
REMARK    3  A    between atoms: C_4  and  C_5 
REMARK    4  A    between atoms: C_12  and  N_11 
REMARK    5  A    between atoms: C_12  and  C_13 
REMARK    6  A    between atoms: C_12  and  C_17 
REMARK    7  A    between atoms: C_13  and  C_14 
REMARK       I    between atoms: C_17  and  N_19 
REMARK    8  A    between atoms: C_20  and  N_19 
REMARK    9  A    between atoms: C_20  and  C_21 
REMARK   10  A    between atoms: C_20  and  C_24 
REMARK   11  A    between atoms: C_21  and  O_22 
REMARK   12  A    between atoms: C_24  and  C_25 
REMARK   13  A    between atoms: C_28  and  O_29 
ROOT
HETATM    1  C   UNK N   1      34.614  13.203  10.187  0.00  0.00     0.240 C 
HETATM    2  O   UNK N   1      33.589  13.044   9.547  0.00  0.00    -0.271 OA
HETATM    3  N   UNK N   1      34.704  12.539  11.372  0.00  0.00    -0.352 N 
HETATM    4  H   UNK N   1      33.883  12.041  11.589  0.00  0.00     0.163 HD
ENDROOT
BRANCH   1   5
HETATM    5  C   UNK N   1      35.712  14.081   9.585  0.00  0.00     0.179 C 
BRANCH   5   6
HETATM    6  N   UNK N   1      35.225  15.387   9.139  0.00  0.00    -0.324 N 
HETATM    7  C   UNK N   1      35.390  16.567   9.797  0.00  0.00     0.361 C 
HETATM    8  O   UNK N   1      36.204  16.667  10.709  0.00  0.00    -0.238 OA
HETATM    9  H   UNK N   1      34.734  15.414   8.286  0.00  0.00     0.165 HD
BRANCH   7  10
HETATM   10  O   UNK N   1      34.548  17.597   9.553  0.00  0.00    -0.299 OA
BRANCH  10  11
HETATM   11  C   UNK N   1      34.569  18.277   8.344  0.00  0.00     0.219 C 
BRANCH  11  12
HETATM   12  C   UNK N   1      33.434  17.816   7.458  0.00  0.00    -0.034 A 
HETATM   13  C   UNK N   1      33.679  17.493   6.121  0.00  0.00     0.009 A 
HETATM   14  C   UNK N   1      32.637  17.023   5.311  0.00  0.00     0.001 A 
HETATM   15  C   UNK N   1      31.349  16.869   5.836  0.00  0.00     0.000 A 
HETATM   16  C   UNK N   1      31.097  17.200   7.168  0.00  0.00     0.001 A 
HETATM   17  C   UNK N   1      32.133  17.675   7.970  0.00  0.00     0.009 A 
ENDBRANCH  11  12
ENDBRANCH  10  11
ENDBRANCH   7  10
ENDBRANCH   5   6
BRANCH   5  18
HETATM   18  C   UNK N   1      36.359  13.416   8.352  0.00  0.00     0.038 C 
BRANCH  18  19
HETATM   19  C   UNK N   1      36.063  14.013   6.978  0.00  0.00    -0.020 C 
HETATM   20  C   UNK N   1      37.309  14.130   6.123  0.00  0.00     0.009 C 
HETATM   21  C   UNK N   1      34.955  13.287   6.245  0.00  0.00     0.009 C 
ENDBRANCH  18  19
ENDBRANCH   5  18
ENDBRANCH   1   5
BRANCH   3  22
HETATM   22  C   UNK N   1      35.727  12.397  12.391  0.00  0.00     0.117 C 
BRANCH  22  23
HETATM   23  C   UNK N   1      37.064  11.763  11.935  0.00  0.00     0.137 C 
HETATM   24  C   UNK N   1      37.595  10.655  12.812  0.00  0.00     0.041 C 
BRANCH  23  25
HETATM   25  O   UNK N   1      38.045  12.752  11.835  0.00  0.00    -0.394 OA
HETATM   26  H   UNK N   1      38.623  12.968  11.086  0.00  0.00     0.210 HD
ENDBRANCH  23  25
ENDBRANCH  22  23
BRANCH  22  27
HETATM   27  C   UNK N   1      35.160  11.920  13.753  0.00  0.00     0.066 C 
BRANCH  27  28
HETATM   28  C   UNK N   1      35.526  12.844  14.913  0.00  0.00    -0.056 A 
HETATM   29  C   UNK N   1      34.834  12.774  16.130  0.00  0.00     0.010 A 
HETATM   30  C   UNK N   1      35.175  13.639  17.186  0.00  0.00     0.037 A 
HETATM   31  C   UNK N   1      36.207  14.573  17.030  0.00  0.00     0.065 A 
HETATM   32  C   UNK N   1      36.887  14.658  15.820  0.00  0.00     0.037 A 
HETATM   33  C   UNK N   1      36.541  13.811  14.772  0.00  0.00     0.010 A 
BRANCH  31  34
HETATM   34  O   UNK N   1      36.544  15.391  18.040  0.00  0.00    -0.361 OA
HETATM   35  H   UNK N   1      37.400  15.772  18.072  0.00  0.00     0.217 HD
ENDBRANCH  31  34
ENDBRANCH  27  28
ENDBRANCH  22  27
ENDBRANCH   3  22
TORSDOF 13
ENDMDL
