MODEL 1
REMARK VINA RESULT:      -6.8      0.000      0.000
REMARK  8 active torsions:
REMARK  status: ('A' for Active; 'I' for Inactive)
REMARK       I    between atoms: C_2  and  N_3 
REMARK    1  A    between atoms: C_2  and  O_11 
REMARK    2  A    between atoms: N_3  and  C_4 
REMARK    3  A    between atoms: O_11  and  C_12 
REMARK    4  A    between atoms: C_12  and  C_13 
REMARK    5  A    between atoms: C_13  and  C_14 
REMARK    6  A    between atoms: C_14  and  N_15 
REMARK    7  A    between atoms: N_15  and  S_16 
REMARK    8  A    between atoms: S_16  and  C_19 
ROOT
HETATM    1  C   UNK N   1      35.812  15.384  10.106  0.00  0.00     0.047 C 
ENDROOT
BRANCH   1   2
HETATM    2  C   UNK N   1      35.376  16.757  10.603  0.00  0.00     0.182 C 
BRANCH   2   3
HETATM    3  O   UNK N   1      35.283  17.622   9.538  0.00  0.00    -0.304 OA
BRANCH   3   4
HETATM    4  C   UNK N   1      34.198  17.720   8.731  0.00  0.00     0.365 C 
HETATM    5  O   UNK N   1      34.307  18.315   7.675  0.00  0.00    -0.238 OA
HETATM    6  N   UNK N   1      32.999  17.183   9.115  0.00  0.00    -0.303 N 
HETATM    7  H   UNK N   1      32.961  16.747   9.997  0.00  0.00     0.171 HD
BRANCH   6   8
HETATM    8  C   UNK N   1      31.800  17.203   8.339  0.00  0.00     0.039 A 
HETATM    9  C   UNK N   1      31.638  16.410   7.193  0.00  0.00     0.046 A 
HETATM   10  C   UNK N   1      30.440  16.461   6.477  0.00  0.00     0.090 A 
HETATM   11  N   UNK N   1      29.435  17.278   6.889  0.00  0.00    -0.375 N 
HETATM   12  C   UNK N   1      29.564  18.056   7.997  0.00  0.00     0.090 A 
ATOM     13  HN  UNK N   1      28.565  17.308   6.356  1.00  0.00     0.164 HD
HETATM   14  C   UNK N   1      30.747  18.029   8.742  0.00  0.00     0.046 A 
ENDBRANCH   6   8
ENDBRANCH   3   4
ENDBRANCH   2   3
ENDBRANCH   1   2
BRANCH   1  15
HETATM   15  C   UNK N   1      35.048  14.272  10.815  0.00  0.00     0.134 C 
BRANCH  15  16
HETATM   16  N   UNK N   1      35.976  13.248  11.269  0.00  0.00    -0.315 N 
HETATM   17  H   UNK N   1      36.468  12.581  10.673  0.00  0.00     0.172 HD
BRANCH  16  18
HETATM   18  S   UNK N   1      36.107  13.357  13.033  0.00  0.00     0.258 S 
HETATM   19  O   UNK N   1      36.349  14.813  13.458  0.00  0.00    -0.201 OA
HETATM   20  O   UNK N   1      34.603  13.660  13.020  0.00  0.00    -0.201 OA
BRANCH  18  21
HETATM   21  C   UNK N   1      35.669  12.180  14.315  0.00  0.00     0.079 A 
HETATM   22  C   UNK N   1      34.526  11.376  14.205  0.00  0.00     0.026 A 
HETATM   23  C   UNK N   1      34.165  10.530  15.263  0.00  0.00     0.008 A 
HETATM   24  C   UNK N   1      34.940  10.494  16.428  0.00  0.00    -0.062 A 
HETATM   25  C   UNK N   1      34.547   9.617  17.563  0.00  0.00     0.048 C 
HETATM   26  C   UNK N   1      36.082  11.289  16.533  0.00  0.00     0.008 A 
HETATM   27  C   UNK N   1      36.444  12.130  15.480  0.00  0.00     0.026 A 
ENDBRANCH  18  21
ENDBRANCH  16  18
ENDBRANCH  15  16
ENDBRANCH   1  15
TORSDOF 8
ENDMDL
MODEL 2
REMARK VINA RESULT:      -6.7      2.489      9.475
REMARK  8 active torsions:
REMARK  status: ('A' for Active; 'I' for Inactive)
REMARK       I    between atoms: C_2  and  N_3 
REMARK    1  A    between atoms: C_2  and  O_11 
REMARK    2  A    between atoms: N_3  and  C_4 
REMARK    3  A    between atoms: O_11  and  C_12 
REMARK    4  A    between atoms: C_12  and  C_13 
REMARK    5  A    between atoms: C_13  and  C_14 
REMARK    6  A    between atoms: C_14  and  N_15 
REMARK    7  A    between atoms: N_15  and  S_16 
REMARK    8  A    between atoms: S_16  and  C_19 
ROOT
HETATM    1  C   UNK N   1      35.237  14.619   9.538  0.00  0.00     0.047 C 
ENDROOT
BRANCH   1   2
HETATM    2  C   UNK N   1      36.340  14.721  10.584  0.00  0.00     0.182 C 
BRANCH   2   3
HETATM    3  O   UNK N   1      35.785  14.999  11.811  0.00  0.00    -0.304 OA
BRANCH   3   4
HETATM    4  C   UNK N   1      35.553  14.069  12.768  0.00  0.00     0.365 C 
HETATM    5  O   UNK N   1      34.582  13.343  12.655  0.00  0.00    -0.238 OA
HETATM    6  N   UNK N   1      36.381  13.970  13.853  0.00  0.00    -0.303 N 
HETATM    7  H   UNK N   1      37.127  14.609  13.911  0.00  0.00     0.171 HD
BRANCH   6   8
HETATM    8  C   UNK N   1      36.250  13.014  14.907  0.00  0.00     0.039 A 
HETATM    9  C   UNK N   1      35.456  13.254  16.039  0.00  0.00     0.046 A 
HETATM   10  C   UNK N   1      35.355  12.281  17.035  0.00  0.00     0.090 A 
HETATM   11  N   UNK N   1      36.028  11.106  16.909  0.00  0.00    -0.375 N 
HETATM   12  C   UNK N   1      36.803  10.847  15.823  0.00  0.00     0.090 A 
ATOM     13  HN  UNK N   1      35.948  10.404  17.646  1.00  0.00     0.164 HD
HETATM   14  C   UNK N   1      36.924  11.795  14.802  0.00  0.00     0.046 A 
ENDBRANCH   6   8
ENDBRANCH   3   4
ENDBRANCH   2   3
ENDBRANCH   1   2
BRANCH   1  15
HETATM   15  C   UNK N   1      34.135  15.640   9.796  0.00  0.00     0.134 C 
BRANCH  15  16
HETATM   16  N   UNK N   1      34.710  16.973   9.892  0.00  0.00    -0.315 N 
HETATM   17  H   UNK N   1      35.355  17.295  10.613  0.00  0.00     0.172 HD
BRANCH  16  18
HETATM   18  S   UNK N   1      34.098  17.941   8.539  0.00  0.00     0.258 S 
HETATM   19  O   UNK N   1      35.006  19.156   8.302  0.00  0.00    -0.201 OA
HETATM   20  O   UNK N   1      35.047  17.119   7.658  0.00  0.00    -0.201 OA
BRANCH  18  21
HETATM   21  C   UNK N   1      32.887  17.551   7.274  0.00  0.00     0.079 A 
HETATM   22  C   UNK N   1      33.242  17.492   5.920  0.00  0.00     0.026 A 
HETATM   23  C   UNK N   1      32.256  17.270   4.949  0.00  0.00     0.008 A 
HETATM   24  C   UNK N   1      30.917  17.116   5.331  0.00  0.00    -0.062 A 
HETATM   25  C   UNK N   1      29.863  16.907   4.303  0.00  0.00     0.048 C 
HETATM   26  C   UNK N   1      30.566  17.168   6.681  0.00  0.00     0.008 A 
HETATM   27  C   UNK N   1      31.547  17.386   7.648  0.00  0.00     0.026 A 
ENDBRANCH  18  21
ENDBRANCH  16  18
ENDBRANCH  15  16
ENDBRANCH   1  15
TORSDOF 8
ENDMDL
MODEL 3
REMARK VINA RESULT:      -6.7      2.876      9.830
REMARK  8 active torsions:
REMARK  status: ('A' for Active; 'I' for Inactive)
REMARK       I    between atoms: C_2  and  N_3 
REMARK    1  A    between atoms: C_2  and  O_11 
REMARK    2  A    between atoms: N_3  and  C_4 
REMARK    3  A    between atoms: O_11  and  C_12 
REMARK    4  A    between atoms: C_12  and  C_13 
REMARK    5  A    between atoms: C_13  and  C_14 
REMARK    6  A    between atoms: C_14  and  N_15 
REMARK    7  A    between atoms: N_15  and  S_16 
REMARK    8  A    between atoms: S_16  and  C_19 
ROOT
HETATM    1  C   UNK N   1      35.889  13.890  11.310  0.00  0.00     0.047 C 
ENDROOT
BRANCH   1   2
HETATM    2  C   UNK N   1      36.652  13.481  12.565  0.00  0.00     0.182 C 
BRANCH   2   3
HETATM    3  O   UNK N   1      36.154  14.166  13.648  0.00  0.00    -0.304 OA
BRANCH   3   4
HETATM    4  C   UNK N   1      36.298  13.763  14.934  0.00  0.00     0.365 C 
HETATM    5  O   UNK N   1      37.375  13.922  15.478  0.00  0.00    -0.238 OA
HETATM    6  N   UNK N   1      35.258  13.167  15.593  0.00  0.00    -0.303 N 
HETATM    7  H   UNK N   1      34.424  13.029  15.089  0.00  0.00     0.171 HD
BRANCH   6   8
HETATM    8  C   UNK N   1      35.286  12.726  16.952  0.00  0.00     0.039 A 
HETATM    9  C   UNK N   1      35.102  13.608  18.027  0.00  0.00     0.046 A 
HETATM   10  C   UNK N   1      35.128  13.123  19.336  0.00  0.00     0.090 A 
HETATM   11  N   UNK N   1      35.335  11.799  19.566  0.00  0.00    -0.375 N 
HETATM   12  C   UNK N   1      35.515  10.921  18.543  0.00  0.00     0.090 A 
ATOM     13  HN  UNK N   1      35.354  11.457  20.528  1.00  0.00     0.164 HD
HETATM   14  C   UNK N   1      35.490  11.370  17.219  0.00  0.00     0.046 A 
ENDBRANCH   6   8
ENDBRANCH   3   4
ENDBRANCH   2   3
ENDBRANCH   1   2
BRANCH   1  15
HETATM   15  C   UNK N   1      35.481  15.357  11.366  0.00  0.00     0.134 C 
BRANCH  15  16
HETATM   16  N   UNK N   1      34.152  15.521  10.798  0.00  0.00    -0.315 N 
HETATM   17  H   UNK N   1      33.319  14.994  11.063  0.00  0.00     0.172 HD
BRANCH  16  18
HETATM   18  S   UNK N   1      34.225  16.794   9.567  0.00  0.00     0.258 S 
HETATM   19  O   UNK N   1      35.414  17.727   9.838  0.00  0.00    -0.201 OA
HETATM   20  O   UNK N   1      35.187  15.865   8.815  0.00  0.00    -0.201 OA
BRANCH  18  21
HETATM   21  C   UNK N   1      33.410  16.931   7.974  0.00  0.00     0.079 A 
HETATM   22  C   UNK N   1      34.124  17.272   6.818  0.00  0.00     0.026 A 
HETATM   23  C   UNK N   1      33.443  17.456   5.606  0.00  0.00     0.008 A 
HETATM   24  C   UNK N   1      32.052  17.306   5.554  0.00  0.00    -0.062 A 
HETATM   25  C   UNK N   1      31.321  17.525   4.277  0.00  0.00     0.048 C 
HETATM   26  C   UNK N   1      31.342  16.958   6.705  0.00  0.00     0.008 A 
HETATM   27  C   UNK N   1      32.019  16.773   7.910  0.00  0.00     0.026 A 
ENDBRANCH  18  21
ENDBRANCH  16  18
ENDBRANCH  15  16
ENDBRANCH   1  15
TORSDOF 8
ENDMDL
MODEL 4
REMARK VINA RESULT:      -6.6      1.849      2.566
REMARK  8 active torsions:
REMARK  status: ('A' for Active; 'I' for Inactive)
REMARK       I    between atoms: C_2  and  N_3 
REMARK    1  A    between atoms: C_2  and  O_11 
REMARK    2  A    between atoms: N_3  and  C_4 
REMARK    3  A    between atoms: O_11  and  C_12 
REMARK    4  A    between atoms: C_12  and  C_13 
REMARK    5  A    between atoms: C_13  and  C_14 
REMARK    6  A    between atoms: C_14  and  N_15 
REMARK    7  A    between atoms: N_15  and  S_16 
REMARK    8  A    between atoms: S_16  and  C_19 
ROOT
HETATM    1  C   UNK N   1      37.620  13.030  10.163  0.00  0.00     0.047 C 
ENDROOT
BRANCH   1   2
HETATM    2  C   UNK N   1      37.711  14.547  10.046  0.00  0.00     0.182 C 
BRANCH   2   3
HETATM    3  O   UNK N   1      36.645  15.121  10.697  0.00  0.00    -0.304 OA
BRANCH   3   4
HETATM    4  C   UNK N   1      35.692  15.866  10.085  0.00  0.00     0.365 C 
HETATM    5  O   UNK N   1      35.544  17.023  10.429  0.00  0.00    -0.238 OA
HETATM    6  N   UNK N   1      34.896  15.314   9.118  0.00  0.00    -0.303 N 
HETATM    7  H   UNK N   1      35.035  14.362   8.908  0.00  0.00     0.171 HD
BRANCH   6   8
HETATM    8  C   UNK N   1      33.881  16.006   8.389  0.00  0.00     0.039 A 
HETATM    9  C   UNK N   1      32.538  16.004   8.793  0.00  0.00     0.046 A 
HETATM   10  C   UNK N   1      31.588  16.707   8.049  0.00  0.00     0.090 A 
HETATM   11  N   UNK N   1      31.965  17.388   6.934  0.00  0.00    -0.375 N 
HETATM   12  C   UNK N   1      33.260  17.408   6.521  0.00  0.00     0.090 A 
ATOM     13  HN  UNK N   1      31.261  17.895   6.398  1.00  0.00     0.164 HD
HETATM   14  C   UNK N   1      34.240  16.721   7.243  0.00  0.00     0.046 A 
ENDBRANCH   6   8
ENDBRANCH   3   4
ENDBRANCH   2   3
ENDBRANCH   1   2
BRANCH   1  15
HETATM   15  C   UNK N   1      36.707  12.618  11.312  0.00  0.00     0.134 C 
BRANCH  15  16
HETATM   16  N   UNK N   1      37.312  12.994  12.581  0.00  0.00    -0.315 N 
HETATM   17  H   UNK N   1      38.309  13.130  12.751  0.00  0.00     0.172 HD
BRANCH  16  18
HETATM   18  S   UNK N   1      36.020  13.174  13.781  0.00  0.00     0.258 S 
HETATM   19  O   UNK N   1      34.738  13.685  13.109  0.00  0.00    -0.201 OA
HETATM   20  O   UNK N   1      35.602  11.751  13.391  0.00  0.00    -0.201 OA
BRANCH  18  21
HETATM   21  C   UNK N   1      35.886  12.553  15.459  0.00  0.00     0.079 A 
HETATM   22  C   UNK N   1      36.289  11.252  15.788  0.00  0.00     0.026 A 
HETATM   23  C   UNK N   1      36.091  10.767  17.089  0.00  0.00     0.008 A 
HETATM   24  C   UNK N   1      35.484  11.580  18.055  0.00  0.00    -0.062 A 
HETATM   25  C   UNK N   1      35.247  11.062  19.428  0.00  0.00     0.048 C 
HETATM   26  C   UNK N   1      35.090  12.878  17.728  0.00  0.00     0.008 A 
HETATM   27  C   UNK N   1      35.289  13.362  16.435  0.00  0.00     0.026 A 
ENDBRANCH  18  21
ENDBRANCH  16  18
ENDBRANCH  15  16
ENDBRANCH   1  15
TORSDOF 8
ENDMDL
MODEL 5
REMARK VINA RESULT:      -6.5      1.807      2.538
REMARK  8 active torsions:
REMARK  status: ('A' for Active; 'I' for Inactive)
REMARK       I    between atoms: C_2  and  N_3 
REMARK    1  A    between atoms: C_2  and  O_11 
REMARK    2  A    between atoms: N_3  and  C_4 
REMARK    3  A    between atoms: O_11  and  C_12 
REMARK    4  A    between atoms: C_12  and  C_13 
REMARK    5  A    between atoms: C_13  and  C_14 
REMARK    6  A    between atoms: C_14  and  N_15 
REMARK    7  A    between atoms: N_15  and  S_16 
REMARK    8  A    between atoms: S_16  and  C_19 
ROOT
HETATM    1  C   UNK N   1      35.053  16.111  10.904  0.00  0.00     0.047 C 
ENDROOT
BRANCH   1   2
HETATM    2  C   UNK N   1      34.795  16.974   9.674  0.00  0.00     0.182 C 
BRANCH   2   3
HETATM    3  O   UNK N   1      34.009  16.280   8.784  0.00  0.00    -0.304 OA
BRANCH   3   4
HETATM    4  C   UNK N   1      32.654  16.301   8.790  0.00  0.00     0.365 C 
HETATM    5  O   UNK N   1      32.057  15.339   9.234  0.00  0.00    -0.238 OA
HETATM    6  N   UNK N   1      31.976  17.375   8.280  0.00  0.00    -0.303 N 
HETATM    7  H   UNK N   1      32.511  18.107   7.898  0.00  0.00     0.171 HD
BRANCH   6   8
HETATM    8  C   UNK N   1      30.555  17.518   8.256  0.00  0.00     0.039 A 
HETATM    9  C   UNK N   1      29.843  18.082   9.326  0.00  0.00     0.046 A 
HETATM   10  C   UNK N   1      28.455  18.208   9.246  0.00  0.00     0.090 A 
HETATM   11  N   UNK N   1      27.795  17.783   8.135  0.00  0.00    -0.375 N 
HETATM   12  C   UNK N   1      28.461  17.234   7.083  0.00  0.00     0.090 A 
ATOM     13  HN  UNK N   1      26.780  17.878   8.090  1.00  0.00     0.164 HD
HETATM   14  C   UNK N   1      29.851  17.096   7.125  0.00  0.00     0.046 A 
ENDBRANCH   6   8
ENDBRANCH   3   4
ENDBRANCH   2   3
ENDBRANCH   1   2
BRANCH   1  15
HETATM   15  C   UNK N   1      36.142  15.079  10.636  0.00  0.00     0.134 C 
BRANCH  15  16
HETATM   16  N   UNK N   1      35.538  13.820  10.228  0.00  0.00    -0.315 N 
HETATM   17  H   UNK N   1      35.089  13.636   9.330  0.00  0.00     0.172 HD
BRANCH  16  18
HETATM   18  S   UNK N   1      35.716  12.661  11.557  0.00  0.00     0.258 S 
HETATM   19  O   UNK N   1      36.433  11.395  11.065  0.00  0.00    -0.201 OA
HETATM   20  O   UNK N   1      37.094  13.295  11.786  0.00  0.00    -0.201 OA
BRANCH  18  21
HETATM   21  C   UNK N   1      35.530  12.873  13.329  0.00  0.00     0.079 A 
HETATM   22  C   UNK N   1      36.387  13.710  14.055  0.00  0.00     0.026 A 
HETATM   23  C   UNK N   1      36.270  13.788  15.450  0.00  0.00     0.008 A 
HETATM   24  C   UNK N   1      35.303  13.025  16.116  0.00  0.00    -0.062 A 
HETATM   25  C   UNK N   1      35.191  13.082  17.598  0.00  0.00     0.048 C 
HETATM   26  C   UNK N   1      34.444  12.197  15.390  0.00  0.00     0.008 A 
HETATM   27  C   UNK N   1      34.558  12.121  14.002  0.00  0.00     0.026 A 
ENDBRANCH  18  21
ENDBRANCH  16  18
ENDBRANCH  15  16
ENDBRANCH   1  15
TORSDOF 8
ENDMDL
MODEL 6
REMARK VINA RESULT:      -6.3     13.304     16.138
REMARK  8 active torsions:
REMARK  status: ('A' for Active; 'I' for Inactive)
REMARK       I    between atoms: C_2  and  N_3 
REMARK    1  A    between atoms: C_2  and  O_11 
REMARK    2  A    between atoms: N_3  and  C_4 
REMARK    3  A    between atoms: O_11  and  C_12 
REMARK    4  A    between atoms: C_12  and  C_13 
REMARK    5  A    between atoms: C_13  and  C_14 
REMARK    6  A    between atoms: C_14  and  N_15 
REMARK    7  A    between atoms: N_15  and  S_16 
REMARK    8  A    between atoms: S_16  and  C_19 
ROOT
HETATM    1  C   UNK N   1      20.234  16.496   1.361  0.00  0.00     0.047 C 
ENDROOT
BRANCH   1   2
HETATM    2  C   UNK N   1      20.630  15.584   2.516  0.00  0.00     0.182 C 
BRANCH   2   3
HETATM    3  O   UNK N   1      19.497  15.100   3.126  0.00  0.00    -0.304 OA
BRANCH   3   4
HETATM    4  C   UNK N   1      19.385  14.885   4.459  0.00  0.00     0.365 C 
HETATM    5  O   UNK N   1      18.347  14.417   4.890  0.00  0.00    -0.238 OA
HETATM    6  N   UNK N   1      20.410  15.215   5.303  0.00  0.00    -0.303 N 
HETATM    7  H   UNK N   1      21.210  15.626   4.902  0.00  0.00     0.171 HD
BRANCH   6   8
HETATM    8  C   UNK N   1      20.414  15.011   6.717  0.00  0.00     0.039 A 
HETATM    9  C   UNK N   1      19.890  15.956   7.610  0.00  0.00     0.046 A 
HETATM   10  C   UNK N   1      19.911  15.702   8.983  0.00  0.00     0.090 A 
HETATM   11  N   UNK N   1      20.440  14.540   9.451  0.00  0.00    -0.375 N 
HETATM   12  C   UNK N   1      20.954  13.605   8.608  0.00  0.00     0.090 A 
ATOM     13  HN  UNK N   1      20.452  14.366  10.457  1.00  0.00     0.164 HD
HETATM   14  C   UNK N   1      20.946  13.823   7.227  0.00  0.00     0.046 A 
ENDBRANCH   6   8
ENDBRANCH   3   4
ENDBRANCH   2   3
ENDBRANCH   1   2
BRANCH   1  15
HETATM   15  C   UNK N   1      19.861  17.888   1.860  0.00  0.00     0.134 C 
BRANCH  15  16
HETATM   16  N   UNK N   1      20.317  18.059   3.231  0.00  0.00    -0.315 N 
HETATM   17  H   UNK N   1      20.064  17.466   4.022  0.00  0.00     0.172 HD
BRANCH  16  18
HETATM   18  S   UNK N   1      21.383  19.473   3.291  0.00  0.00     0.258 S 
HETATM   19  O   UNK N   1      20.556  20.755   3.465  0.00  0.00    -0.201 OA
HETATM   20  O   UNK N   1      21.351  19.302   4.815  0.00  0.00    -0.201 OA
BRANCH  18  21
HETATM   21  C   UNK N   1      23.158  19.592   3.530  0.00  0.00     0.079 A 
HETATM   22  C   UNK N   1      23.928  20.519   2.816  0.00  0.00     0.026 A 
HETATM   23  C   UNK N   1      25.322  20.528   2.962  0.00  0.00     0.008 A 
HETATM   24  C   UNK N   1      25.944  19.607   3.813  0.00  0.00    -0.062 A 
HETATM   25  C   UNK N   1      27.424  19.595   3.952  0.00  0.00     0.048 C 
HETATM   26  C   UNK N   1      25.175  18.688   4.530  0.00  0.00     0.008 A 
HETATM   27  C   UNK N   1      23.788  18.680   4.388  0.00  0.00     0.026 A 
ENDBRANCH  18  21
ENDBRANCH  16  18
ENDBRANCH  15  16
ENDBRANCH   1  15
TORSDOF 8
ENDMDL
MODEL 7
REMARK VINA RESULT:      -6.2      2.568      9.486
REMARK  8 active torsions:
REMARK  status: ('A' for Active; 'I' for Inactive)
REMARK       I    between atoms: C_2  and  N_3 
REMARK    1  A    between atoms: C_2  and  O_11 
REMARK    2  A    between atoms: N_3  and  C_4 
REMARK    3  A    between atoms: O_11  and  C_12 
REMARK    4  A    between atoms: C_12  and  C_13 
REMARK    5  A    between atoms: C_13  and  C_14 
REMARK    6  A    between atoms: C_14  and  N_15 
REMARK    7  A    between atoms: N_15  and  S_16 
REMARK    8  A    between atoms: S_16  and  C_19 
ROOT
HETATM    1  C   UNK N   1      36.002  15.118  10.290  0.00  0.00     0.047 C 
ENDROOT
BRANCH   1   2
HETATM    2  C   UNK N   1      35.385  14.060  11.196  0.00  0.00     0.182 C 
BRANCH   2   3
HETATM    3  O   UNK N   1      36.093  13.995  12.373  0.00  0.00    -0.304 OA
BRANCH   3   4
HETATM    4  C   UNK N   1      35.626  13.427  13.511  0.00  0.00     0.365 C 
HETATM    5  O   UNK N   1      34.488  12.996  13.524  0.00  0.00    -0.238 OA
HETATM    6  N   UNK N   1      36.412  13.367  14.629  0.00  0.00    -0.303 N 
HETATM    7  H   UNK N   1      37.310  13.767  14.571  0.00  0.00     0.171 HD
BRANCH   6   8
HETATM    8  C   UNK N   1      36.037  12.771  15.872  0.00  0.00     0.039 A 
HETATM    9  C   UNK N   1      36.218  11.404  16.131  0.00  0.00     0.046 A 
HETATM   10  C   UNK N   1      35.843  10.876  17.367  0.00  0.00     0.090 A 
HETATM   11  N   UNK N   1      35.300  11.684  18.316  0.00  0.00    -0.375 N 
HETATM   12  C   UNK N   1      35.115  13.013  18.093  0.00  0.00     0.090 A 
ATOM     13  HN  UNK N   1      35.027  11.285  19.215  1.00  0.00     0.164 HD
HETATM   14  C   UNK N   1      35.483  13.579  16.869  0.00  0.00     0.046 A 
ENDBRANCH   6   8
ENDBRANCH   3   4
ENDBRANCH   2   3
ENDBRANCH   1   2
BRANCH   1  15
HETATM   15  C   UNK N   1      34.927  15.960   9.611  0.00  0.00     0.134 C 
BRANCH  15  16
HETATM   16  N   UNK N   1      34.920  15.691   8.181  0.00  0.00    -0.315 N 
HETATM   17  H   UNK N   1      35.429  14.942   7.712  0.00  0.00     0.172 HD
BRANCH  16  18
HETATM   18  S   UNK N   1      33.876  16.888   7.395  0.00  0.00     0.258 S 
HETATM   19  O   UNK N   1      34.541  17.414   6.115  0.00  0.00    -0.201 OA
HETATM   20  O   UNK N   1      33.328  15.716   6.572  0.00  0.00    -0.201 OA
BRANCH  18  21
HETATM   21  C   UNK N   1      32.142  17.277   7.649  0.00  0.00     0.079 A 
HETATM   22  C   UNK N   1      31.166  16.890   6.721  0.00  0.00     0.026 A 
HETATM   23  C   UNK N   1      29.834  17.283   6.905  0.00  0.00     0.008 A 
HETATM   24  C   UNK N   1      29.480  18.068   8.010  0.00  0.00    -0.062 A 
HETATM   25  C   UNK N   1      28.073  18.511   8.196  0.00  0.00     0.048 C 
HETATM   26  C   UNK N   1      30.452  18.447   8.938  0.00  0.00     0.008 A 
HETATM   27  C   UNK N   1      31.778  18.053   8.757  0.00  0.00     0.026 A 
ENDBRANCH  18  21
ENDBRANCH  16  18
ENDBRANCH  15  16
ENDBRANCH   1  15
TORSDOF 8
ENDMDL
MODEL 8
REMARK VINA RESULT:      -6.0      2.072      2.437
REMARK  8 active torsions:
REMARK  status: ('A' for Active; 'I' for Inactive)
REMARK       I    between atoms: C_2  and  N_3 
REMARK    1  A    between atoms: C_2  and  O_11 
REMARK    2  A    between atoms: N_3  and  C_4 
REMARK    3  A    between atoms: O_11  and  C_12 
REMARK    4  A    between atoms: C_12  and  C_13 
REMARK    5  A    between atoms: C_13  and  C_14 
REMARK    6  A    between atoms: C_14  and  N_15 
REMARK    7  A    between atoms: N_15  and  S_16 
REMARK    8  A    between atoms: S_16  and  C_19 
ROOT
HETATM    1  C   UNK N   1      35.598  13.587  10.554  0.00  0.00     0.047 C 
ENDROOT
BRANCH   1   2
HETATM    2  C   UNK N   1      34.674  14.621   9.922  0.00  0.00     0.182 C 
BRANCH   2   3
HETATM    3  O   UNK N   1      35.101  14.896   8.644  0.00  0.00    -0.304 OA
BRANCH   3   4
HETATM    4  C   UNK N   1      34.271  15.178   7.610  0.00  0.00     0.365 C 
HETATM    5  O   UNK N   1      33.953  14.279   6.853  0.00  0.00    -0.238 OA
HETATM    6  N   UNK N   1      33.824  16.455   7.409  0.00  0.00    -0.303 N 
HETATM    7  H   UNK N   1      34.145  17.148   8.030  0.00  0.00     0.171 HD
BRANCH   6   8
HETATM    8  C   UNK N   1      32.930  16.864   6.373  0.00  0.00     0.039 A 
HETATM    9  C   UNK N   1      33.387  17.318   5.127  0.00  0.00     0.046 A 
HETATM   10  C   UNK N   1      32.468  17.695   4.145  0.00  0.00     0.090 A 
HETATM   11  N   UNK N   1      31.134  17.625   4.398  0.00  0.00    -0.375 N 
HETATM   12  C   UNK N   1      30.663  17.187   5.597  0.00  0.00     0.090 A 
ATOM     13  HN  UNK N   1      30.473  17.906   3.674  1.00  0.00     0.164 HD
HETATM   14  C   UNK N   1      31.552  16.796   6.602  0.00  0.00     0.046 A 
ENDBRANCH   6   8
ENDBRANCH   3   4
ENDBRANCH   2   3
ENDBRANCH   1   2
BRANCH   1  15
HETATM   15  C   UNK N   1      34.977  12.987  11.811  0.00  0.00     0.134 C 
BRANCH  15  16
HETATM   16  N   UNK N   1      35.989  12.259  12.561  0.00  0.00    -0.315 N 
HETATM   17  H   UNK N   1      36.480  11.422  12.245  0.00  0.00     0.172 HD
BRANCH  16  18
HETATM   18  S   UNK N   1      36.221  13.074  14.118  0.00  0.00     0.258 S 
HETATM   19  O   UNK N   1      36.347  14.590  13.910  0.00  0.00    -0.201 OA
HETATM   20  O   UNK N   1      34.697  13.250  14.134  0.00  0.00    -0.201 OA
BRANCH  18  21
HETATM   21  C   UNK N   1      35.983  12.484  15.796  0.00  0.00     0.079 A 
HETATM   22  C   UNK N   1      36.302  11.168  16.156  0.00  0.00     0.026 A 
HETATM   23  C   UNK N   1      36.024  10.713  17.453  0.00  0.00     0.008 A 
HETATM   24  C   UNK N   1      35.422  11.570  18.383  0.00  0.00    -0.062 A 
HETATM   25  C   UNK N   1      35.101  11.086  19.751  0.00  0.00     0.048 C 
HETATM   26  C   UNK N   1      35.113  12.884  18.025  0.00  0.00     0.008 A 
HETATM   27  C   UNK N   1      35.392  13.338  16.735  0.00  0.00     0.026 A 
ENDBRANCH  18  21
ENDBRANCH  16  18
ENDBRANCH  15  16
ENDBRANCH   1  15
TORSDOF 8
ENDMDL
MODEL 9
REMARK VINA RESULT:      -6.0      7.318     11.030
REMARK  8 active torsions:
REMARK  status: ('A' for Active; 'I' for Inactive)
REMARK       I    between atoms: C_2  and  N_3 
REMARK    1  A    between atoms: C_2  and  O_11 
REMARK    2  A    between atoms: N_3  and  C_4 
REMARK    3  A    between atoms: O_11  and  C_12 
REMARK    4  A    between atoms: C_12  and  C_13 
REMARK    5  A    between atoms: C_13  and  C_14 
REMARK    6  A    between atoms: C_14  and  N_15 
REMARK    7  A    between atoms: N_15  and  S_16 
REMARK    8  A    between atoms: S_16  and  C_19 
ROOT
HETATM    1  C   UNK N   1      29.271  13.400   2.352  0.00  0.00     0.047 C 
ENDROOT
BRANCH   1   2
HETATM    2  C   UNK N   1      30.556  13.828   3.051  0.00  0.00     0.182 C 
BRANCH   2   3
HETATM    3  O   UNK N   1      30.450  13.574   4.398  0.00  0.00    -0.304 OA
BRANCH   3   4
HETATM    4  C   UNK N   1      31.093  14.284   5.358  0.00  0.00     0.365 C 
HETATM    5  O   UNK N   1      31.624  13.682   6.273  0.00  0.00    -0.238 OA
HETATM    6  N   UNK N   1      31.117  15.650   5.309  0.00  0.00    -0.303 N 
HETATM    7  H   UNK N   1      30.638  16.085   4.567  0.00  0.00     0.171 HD
BRANCH   6   8
HETATM    8  C   UNK N   1      31.783  16.498   6.247  0.00  0.00     0.039 A 
HETATM    9  C   UNK N   1      31.186  16.891   7.454  0.00  0.00     0.046 A 
HETATM   10  C   UNK N   1      31.885  17.713   8.340  0.00  0.00     0.090 A 
HETATM   11  N   UNK N   1      33.141  18.134   8.031  0.00  0.00    -0.375 N 
HETATM   12  C   UNK N   1      33.744  17.767   6.868  0.00  0.00     0.090 A 
ATOM     13  HN  UNK N   1      33.640  18.736   8.685  1.00  0.00     0.164 HD
HETATM   14  C   UNK N   1      33.077  16.941   5.959  0.00  0.00     0.046 A 
ENDBRANCH   6   8
ENDBRANCH   3   4
ENDBRANCH   2   3
ENDBRANCH   1   2
BRANCH   1  15
HETATM   15  C   UNK N   1      28.414  14.606   1.985  0.00  0.00     0.134 C 
BRANCH  15  16
HETATM   16  N   UNK N   1      28.924  15.795   2.650  0.00  0.00    -0.315 N 
HETATM   17  H   UNK N   1      29.893  16.114   2.643  0.00  0.00     0.172 HD
BRANCH  16  18
HETATM   18  S   UNK N   1      27.575  16.594   3.475  0.00  0.00     0.258 S 
HETATM   19  O   UNK N   1      26.431  15.597   3.711  0.00  0.00    -0.201 OA
HETATM   20  O   UNK N   1      28.213  16.097   4.778  0.00  0.00    -0.201 OA
BRANCH  18  21
HETATM   21  C   UNK N   1      27.493  18.167   4.334  0.00  0.00     0.079 A 
HETATM   22  C   UNK N   1      28.080  18.339   5.595  0.00  0.00     0.026 A 
HETATM   23  C   UNK N   1      27.924  19.554   6.277  0.00  0.00     0.008 A 
HETATM   24  C   UNK N   1      27.178  20.590   5.702  0.00  0.00    -0.062 A 
HETATM   25  C   UNK N   1      26.988  21.871   6.433  0.00  0.00     0.048 C 
HETATM   26  C   UNK N   1      26.601  20.421   4.443  0.00  0.00     0.008 A 
HETATM   27  C   UNK N   1      26.757  19.213   3.762  0.00  0.00     0.026 A 
ENDBRANCH  18  21
ENDBRANCH  16  18
ENDBRANCH  15  16
ENDBRANCH   1  15
TORSDOF 8
ENDMDL
