MODEL 1
REMARK VINA RESULT:      -6.4      0.000      0.000
REMARK  6 active torsions:
REMARK  status: ('A' for Active; 'I' for Inactive)
REMARK    1  A    between atoms: O_8  and  C_7 
REMARK    2  A    between atoms: C_9  and  O_8 
REMARK    3  A    between atoms: C_9  and  C_10 
REMARK    4  A    between atoms: C_10  and  C_12 
REMARK    5  A    between atoms: C_10  and  O_11 
REMARK    6  A    between atoms: N_13  and  C_12 
ROOT
HETATM    1  C   UNK N   1      35.718  14.112  11.453  0.00  0.00     0.209 C 
ENDROOT
BRANCH   1   2
HETATM    2  C   UNK N   1      34.750  15.063  10.770  0.00  0.00     0.170 C 
BRANCH   2   3
HETATM    3  C   UNK N   1      34.706  14.794   9.265  0.00  0.00     0.306 C 
BRANCH   3   4
HETATM    4  N   UNK N   1      34.133  15.939   8.568  0.00  0.00     0.095 N 
HETATM    5  C   UNK N   1      34.763  17.168   9.046  0.00  0.00     0.298 C 
HETATM    6  C   UNK N   1      34.211  18.343   8.227  0.00  0.00     0.198 C 
HETATM    7  O   UNK N   1      34.546  18.170   6.868  0.00  0.00    -0.388 OA
HETATM    8  C   UNK N   1      33.866  17.026   6.411  0.00  0.00     0.198 C 
HETATM    9  C   UNK N   1      34.405  15.794   7.137  0.00  0.00     0.298 C 
ENDBRANCH   3   4
ENDBRANCH   2   3
BRANCH   2  10
HETATM   10  O   UNK N   1      33.486  14.854  11.324  0.00  0.00    -0.392 OA
HETATM   11  H   UNK N   1      32.863  14.208  10.957  0.00  0.00     0.210 HD
ENDBRANCH   2  10
ENDBRANCH   1   2
BRANCH   1  12
HETATM   12  O   UNK N   1      35.980  14.498  12.749  0.00  0.00    -0.348 OA
BRANCH  12  13
HETATM   13  C   UNK N   1      35.677  13.712  13.817  0.00  0.00     0.075 A 
HETATM   14  C   UNK N   1      36.246  13.989  15.071  0.00  0.00    -0.029 A 
HETATM   15  C   UNK N   1      35.947  13.178  16.173  0.00  0.00     0.010 A 
HETATM   16  C   UNK N   1      37.170  15.144  15.250  0.00  0.00     0.051 C 
HETATM   17  C   UNK N   1      35.082  12.090  16.033  0.00  0.00     0.007 A 
HETATM   18  C   UNK N   1      34.510  11.808  14.792  0.00  0.00    -0.059 A 
HETATM   19  C   UNK N   1      33.592  10.648  14.642  0.00  0.00     0.048 C 
HETATM   20  C   UNK N   1      34.803  12.614  13.688  0.00  0.00     0.044 A 
ENDBRANCH  12  13
ENDBRANCH   1  12
TORSDOF 6
ENDMDL
MODEL 2
REMARK VINA RESULT:      -6.4      0.607      2.235
REMARK  6 active torsions:
REMARK  status: ('A' for Active; 'I' for Inactive)
REMARK    1  A    between atoms: O_8  and  C_7 
REMARK    2  A    between atoms: C_9  and  O_8 
REMARK    3  A    between atoms: C_9  and  C_10 
REMARK    4  A    between atoms: C_10  and  C_12 
REMARK    5  A    between atoms: C_10  and  O_11 
REMARK    6  A    between atoms: N_13  and  C_12 
ROOT
HETATM    1  C   UNK N   1      35.721  14.215  11.344  0.00  0.00     0.209 C 
ENDROOT
BRANCH   1   2
HETATM    2  C   UNK N   1      34.675  15.085  10.668  0.00  0.00     0.170 C 
BRANCH   2   3
HETATM    3  C   UNK N   1      34.589  14.758   9.175  0.00  0.00     0.306 C 
BRANCH   3   4
HETATM    4  N   UNK N   1      34.040  15.894   8.445  0.00  0.00     0.095 N 
HETATM    5  C   UNK N   1      34.612  17.134   8.965  0.00  0.00     0.298 C 
HETATM    6  C   UNK N   1      34.091  18.300   8.114  0.00  0.00     0.198 C 
HETATM    7  O   UNK N   1      34.516  18.139   6.780  0.00  0.00    -0.388 OA
HETATM    8  C   UNK N   1      33.891  16.982   6.277  0.00  0.00     0.198 C 
HETATM    9  C   UNK N   1      34.407  15.759   7.034  0.00  0.00     0.298 C 
ENDBRANCH   3   4
ENDBRANCH   2   3
BRANCH   2  10
HETATM   10  O   UNK N   1      33.446  14.827  11.278  0.00  0.00    -0.392 OA
HETATM   11  H   UNK N   1      33.275  14.007  11.765  0.00  0.00     0.210 HD
ENDBRANCH   2  10
ENDBRANCH   1   2
BRANCH   1  12
HETATM   12  O   UNK N   1      35.152  13.355  12.258  0.00  0.00    -0.348 OA
BRANCH  12  13
HETATM   13  C   UNK N   1      35.487  13.371  13.576  0.00  0.00     0.075 A 
HETATM   14  C   UNK N   1      34.997  12.368  14.431  0.00  0.00    -0.029 A 
HETATM   15  C   UNK N   1      35.329  12.383  15.792  0.00  0.00     0.010 A 
HETATM   16  C   UNK N   1      34.126  11.280  13.909  0.00  0.00     0.051 C 
HETATM   17  C   UNK N   1      36.146  13.392  16.307  0.00  0.00     0.007 A 
HETATM   18  C   UNK N   1      36.639  14.391  15.466  0.00  0.00    -0.059 A 
HETATM   19  C   UNK N   1      37.506  15.466  16.014  0.00  0.00     0.048 C 
HETATM   20  C   UNK N   1      36.313  14.381  14.106  0.00  0.00     0.044 A 
ENDBRANCH  12  13
ENDBRANCH   1  12
TORSDOF 6
ENDMDL
MODEL 3
REMARK VINA RESULT:      -6.0      2.264      3.536
REMARK  6 active torsions:
REMARK  status: ('A' for Active; 'I' for Inactive)
REMARK    1  A    between atoms: O_8  and  C_7 
REMARK    2  A    between atoms: C_9  and  O_8 
REMARK    3  A    between atoms: C_9  and  C_10 
REMARK    4  A    between atoms: C_10  and  C_12 
REMARK    5  A    between atoms: C_10  and  O_11 
REMARK    6  A    between atoms: N_13  and  C_12 
ROOT
HETATM    1  C   UNK N   1      36.052  13.439  14.701  0.00  0.00     0.209 C 
ENDROOT
BRANCH   1   2
HETATM    2  C   UNK N   1      35.472  13.665  13.314  0.00  0.00     0.170 C 
BRANCH   2   3
HETATM    3  C   UNK N   1      36.546  13.455  12.244  0.00  0.00     0.306 C 
BRANCH   3   4
HETATM    4  N   UNK N   1      36.414  14.463  11.199  0.00  0.00     0.095 N 
HETATM    5  C   UNK N   1      35.658  13.910  10.077  0.00  0.00     0.298 C 
HETATM    6  C   UNK N   1      35.452  15.023   9.039  0.00  0.00     0.198 C 
HETATM    7  O   UNK N   1      34.701  16.069   9.611  0.00  0.00    -0.388 OA
HETATM    8  C   UNK N   1      35.482  16.635  10.636  0.00  0.00     0.198 C 
HETATM    9  C   UNK N   1      35.681  15.605  11.747  0.00  0.00     0.298 C 
ENDBRANCH   3   4
ENDBRANCH   2   3
BRANCH   2  10
HETATM   10  O   UNK N   1      34.438  12.746  13.130  0.00  0.00    -0.392 OA
HETATM   11  H   UNK N   1      33.511  13.021  13.060  0.00  0.00     0.210 HD
ENDBRANCH   2  10
ENDBRANCH   1   2
BRANCH   1  12
HETATM   12  O   UNK N   1      35.068  13.415  15.664  0.00  0.00    -0.348 OA
BRANCH  12  13
HETATM   13  C   UNK N   1      35.125  12.586  16.740  0.00  0.00     0.075 A 
HETATM   14  C   UNK N   1      35.241  13.127  18.032  0.00  0.00    -0.029 A 
HETATM   15  C   UNK N   1      35.311  12.279  19.145  0.00  0.00     0.010 A 
HETATM   16  C   UNK N   1      35.290  14.601  18.239  0.00  0.00     0.051 C 
HETATM   17  C   UNK N   1      35.266  10.893  18.979  0.00  0.00     0.007 A 
HETATM   18  C   UNK N   1      35.148  10.346  17.700  0.00  0.00    -0.059 A 
HETATM   19  C   UNK N   1      35.103   8.871  17.522  0.00  0.00     0.048 C 
HETATM   20  C   UNK N   1      35.077  11.187  16.585  0.00  0.00     0.044 A 
ENDBRANCH  12  13
ENDBRANCH   1  12
TORSDOF 6
ENDMDL
MODEL 4
REMARK VINA RESULT:      -6.0      1.387      2.624
REMARK  6 active torsions:
REMARK  status: ('A' for Active; 'I' for Inactive)
REMARK    1  A    between atoms: O_8  and  C_7 
REMARK    2  A    between atoms: C_9  and  O_8 
REMARK    3  A    between atoms: C_9  and  C_10 
REMARK    4  A    between atoms: C_10  and  C_12 
REMARK    5  A    between atoms: C_10  and  O_11 
REMARK    6  A    between atoms: N_13  and  C_12 
ROOT
HETATM    1  C   UNK N   1      36.435  13.948  11.701  0.00  0.00     0.209 C 
ENDROOT
BRANCH   1   2
HETATM    2  C   UNK N   1      36.214  15.017  10.643  0.00  0.00     0.170 C 
BRANCH   2   3
HETATM    3  C   UNK N   1      34.776  15.539  10.700  0.00  0.00     0.306 C 
BRANCH   3   4
HETATM    4  N   UNK N   1      34.287  15.805   9.353  0.00  0.00     0.095 N 
HETATM    5  C   UNK N   1      34.428  17.228   9.053  0.00  0.00     0.298 C 
HETATM    6  C   UNK N   1      33.998  17.459   7.597  0.00  0.00     0.198 C 
HETATM    7  O   UNK N   1      34.845  16.736   6.734  0.00  0.00    -0.388 OA
HETATM    8  C   UNK N   1      34.634  15.367   6.988  0.00  0.00     0.198 C 
HETATM    9  C   UNK N   1      35.100  15.039   8.406  0.00  0.00     0.298 C 
ENDBRANCH   3   4
ENDBRANCH   2   3
BRANCH   2  10
HETATM   10  O   UNK N   1      37.104  16.061  10.901  0.00  0.00    -0.392 OA
HETATM   11  H   UNK N   1      37.744  16.026  11.628  0.00  0.00     0.210 HD
ENDBRANCH   2  10
ENDBRANCH   1   2
BRANCH   1  12
HETATM   12  O   UNK N   1      35.425  13.011  11.693  0.00  0.00    -0.348 OA
BRANCH  12  13
HETATM   13  C   UNK N   1      34.992  12.402  12.830  0.00  0.00     0.075 A 
HETATM   14  C   UNK N   1      34.369  11.144  12.752  0.00  0.00    -0.029 A 
HETATM   15  C   UNK N   1      33.911  10.515  13.916  0.00  0.00     0.010 A 
HETATM   16  C   UNK N   1      34.189  10.463  11.440  0.00  0.00     0.051 C 
HETATM   17  C   UNK N   1      34.069  11.131  15.159  0.00  0.00     0.007 A 
HETATM   18  C   UNK N   1      34.688  12.379  15.247  0.00  0.00    -0.059 A 
HETATM   19  C   UNK N   1      34.853  13.037  16.569  0.00  0.00     0.048 C 
HETATM   20  C   UNK N   1      35.149  13.012  14.089  0.00  0.00     0.044 A 
ENDBRANCH  12  13
ENDBRANCH   1  12
TORSDOF 6
ENDMDL
MODEL 5
REMARK VINA RESULT:      -5.8      6.629      8.929
REMARK  6 active torsions:
REMARK  status: ('A' for Active; 'I' for Inactive)
REMARK    1  A    between atoms: O_8  and  C_7 
REMARK    2  A    between atoms: C_9  and  O_8 
REMARK    3  A    between atoms: C_9  and  C_10 
REMARK    4  A    between atoms: C_10  and  C_12 
REMARK    5  A    between atoms: C_10  and  O_11 
REMARK    6  A    between atoms: N_13  and  C_12 
ROOT
HETATM    1  C   UNK N   1      30.317  17.248   8.718  0.00  0.00     0.209 C 
ENDROOT
BRANCH   1   2
HETATM    2  C   UNK N   1      29.661  18.573   9.071  0.00  0.00     0.170 C 
BRANCH   2   3
HETATM    3  C   UNK N   1      28.229  18.622   8.533  0.00  0.00     0.306 C 
BRANCH   3   4
HETATM    4  N   UNK N   1      28.238  18.966   7.117  0.00  0.00     0.095 N 
HETATM    5  C   UNK N   1      27.578  17.911   6.351  0.00  0.00     0.298 C 
HETATM    6  C   UNK N   1      27.517  18.347   4.881  0.00  0.00     0.198 C 
HETATM    7  O   UNK N   1      26.750  19.524   4.769  0.00  0.00    -0.388 OA
HETATM    8  C   UNK N   1      27.444  20.544   5.447  0.00  0.00     0.198 C 
HETATM    9  C   UNK N   1      27.495  20.215   6.939  0.00  0.00     0.298 C 
ENDBRANCH   3   4
ENDBRANCH   2   3
BRANCH   2  10
HETATM   10  O   UNK N   1      29.646  18.683  10.462  0.00  0.00    -0.392 OA
HETATM   11  H   UNK N   1      29.136  19.369  10.919  0.00  0.00     0.210 HD
ENDBRANCH   2  10
ENDBRANCH   1   2
BRANCH   1  12
HETATM   12  O   UNK N   1      31.620  17.421   8.308  0.00  0.00    -0.348 OA
BRANCH  12  13
HETATM   13  C   UNK N   1      31.994  17.309   7.005  0.00  0.00     0.075 A 
HETATM   14  C   UNK N   1      33.330  17.545   6.640  0.00  0.00    -0.029 A 
HETATM   15  C   UNK N   1      33.720  17.441   5.299  0.00  0.00     0.010 A 
HETATM   16  C   UNK N   1      34.348  17.904   7.665  0.00  0.00     0.051 C 
HETATM   17  C   UNK N   1      32.785  17.105   4.317  0.00  0.00     0.007 A 
HETATM   18  C   UNK N   1      31.456  16.866   4.670  0.00  0.00    -0.059 A 
HETATM   19  C   UNK N   1      30.460  16.511   3.625  0.00  0.00     0.048 C 
HETATM   20  C   UNK N   1      31.060  16.967   6.007  0.00  0.00     0.044 A 
ENDBRANCH  12  13
ENDBRANCH   1  12
TORSDOF 6
ENDMDL
MODEL 6
REMARK VINA RESULT:      -5.8     17.349     20.507
REMARK  6 active torsions:
REMARK  status: ('A' for Active; 'I' for Inactive)
REMARK    1  A    between atoms: O_8  and  C_7 
REMARK    2  A    between atoms: C_9  and  O_8 
REMARK    3  A    between atoms: C_9  and  C_10 
REMARK    4  A    between atoms: C_10  and  C_12 
REMARK    5  A    between atoms: C_10  and  O_11 
REMARK    6  A    between atoms: N_13  and  C_12 
ROOT
HETATM    1  C   UNK N   1      28.590  24.217  -3.469  0.00  0.00     0.209 C 
ENDROOT
BRANCH   1   2
HETATM    2  C   UNK N   1      29.061  23.003  -2.685  0.00  0.00     0.170 C 
BRANCH   2   3
HETATM    3  C   UNK N   1      30.527  23.164  -2.278  0.00  0.00     0.306 C 
BRANCH   3   4
HETATM    4  N   UNK N   1      31.358  22.223  -3.018  0.00  0.00     0.095 N 
HETATM    5  C   UNK N   1      30.514  21.199  -3.630  0.00  0.00     0.298 C 
HETATM    6  C   UNK N   1      31.406  20.283  -4.480  0.00  0.00     0.198 C 
HETATM    7  O   UNK N   1      32.011  21.035  -5.508  0.00  0.00    -0.388 OA
HETATM    8  C   UNK N   1      32.877  21.960  -4.897  0.00  0.00     0.198 C 
HETATM    9  C   UNK N   1      32.057  22.955  -4.076  0.00  0.00     0.298 C 
ENDBRANCH   3   4
ENDBRANCH   2   3
BRANCH   2  10
HETATM   10  O   UNK N   1      28.264  22.897  -1.545  0.00  0.00    -0.392 OA
HETATM   11  H   UNK N   1      28.620  22.601  -0.693  0.00  0.00     0.210 HD
ENDBRANCH   2  10
ENDBRANCH   1   2
BRANCH   1  12
HETATM   12  O   UNK N   1      27.221  24.357  -3.413  0.00  0.00    -0.348 OA
BRANCH  12  13
HETATM   13  C   UNK N   1      26.569  25.374  -4.038  0.00  0.00     0.075 A 
HETATM   14  C   UNK N   1      25.810  25.110  -5.192  0.00  0.00    -0.029 A 
HETATM   15  C   UNK N   1      25.144  26.154  -5.847  0.00  0.00     0.010 A 
HETATM   16  C   UNK N   1      25.699  23.727  -5.732  0.00  0.00     0.051 C 
HETATM   17  C   UNK N   1      25.229  27.460  -5.361  0.00  0.00     0.007 A 
HETATM   18  C   UNK N   1      25.979  27.732  -4.215  0.00  0.00    -0.059 A 
HETATM   19  C   UNK N   1      26.073  29.122  -3.699  0.00  0.00     0.048 C 
HETATM   20  C   UNK N   1      26.646  26.695  -3.555  0.00  0.00     0.044 A 
ENDBRANCH  12  13
ENDBRANCH   1  12
TORSDOF 6
ENDMDL
MODEL 7
REMARK VINA RESULT:      -5.8      1.661      2.984
REMARK  6 active torsions:
REMARK  status: ('A' for Active; 'I' for Inactive)
REMARK    1  A    between atoms: O_8  and  C_7 
REMARK    2  A    between atoms: C_9  and  O_8 
REMARK    3  A    between atoms: C_9  and  C_10 
REMARK    4  A    between atoms: C_10  and  C_12 
REMARK    5  A    between atoms: C_10  and  O_11 
REMARK    6  A    between atoms: N_13  and  C_12 
ROOT
HETATM    1  C   UNK N   1      35.356  13.614  13.085  0.00  0.00     0.209 C 
ENDROOT
BRANCH   1   2
HETATM    2  C   UNK N   1      34.948  13.872  11.644  0.00  0.00     0.170 C 
BRANCH   2   3
HETATM    3  C   UNK N   1      36.182  14.106  10.771  0.00  0.00     0.306 C 
BRANCH   3   4
HETATM    4  N   UNK N   1      35.899  15.127   9.769  0.00  0.00     0.095 N 
HETATM    5  C   UNK N   1      35.341  14.499   8.573  0.00  0.00     0.298 C 
HETATM    6  C   UNK N   1      34.964  15.606   7.578  0.00  0.00     0.198 C 
HETATM    7  O   UNK N   1      33.977  16.436   8.147  0.00  0.00    -0.388 OA
HETATM    8  C   UNK N   1      34.562  17.088   9.249  0.00  0.00     0.198 C 
HETATM    9  C   UNK N   1      34.911  16.056  10.320  0.00  0.00     0.298 C 
ENDBRANCH   3   4
ENDBRANCH   2   3
BRANCH   2  10
HETATM   10  O   UNK N   1      34.255  12.749  11.190  0.00  0.00    -0.392 OA
HETATM   11  H   UNK N   1      34.337  12.425  10.280  0.00  0.00     0.210 HD
ENDBRANCH   2  10
ENDBRANCH   1   2
BRANCH   1  12
HETATM   12  O   UNK N   1      34.537  12.684  13.686  0.00  0.00    -0.348 OA
BRANCH  12  13
HETATM   13  C   UNK N   1      34.752  12.238  14.953  0.00  0.00     0.075 A 
HETATM   14  C   UNK N   1      34.836  10.857  15.201  0.00  0.00    -0.029 A 
HETATM   15  C   UNK N   1      35.047  10.390  16.505  0.00  0.00     0.010 A 
HETATM   16  C   UNK N   1      34.707   9.874  14.090  0.00  0.00     0.051 C 
HETATM   17  C   UNK N   1      35.173  11.291  17.565  0.00  0.00     0.007 A 
HETATM   18  C   UNK N   1      35.093  12.664  17.328  0.00  0.00    -0.059 A 
HETATM   19  C   UNK N   1      35.224  13.623  18.456  0.00  0.00     0.048 C 
HETATM   20  C   UNK N   1      34.884  13.138  16.029  0.00  0.00     0.044 A 
ENDBRANCH  12  13
ENDBRANCH   1  12
TORSDOF 6
ENDMDL
MODEL 8
REMARK VINA RESULT:      -5.7      6.341     10.233
REMARK  6 active torsions:
REMARK  status: ('A' for Active; 'I' for Inactive)
REMARK    1  A    between atoms: O_8  and  C_7 
REMARK    2  A    between atoms: C_9  and  O_8 
REMARK    3  A    between atoms: C_9  and  C_10 
REMARK    4  A    between atoms: C_10  and  C_12 
REMARK    5  A    between atoms: C_10  and  O_11 
REMARK    6  A    between atoms: N_13  and  C_12 
ROOT
HETATM    1  C   UNK N   1      29.973  17.215   5.222  0.00  0.00     0.209 C 
ENDROOT
BRANCH   1   2
HETATM    2  C   UNK N   1      30.670  16.021   5.854  0.00  0.00     0.170 C 
BRANCH   2   3
HETATM    3  C   UNK N   1      30.878  16.253   7.352  0.00  0.00     0.306 C 
BRANCH   3   4
HETATM    4  N   UNK N   1      32.291  16.476   7.632  0.00  0.00     0.095 N 
HETATM    5  C   UNK N   1      33.085  16.135   6.454  0.00  0.00     0.298 C 
HETATM    6  C   UNK N   1      34.553  16.474   6.746  0.00  0.00     0.198 C 
HETATM    7  O   UNK N   1      34.681  17.857   6.984  0.00  0.00    -0.388 OA
HETATM    8  C   UNK N   1      33.974  18.146   8.166  0.00  0.00     0.198 C 
HETATM    9  C   UNK N   1      32.484  17.895   7.938  0.00  0.00     0.298 C 
ENDBRANCH   3   4
ENDBRANCH   2   3
BRANCH   2  10
HETATM   10  O   UNK N   1      29.859  14.902   5.659  0.00  0.00    -0.392 OA
HETATM   11  H   UNK N   1      29.928  14.347   4.867  0.00  0.00     0.210 HD
ENDBRANCH   2  10
ENDBRANCH   1   2
BRANCH   1  12
HETATM   12  O   UNK N   1      28.688  17.361   5.696  0.00  0.00    -0.348 OA
BRANCH  12  13
HETATM   13  C   UNK N   1      28.011  18.537   5.608  0.00  0.00     0.075 A 
HETATM   14  C   UNK N   1      27.842  19.333   6.754  0.00  0.00    -0.029 A 
HETATM   15  C   UNK N   1      27.137  20.540   6.673  0.00  0.00     0.010 A 
HETATM   16  C   UNK N   1      28.408  18.910   8.065  0.00  0.00     0.051 C 
HETATM   17  C   UNK N   1      26.597  20.960   5.455  0.00  0.00     0.007 A 
HETATM   18  C   UNK N   1      26.761  20.178   4.311  0.00  0.00    -0.059 A 
HETATM   19  C   UNK N   1      26.184  20.624   3.015  0.00  0.00     0.048 C 
HETATM   20  C   UNK N   1      27.465  18.972   4.384  0.00  0.00     0.044 A 
ENDBRANCH  12  13
ENDBRANCH   1  12
TORSDOF 6
ENDMDL
MODEL 9
REMARK VINA RESULT:      -5.7      3.621      5.132
REMARK  6 active torsions:
REMARK  status: ('A' for Active; 'I' for Inactive)
REMARK    1  A    between atoms: O_8  and  C_7 
REMARK    2  A    between atoms: C_9  and  O_8 
REMARK    3  A    between atoms: C_9  and  C_10 
REMARK    4  A    between atoms: C_10  and  C_12 
REMARK    5  A    between atoms: C_10  and  O_11 
REMARK    6  A    between atoms: N_13  and  C_12 
ROOT
HETATM    1  C   UNK N   1      35.827  13.741  14.252  0.00  0.00     0.209 C 
ENDROOT
BRANCH   1   2
HETATM    2  C   UNK N   1      35.589  14.074  12.788  0.00  0.00     0.170 C 
BRANCH   2   3
HETATM    3  C   UNK N   1      36.719  13.515  11.921  0.00  0.00     0.306 C 
BRANCH   3   4
HETATM    4  N   UNK N   1      36.344  12.210  11.391  0.00  0.00     0.095 N 
HETATM    5  C   UNK N   1      36.456  12.221   9.934  0.00  0.00     0.298 C 
HETATM    6  C   UNK N   1      36.151  10.809   9.416  0.00  0.00     0.198 C 
HETATM    7  O   UNK N   1      37.100   9.902   9.929  0.00  0.00    -0.388 OA
HETATM    8  C   UNK N   1      36.920   9.850  11.324  0.00  0.00     0.198 C 
HETATM    9  C   UNK N   1      37.268  11.209  11.929  0.00  0.00     0.298 C 
ENDBRANCH   3   4
ENDBRANCH   2   3
BRANCH   2  10
HETATM   10  O   UNK N   1      34.376  13.495  12.412  0.00  0.00    -0.392 OA
HETATM   11  H   UNK N   1      34.334  12.700  11.859  0.00  0.00     0.210 HD
ENDBRANCH   2  10
ENDBRANCH   1   2
BRANCH   1  12
HETATM   12  O   UNK N   1      34.716  13.166  14.829  0.00  0.00    -0.348 OA
BRANCH  12  13
HETATM   13  C   UNK N   1      34.809  12.249  15.829  0.00  0.00     0.075 A 
HETATM   14  C   UNK N   1      34.572  10.891  15.554  0.00  0.00    -0.029 A 
HETATM   15  C   UNK N   1      34.656   9.943  16.581  0.00  0.00     0.010 A 
HETATM   16  C   UNK N   1      34.231  10.441  14.176  0.00  0.00     0.051 C 
HETATM   17  C   UNK N   1      34.975  10.338  17.882  0.00  0.00     0.007 A 
HETATM   18  C   UNK N   1      35.215  11.684  18.165  0.00  0.00    -0.059 A 
HETATM   19  C   UNK N   1      35.551  12.106  19.549  0.00  0.00     0.048 C 
HETATM   20  C   UNK N   1      35.134  12.636  17.144  0.00  0.00     0.044 A 
ENDBRANCH  12  13
ENDBRANCH   1  12
TORSDOF 6
ENDMDL
