REMARK  6 active torsions:
REMARK  status: ('A' for Active; 'I' for Inactive)
REMARK    1  A    between atoms: O_8  and  C_7 
REMARK    2  A    between atoms: C_9  and  O_8 
REMARK    3  A    between atoms: C_9  and  C_10 
REMARK    4  A    between atoms: C_10  and  C_12 
REMARK    5  A    between atoms: C_10  and  O_11 
REMARK    6  A    between atoms: N_13  and  C_12 
ROOT
HETATM    1  C   UNK N   1       0.902  -0.709   0.426  0.00  0.00     0.209 C 
ENDROOT
BRANCH   1   2
HETATM    2  C   UNK N   1       2.228  -0.793  -0.312  0.00  0.00     0.170 C 
BRANCH   2   3
HETATM    3  C   UNK N   1       3.372  -0.315   0.585  0.00  0.00     0.306 C 
BRANCH   3   4
HETATM    4  N   UNK N   1       4.655  -0.614  -0.039  0.00  0.00     0.095 N 
HETATM    5  C   UNK N   1       5.629   0.412   0.326  0.00  0.00     0.298 C 
HETATM    6  C   UNK N   1       6.990   0.017  -0.264  0.00  0.00     0.198 C 
HETATM    7  O   UNK N   1       7.407  -1.210   0.290  0.00  0.00    -0.388 OA
HETATM    8  C   UNK N   1       6.498  -2.195  -0.140  0.00  0.00     0.198 C 
HETATM    9  C   UNK N   1       5.122  -1.909   0.460  0.00  0.00     0.298 C 
ENDBRANCH   3   4
ENDBRANCH   2   3
BRANCH   2  10
HETATM   10  O   UNK N   1       2.434  -2.127  -0.667  0.00  0.00    -0.392 OA
HETATM   11  H   UNK N   1       1.703  -2.714  -0.913  0.00  0.00     0.210 HD
ENDBRANCH   2  10
ENDBRANCH   1   2
BRANCH   1  12
HETATM   12  O   UNK N   1       0.360   0.555   0.353  0.00  0.00    -0.348 OA
BRANCH  12  13
HETATM   13  C   UNK N   1      -0.974   0.765   0.189  0.00  0.00     0.075 A 
HETATM   14  C   UNK N   1      -1.460   2.075   0.037  0.00  0.00    -0.029 A 
HETATM   15  C   UNK N   1      -2.833   2.300  -0.122  0.00  0.00     0.010 A 
HETATM   16  C   UNK N   1      -0.530   3.238   0.040  0.00  0.00     0.051 C 
HETATM   17  C   UNK N   1      -3.727   1.227  -0.130  0.00  0.00     0.007 A 
HETATM   18  C   UNK N   1      -3.254  -0.078   0.018  0.00  0.00    -0.059 A 
HETATM   19  C   UNK N   1      -4.205  -1.220   0.013  0.00  0.00     0.048 C 
HETATM   20  C   UNK N   1      -1.884  -0.310   0.176  0.00  0.00     0.044 A 
ENDBRANCH  12  13
ENDBRANCH   1  12
TORSDOF 6
