MODEL 1
REMARK VINA RESULT:      -6.7      0.000      0.000
REMARK  7 active torsions:
REMARK  status: ('A' for Active; 'I' for Inactive)
REMARK    1  A    between atoms: C_2  and  C_3 
REMARK       I    between atoms: C_2  and  N_5 
REMARK    2  A    between atoms: C_3  and  S_4 
REMARK    3  A    between atoms: C_6  and  N_5 
REMARK    4  A    between atoms: C_13  and  O_20 
REMARK    5  A    between atoms: C_14  and  O_18 
REMARK    6  A    between atoms: C_15  and  O_16 
REMARK    7  A    between atoms: C_26  and  O_29 
ROOT
HETATM    1  C   UNK N   1      28.458  18.980   7.285  0.00  0.00     0.119 C 
HETATM    2  C   UNK N   1      28.413  17.850   6.226  0.00  0.00    -0.020 A 
HETATM    3  C   UNK N   1      27.254  17.853   5.434  0.00  0.00     0.068 A 
HETATM    4  C   UNK N   1      28.790  18.612   8.728  0.00  0.00     0.034 C 
HETATM    5  C   UNK N   1      29.624  17.391   8.930  0.00  0.00     0.042 C 
HETATM    6  C   UNK N   1      30.862  17.397   8.128  0.00  0.00    -0.041 A 
HETATM    7  C   UNK N   1      32.061  17.550   8.813  0.00  0.00     0.047 A 
HETATM    8  C   UNK N   1      33.288  17.415   8.183  0.00  0.00     0.104 A 
HETATM    9  C   UNK N   1      33.331  17.044   6.816  0.00  0.00     0.136 A 
HETATM   10  C   UNK N   1      32.104  16.911   6.096  0.00  0.00     0.116 A 
HETATM   11  C   UNK N   1      30.847  17.117   6.748  0.00  0.00     0.017 A 
HETATM   12  C   UNK N   1      29.545  17.009   5.966  0.00  0.00    -0.014 A 
HETATM   13  C   UNK N   1      29.575  16.080   4.925  0.00  0.00     0.016 A 
HETATM   14  C   UNK N   1      28.714  15.744   3.904  0.00  0.00     0.042 A 
HETATM   15  C   UNK N   1      27.476  16.238   3.549  0.00  0.00     0.118 A 
HETATM   16  C   UNK N   1      26.781  17.216   4.291  0.00  0.00     0.205 A 
HETATM   17  O   UNK N   1      25.678  17.565   3.914  0.00  0.00    -0.285 OA
ENDROOT
BRANCH   1  18
HETATM   18  N   UNK N   1      27.203  19.727   7.356  0.00  0.00    -0.352 N 
HETATM   19  C   UNK N   1      27.065  20.991   6.851  0.00  0.00     0.227 C 
HETATM   20  O   UNK N   1      28.014  21.551   6.317  0.00  0.00    -0.273 OA
HETATM   21  H   UNK N   1      26.425  19.304   7.786  0.00  0.00     0.163 HD
BRANCH  19  22
HETATM   22  C   UNK N   1      25.733  21.676   6.924  0.00  0.00     0.173 C 
BRANCH  22  23
HETATM   23  S   UNK N   1      25.302  22.180   8.626  0.00  0.00    -0.173 SA
HETATM   24  H   UNK N   1      25.281  23.310   9.383  0.00  0.00     0.102 HD
ENDBRANCH  22  23
ENDBRANCH  19  22
ENDBRANCH   1  18
BRANCH  15  25
HETATM   25  O   UNK N   1      26.966  15.712   2.399  0.00  0.00    -0.352 OA
HETATM   26  C   UNK N   1      26.578  14.406   2.197  0.00  0.00     0.210 C 
ENDBRANCH  15  25
BRANCH  10  27
HETATM   27  O   UNK N   1      32.124  16.607   4.778  0.00  0.00    -0.352 OA
HETATM   28  C   UNK N   1      32.542  17.517   3.837  0.00  0.00     0.210 C 
ENDBRANCH  10  27
BRANCH   9  29
HETATM   29  O   UNK N   1      34.544  16.816   6.243  0.00  0.00    -0.351 OA
HETATM   30  C   UNK N   1      35.158  15.592   6.106  0.00  0.00     0.210 C 
ENDBRANCH   9  29
BRANCH   8  31
HETATM   31  O   UNK N   1      34.400  17.623   8.941  0.00  0.00    -0.353 OA
HETATM   32  C   UNK N   1      34.930  16.741   9.855  0.00  0.00     0.210 C 
ENDBRANCH   8  31
TORSDOF 7
ENDMDL
MODEL 2
REMARK VINA RESULT:      -6.4      1.523      1.616
REMARK  7 active torsions:
REMARK  status: ('A' for Active; 'I' for Inactive)
REMARK    1  A    between atoms: C_2  and  C_3 
REMARK       I    between atoms: C_2  and  N_5 
REMARK    2  A    between atoms: C_3  and  S_4 
REMARK    3  A    between atoms: C_6  and  N_5 
REMARK    4  A    between atoms: C_13  and  O_20 
REMARK    5  A    between atoms: C_14  and  O_18 
REMARK    6  A    between atoms: C_15  and  O_16 
REMARK    7  A    between atoms: C_26  and  O_29 
ROOT
HETATM    1  C   UNK N   1      28.491  18.284   6.265  0.00  0.00     0.119 C 
HETATM    2  C   UNK N   1      28.609  16.954   5.478  0.00  0.00    -0.020 A 
HETATM    3  C   UNK N   1      27.528  16.699   4.620  0.00  0.00     0.068 A 
HETATM    4  C   UNK N   1      28.712  18.259   7.773  0.00  0.00     0.034 C 
HETATM    5  C   UNK N   1      29.594  17.177   8.301  0.00  0.00     0.042 C 
HETATM    6  C   UNK N   1      30.898  17.107   7.613  0.00  0.00    -0.041 A 
HETATM    7  C   UNK N   1      32.019  17.494   8.337  0.00  0.00     0.047 A 
HETATM    8  C   UNK N   1      33.304  17.322   7.846  0.00  0.00     0.104 A 
HETATM    9  C   UNK N   1      33.492  16.672   6.601  0.00  0.00     0.136 A 
HETATM   10  C   UNK N   1      32.345  16.295   5.836  0.00  0.00     0.116 A 
HETATM   11  C   UNK N   1      31.024  16.539   6.330  0.00  0.00     0.017 A 
HETATM   12  C   UNK N   1      29.807  16.166   5.496  0.00  0.00    -0.014 A 
HETATM   13  C   UNK N   1      29.985  15.042   4.689  0.00  0.00     0.016 A 
HETATM   14  C   UNK N   1      29.241  14.431   3.704  0.00  0.00     0.042 A 
HETATM   15  C   UNK N   1      28.013  14.741   3.156  0.00  0.00     0.118 A 
HETATM   16  C   UNK N   1      27.198  15.799   3.612  0.00  0.00     0.205 A 
HETATM   17  O   UNK N   1      26.115  15.973   3.085  0.00  0.00    -0.285 OA
ENDROOT
BRANCH   1  18
HETATM   18  N   UNK N   1      27.194  18.931   6.075  0.00  0.00    -0.352 N 
HETATM   19  C   UNK N   1      27.006  19.973   5.210  0.00  0.00     0.227 C 
HETATM   20  O   UNK N   1      27.944  20.412   4.557  0.00  0.00    -0.273 OA
HETATM   21  H   UNK N   1      26.423  18.602   6.592  0.00  0.00     0.163 HD
BRANCH  19  22
HETATM   22  C   UNK N   1      25.635  20.556   5.039  0.00  0.00     0.173 C 
BRANCH  22  23
HETATM   23  S   UNK N   1      24.897  20.140   3.421  0.00  0.00    -0.173 SA
HETATM   24  H   UNK N   1      24.481  20.778   2.294  0.00  0.00     0.102 HD
ENDBRANCH  22  23
ENDBRANCH  19  22
ENDBRANCH   1  18
BRANCH  15  25
HETATM   25  O   UNK N   1      27.641  13.944   2.114  0.00  0.00    -0.352 OA
HETATM   26  C   UNK N   1      27.157  12.657   2.199  0.00  0.00     0.210 C 
ENDBRANCH  15  25
BRANCH  10  27
HETATM   27  O   UNK N   1      32.501  15.719   4.622  0.00  0.00    -0.352 OA
HETATM   28  C   UNK N   1      32.948  16.437   3.539  0.00  0.00     0.210 C 
ENDBRANCH  10  27
BRANCH   9  29
HETATM   29  O   UNK N   1      34.763  16.421   6.184  0.00  0.00    -0.351 OA
HETATM   30  C   UNK N   1      35.411  15.208   6.246  0.00  0.00     0.210 C 
ENDBRANCH   9  29
BRANCH   8  31
HETATM   31  O   UNK N   1      34.328  17.772   8.621  0.00  0.00    -0.353 OA
HETATM   32  C   UNK N   1      34.916  17.086   9.659  0.00  0.00     0.210 C 
ENDBRANCH   8  31
TORSDOF 7
ENDMDL
MODEL 3
REMARK VINA RESULT:      -6.0      6.111     10.500
REMARK  7 active torsions:
REMARK  status: ('A' for Active; 'I' for Inactive)
REMARK    1  A    between atoms: C_2  and  C_3 
REMARK       I    between atoms: C_2  and  N_5 
REMARK    2  A    between atoms: C_3  and  S_4 
REMARK    3  A    between atoms: C_6  and  N_5 
REMARK    4  A    between atoms: C_13  and  O_20 
REMARK    5  A    between atoms: C_14  and  O_18 
REMARK    6  A    between atoms: C_15  and  O_16 
REMARK    7  A    between atoms: C_26  and  O_29 
ROOT
HETATM    1  C   UNK N   1      23.375  16.362   5.282  0.00  0.00     0.119 C 
HETATM    2  C   UNK N   1      22.463  17.351   4.514  0.00  0.00    -0.020 A 
HETATM    3  C   UNK N   1      23.085  18.565   4.183  0.00  0.00     0.068 A 
HETATM    4  C   UNK N   1      22.843  15.726   6.561  0.00  0.00     0.034 C 
HETATM    5  C   UNK N   1      21.361  15.584   6.670  0.00  0.00     0.042 C 
HETATM    6  C   UNK N   1      20.757  14.915   5.501  0.00  0.00    -0.041 A 
HETATM    7  C   UNK N   1      20.252  13.636   5.693  0.00  0.00     0.047 A 
HETATM    8  C   UNK N   1      19.526  12.978   4.711  0.00  0.00     0.104 A 
HETATM    9  C   UNK N   1      19.230  13.649   3.499  0.00  0.00     0.136 A 
HETATM   10  C   UNK N   1      19.769  14.955   3.280  0.00  0.00     0.116 A 
HETATM   11  C   UNK N   1      20.570  15.593   4.281  0.00  0.00     0.017 A 
HETATM   12  C   UNK N   1      21.169  16.969   4.028  0.00  0.00    -0.014 A 
HETATM   13  C   UNK N   1      20.391  17.795   3.216  0.00  0.00     0.016 A 
HETATM   14  C   UNK N   1      20.578  19.027   2.629  0.00  0.00     0.042 A 
HETATM   15  C   UNK N   1      21.647  19.897   2.643  0.00  0.00     0.118 A 
HETATM   16  C   UNK N   1      22.819  19.685   3.401  0.00  0.00     0.205 A 
HETATM   17  O   UNK N   1      23.696  20.528   3.373  0.00  0.00    -0.285 OA
ENDROOT
BRANCH   1  18
HETATM   18  N   UNK N   1      24.657  16.959   5.652  0.00  0.00    -0.352 N 
HETATM   19  C   UNK N   1      25.859  16.392   5.327  0.00  0.00     0.227 C 
HETATM   20  O   UNK N   1      25.898  15.337   4.707  0.00  0.00    -0.273 OA
HETATM   21  H   UNK N   1      24.656  17.805   6.157  0.00  0.00     0.163 HD
BRANCH  19  22
HETATM   22  C   UNK N   1      27.132  17.088   5.706  0.00  0.00     0.173 C 
BRANCH  22  23
HETATM   23  S   UNK N   1      27.091  18.874   5.326  0.00  0.00    -0.173 SA
HETATM   24  H   UNK N   1      27.411  19.708   4.300  0.00  0.00     0.102 HD
ENDBRANCH  22  23
ENDBRANCH  19  22
ENDBRANCH   1  18
BRANCH  15  25
HETATM   25  O   UNK N   1      21.495  20.995   1.849  0.00  0.00    -0.352 OA
HETATM   26  C   UNK N   1      20.714  21.085   0.718  0.00  0.00     0.210 C 
ENDBRANCH  15  25
BRANCH  10  27
HETATM   27  O   UNK N   1      19.541  15.594   2.110  0.00  0.00    -0.352 OA
HETATM   28  C   UNK N   1      20.252  15.287   0.974  0.00  0.00     0.210 C 
ENDBRANCH  10  27
BRANCH   9  29
HETATM   29  O   UNK N   1      18.432  13.027   2.590  0.00  0.00    -0.351 OA
HETATM   30  C   UNK N   1      18.829  12.067   1.686  0.00  0.00     0.210 C 
ENDBRANCH   9  29
BRANCH   8  31
HETATM   31  O   UNK N   1      19.111  11.713   4.991  0.00  0.00    -0.353 OA
HETATM   32  C   UNK N   1      19.926  10.629   5.224  0.00  0.00     0.210 C 
ENDBRANCH   8  31
TORSDOF 7
ENDMDL
MODEL 4
REMARK VINA RESULT:      -6.0      3.357      7.611
REMARK  7 active torsions:
REMARK  status: ('A' for Active; 'I' for Inactive)
REMARK    1  A    between atoms: C_2  and  C_3 
REMARK       I    between atoms: C_2  and  N_5 
REMARK    2  A    between atoms: C_3  and  S_4 
REMARK    3  A    between atoms: C_6  and  N_5 
REMARK    4  A    between atoms: C_13  and  O_20 
REMARK    5  A    between atoms: C_14  and  O_18 
REMARK    6  A    between atoms: C_15  and  O_16 
REMARK    7  A    between atoms: C_26  and  O_29 
ROOT
HETATM    1  C   UNK N   1      27.794  18.101   6.090  0.00  0.00     0.119 C 
HETATM    2  C   UNK N   1      27.824  16.775   5.290  0.00  0.00    -0.020 A 
HETATM    3  C   UNK N   1      28.913  15.945   5.599  0.00  0.00     0.068 A 
HETATM    4  C   UNK N   1      27.603  19.407   5.326  0.00  0.00     0.034 C 
HETATM    5  C   UNK N   1      26.867  19.321   4.030  0.00  0.00     0.042 C 
HETATM    6  C   UNK N   1      25.570  18.627   4.147  0.00  0.00    -0.041 A 
HETATM    7  C   UNK N   1      24.424  19.400   4.013  0.00  0.00     0.047 A 
HETATM    8  C   UNK N   1      23.160  18.832   3.948  0.00  0.00     0.104 A 
HETATM    9  C   UNK N   1      23.031  17.421   3.952  0.00  0.00     0.136 A 
HETATM   10  C   UNK N   1      24.202  16.618   4.117  0.00  0.00     0.116 A 
HETATM   11  C   UNK N   1      25.492  17.225   4.246  0.00  0.00     0.017 A 
HETATM   12  C   UNK N   1      26.731  16.366   4.457  0.00  0.00    -0.014 A 
HETATM   13  C   UNK N   1      26.676  15.116   3.839  0.00  0.00     0.016 A 
HETATM   14  C   UNK N   1      27.472  13.992   3.859  0.00  0.00     0.042 A 
HETATM   15  C   UNK N   1      28.643  13.709   4.531  0.00  0.00     0.118 A 
HETATM   16  C   UNK N   1      29.332  14.646   5.330  0.00  0.00     0.205 A 
HETATM   17  O   UNK N   1      30.377  14.311   5.857  0.00  0.00    -0.285 OA
ENDROOT
BRANCH   1  18
HETATM   18  N   UNK N   1      29.000  18.296   6.893  0.00  0.00    -0.352 N 
HETATM   19  C   UNK N   1      28.975  18.379   8.258  0.00  0.00     0.227 C 
HETATM   20  O   UNK N   1      27.914  18.297   8.863  0.00  0.00    -0.273 OA
HETATM   21  H   UNK N   1      29.867  18.371   6.432  0.00  0.00     0.163 HD
BRANCH  19  22
HETATM   22  C   UNK N   1      30.261  18.536   9.014  0.00  0.00     0.173 C 
BRANCH  22  23
HETATM   23  S   UNK N   1      31.571  17.422   8.400  0.00  0.00    -0.173 SA
HETATM   24  H   UNK N   1      31.713  16.124   8.017  0.00  0.00     0.102 HD
ENDBRANCH  22  23
ENDBRANCH  19  22
ENDBRANCH   1  18
BRANCH  15  25
HETATM   25  O   UNK N   1      29.091  12.431   4.373  0.00  0.00    -0.352 OA
HETATM   26  C   UNK N   1      28.385  11.277   4.634  0.00  0.00     0.210 C 
ENDBRANCH  15  25
BRANCH  10  27
HETATM   27  O   UNK N   1      24.096  15.271   4.173  0.00  0.00    -0.352 OA
HETATM   28  C   UNK N   1      23.550  14.639   5.265  0.00  0.00     0.210 C 
ENDBRANCH  10  27
BRANCH   9  29
HETATM   29  O   UNK N   1      21.793  16.882   3.785  0.00  0.00    -0.351 OA
HETATM   30  C   UNK N   1      21.228  16.505   2.588  0.00  0.00     0.210 C 
ENDBRANCH   9  29
BRANCH   8  31
HETATM   31  O   UNK N   1      22.103  19.684   3.855  0.00  0.00    -0.353 OA
HETATM   32  C   UNK N   1      21.695  20.343   2.718  0.00  0.00     0.210 C 
ENDBRANCH   8  31
TORSDOF 7
ENDMDL
MODEL 5
REMARK VINA RESULT:      -6.0     12.159     14.667
REMARK  7 active torsions:
REMARK  status: ('A' for Active; 'I' for Inactive)
REMARK    1  A    between atoms: C_2  and  C_3 
REMARK       I    between atoms: C_2  and  N_5 
REMARK    2  A    between atoms: C_3  and  S_4 
REMARK    3  A    between atoms: C_6  and  N_5 
REMARK    4  A    between atoms: C_13  and  O_20 
REMARK    5  A    between atoms: C_14  and  O_18 
REMARK    6  A    between atoms: C_15  and  O_16 
REMARK    7  A    between atoms: C_26  and  O_29 
ROOT
HETATM    1  C   UNK N   1      27.378  23.679  -6.080  0.00  0.00     0.119 C 
HETATM    2  C   UNK N   1      28.679  23.388  -5.292  0.00  0.00    -0.020 A 
HETATM    3  C   UNK N   1      29.373  22.250  -5.731  0.00  0.00     0.068 A 
HETATM    4  C   UNK N   1      26.094  23.936  -5.297  0.00  0.00     0.034 C 
HETATM    5  C   UNK N   1      26.252  24.493  -3.921  0.00  0.00     0.042 C 
HETATM    6  C   UNK N   1      27.102  25.700  -3.881  0.00  0.00    -0.041 A 
HETATM    7  C   UNK N   1      26.475  26.908  -3.607  0.00  0.00     0.047 A 
HETATM    8  C   UNK N   1      27.193  28.074  -3.390  0.00  0.00     0.104 A 
HETATM    9  C   UNK N   1      28.609  28.027  -3.380  0.00  0.00     0.136 A 
HETATM   10  C   UNK N   1      29.264  26.795  -3.688  0.00  0.00     0.116 A 
HETATM   11  C   UNK N   1      28.505  25.615  -3.971  0.00  0.00     0.017 A 
HETATM   12  C   UNK N   1      29.208  24.314  -4.333  0.00  0.00    -0.014 A 
HETATM   13  C   UNK N   1      30.446  24.138  -3.714  0.00  0.00     0.016 A 
HETATM   14  C   UNK N   1      31.464  23.217  -3.832  0.00  0.00     0.042 A 
HETATM   15  C   UNK N   1      31.610  22.110  -4.641  0.00  0.00     0.118 A 
HETATM   16  C   UNK N   1      30.607  21.644  -5.518  0.00  0.00     0.205 A 
HETATM   17  O   UNK N   1      30.818  20.637  -6.168  0.00  0.00    -0.285 OA
ENDROOT
BRANCH   1  18
HETATM   18  N   UNK N   1      27.047  22.612  -7.024  0.00  0.00    -0.352 N 
HETATM   19  C   UNK N   1      26.701  22.855  -8.324  0.00  0.00     0.227 C 
HETATM   20  O   UNK N   1      26.650  24.003  -8.747  0.00  0.00    -0.273 OA
HETATM   21  H   UNK N   1      27.074  21.679  -6.709  0.00  0.00     0.163 HD
BRANCH  19  22
HETATM   22  C   UNK N   1      26.417  21.704  -9.242  0.00  0.00     0.173 C 
BRANCH  22  23
HETATM   23  S   UNK N   1      27.834  21.311 -10.326  0.00  0.00    -0.173 SA
HETATM   24  H   UNK N   1      28.304  21.651 -11.557  0.00  0.00     0.102 HD
ENDBRANCH  22  23
ENDBRANCH  19  22
ENDBRANCH   1  18
BRANCH  15  25
HETATM   25  O   UNK N   1      32.821  21.491  -4.541  0.00  0.00    -0.352 OA
HETATM   26  C   UNK N   1      33.366  20.938  -3.404  0.00  0.00     0.210 C 
ENDBRANCH  15  25
BRANCH  10  27
HETATM   27  O   UNK N   1      30.614  26.739  -3.732  0.00  0.00    -0.352 OA
HETATM   28  C   UNK N   1      31.324  27.334  -4.748  0.00  0.00     0.210 C 
ENDBRANCH  10  27
BRANCH   9  29
HETATM   29  O   UNK N   1      29.294  29.160  -3.065  0.00  0.00    -0.351 OA
HETATM   30  C   UNK N   1      29.654  29.563  -1.799  0.00  0.00     0.210 C 
ENDBRANCH   9  29
BRANCH   8  31
HETATM   31  O   UNK N   1      26.477  29.210  -3.168  0.00  0.00    -0.353 OA
HETATM   32  C   UNK N   1      26.313  30.248  -4.057  0.00  0.00     0.210 C 
ENDBRANCH   8  31
TORSDOF 7
ENDMDL
MODEL 6
REMARK VINA RESULT:      -6.0      4.210      7.779
REMARK  7 active torsions:
REMARK  status: ('A' for Active; 'I' for Inactive)
REMARK    1  A    between atoms: C_2  and  C_3 
REMARK       I    between atoms: C_2  and  N_5 
REMARK    2  A    between atoms: C_3  and  S_4 
REMARK    3  A    between atoms: C_6  and  N_5 
REMARK    4  A    between atoms: C_13  and  O_20 
REMARK    5  A    between atoms: C_14  and  O_18 
REMARK    6  A    between atoms: C_15  and  O_16 
REMARK    7  A    between atoms: C_26  and  O_29 
ROOT
HETATM    1  C   UNK N   1      34.603  15.526   8.587  0.00  0.00     0.119 C 
HETATM    2  C   UNK N   1      34.642  15.337   7.050  0.00  0.00    -0.020 A 
HETATM    3  C   UNK N   1      35.723  14.566   6.595  0.00  0.00     0.068 A 
HETATM    4  C   UNK N   1      34.429  16.935   9.143  0.00  0.00     0.034 C 
HETATM    5  C   UNK N   1      33.715  17.914   8.271  0.00  0.00     0.042 C 
HETATM    6  C   UNK N   1      32.414  17.413   7.786  0.00  0.00    -0.041 A 
HETATM    7  C   UNK N   1      31.272  18.013   8.303  0.00  0.00     0.047 A 
HETATM    8  C   UNK N   1      30.008  17.733   7.806  0.00  0.00     0.104 A 
HETATM    9  C   UNK N   1      29.874  16.862   6.696  0.00  0.00     0.136 A 
HETATM   10  C   UNK N   1      31.040  16.219   6.175  0.00  0.00     0.116 A 
HETATM   11  C   UNK N   1      32.329  16.472   6.742  0.00  0.00     0.017 A 
HETATM   12  C   UNK N   1      33.562  15.757   6.206  0.00  0.00    -0.014 A 
HETATM   13  C   UNK N   1      33.513  15.474   4.841  0.00  0.00     0.016 A 
HETATM   14  C   UNK N   1      34.305  14.753   3.974  0.00  0.00     0.042 A 
HETATM   15  C   UNK N   1      35.464  14.032   4.175  0.00  0.00     0.118 A 
HETATM   16  C   UNK N   1      36.143  13.970   5.411  0.00  0.00     0.205 A 
HETATM   17  O   UNK N   1      37.177  13.333   5.480  0.00  0.00    -0.285 OA
ENDROOT
BRANCH   1  18
HETATM   18  N   UNK N   1      35.796  14.995   9.245  0.00  0.00    -0.352 N 
HETATM   19  C   UNK N   1      35.736  14.175  10.338  0.00  0.00     0.227 C 
HETATM   20  O   UNK N   1      34.653  13.858  10.815  0.00  0.00    -0.273 OA
HETATM   21  H   UNK N   1      36.680  15.239   8.887  0.00  0.00     0.163 HD
BRANCH  19  22
HETATM   22  C   UNK N   1      37.004  13.637  10.931  0.00  0.00     0.173 C 
BRANCH  22  23
HETATM   23  S   UNK N   1      38.412  13.736   9.772  0.00  0.00    -0.173 SA
HETATM   24  H   UNK N   1      39.321  14.654   9.345  0.00  0.00     0.102 HD
ENDBRANCH  22  23
ENDBRANCH  19  22
ENDBRANCH   1  18
BRANCH  15  25
HETATM   25  O   UNK N   1      35.911  13.361   3.075  0.00  0.00    -0.352 OA
HETATM   26  C   UNK N   1      35.472  13.528   1.780  0.00  0.00     0.210 C 
ENDBRANCH  15  25
BRANCH  10  27
HETATM   27  O   UNK N   1      30.928  15.346   5.148  0.00  0.00    -0.352 OA
HETATM   28  C   UNK N   1      30.342  14.114   5.315  0.00  0.00     0.210 C 
ENDBRANCH  10  27
BRANCH   9  29
HETATM   29  O   UNK N   1      28.637  16.680   6.159  0.00  0.00    -0.351 OA
HETATM   30  C   UNK N   1      28.087  17.407   5.128  0.00  0.00     0.210 C 
ENDBRANCH   9  29
BRANCH   8  31
HETATM   31  O   UNK N   1      28.955  18.347   8.411  0.00  0.00    -0.353 OA
HETATM   32  C   UNK N   1      28.123  17.784   9.352  0.00  0.00     0.210 C 
ENDBRANCH   8  31
TORSDOF 7
ENDMDL
MODEL 7
REMARK VINA RESULT:      -5.8     11.473     13.102
REMARK  7 active torsions:
REMARK  status: ('A' for Active; 'I' for Inactive)
REMARK    1  A    between atoms: C_2  and  C_3 
REMARK       I    between atoms: C_2  and  N_5 
REMARK    2  A    between atoms: C_3  and  S_4 
REMARK    3  A    between atoms: C_6  and  N_5 
REMARK    4  A    between atoms: C_13  and  O_20 
REMARK    5  A    between atoms: C_14  and  O_18 
REMARK    6  A    between atoms: C_15  and  O_16 
REMARK    7  A    between atoms: C_26  and  O_29 
ROOT
HETATM    1  C   UNK N   1      29.594  23.461  -4.768  0.00  0.00     0.119 C 
HETATM    2  C   UNK N   1      29.013  22.459  -5.796  0.00  0.00    -0.020 A 
HETATM    3  C   UNK N   1      27.800  22.867  -6.372  0.00  0.00     0.068 A 
HETATM    4  C   UNK N   1      30.029  22.934  -3.404  0.00  0.00     0.034 C 
HETATM    5  C   UNK N   1      30.449  21.504  -3.344  0.00  0.00     0.042 C 
HETATM    6  C   UNK N   1      31.472  21.159  -4.351  0.00  0.00    -0.041 A 
HETATM    7  C   UNK N   1      32.753  20.890  -3.888  0.00  0.00     0.047 A 
HETATM    8  C   UNK N   1      33.748  20.406  -4.723  0.00  0.00     0.104 A 
HETATM    9  C   UNK N   1      33.439  20.110  -6.074  0.00  0.00     0.136 A 
HETATM   10  C   UNK N   1      32.132  20.408  -6.567  0.00  0.00     0.116 A 
HETATM   11  C   UNK N   1      31.135  20.968  -5.705  0.00  0.00     0.017 A 
HETATM   12  C   UNK N   1      29.755  21.317  -6.246  0.00  0.00    -0.014 A 
HETATM   13  C   UNK N   1      29.311  20.480  -7.270  0.00  0.00     0.016 A 
HETATM   14  C   UNK N   1      28.228  20.486  -8.122  0.00  0.00     0.042 A 
HETATM   15  C   UNK N   1      27.173  21.363  -8.258  0.00  0.00     0.118 A 
HETATM   16  C   UNK N   1      26.963  22.472  -7.410  0.00  0.00     0.205 A 
HETATM   17  O   UNK N   1      25.983  23.170  -7.590  0.00  0.00    -0.285 OA
ENDROOT
BRANCH   1  18
HETATM   18  N   UNK N   1      28.676  24.562  -4.483  0.00  0.00    -0.352 N 
HETATM   19  C   UNK N   1      29.055  25.875  -4.538  0.00  0.00     0.227 C 
HETATM   20  O   UNK N   1      30.206  26.175  -4.828  0.00  0.00    -0.273 OA
HETATM   21  H   UNK N   1      27.746  24.350  -4.240  0.00  0.00     0.163 HD
BRANCH  19  22
HETATM   22  C   UNK N   1      28.043  26.950  -4.273  0.00  0.00     0.173 C 
BRANCH  22  23
HETATM   23  S   UNK N   1      26.439  26.275  -3.718  0.00  0.00    -0.173 SA
HETATM   24  H   UNK N   1      25.521  25.357  -4.124  0.00  0.00     0.102 HD
ENDBRANCH  22  23
ENDBRANCH  19  22
ENDBRANCH   1  18
BRANCH  15  25
HETATM   25  O   UNK N   1      26.335  21.084  -9.297  0.00  0.00    -0.352 OA
HETATM   26  C   UNK N   1      26.511  21.453 -10.612  0.00  0.00     0.210 C 
ENDBRANCH  15  25
BRANCH  10  27
HETATM   27  O   UNK N   1      31.831  20.181  -7.866  0.00  0.00    -0.352 OA
HETATM   28  C   UNK N   1      32.355  20.958  -8.871  0.00  0.00     0.210 C 
ENDBRANCH  10  27
BRANCH   9  29
HETATM   29  O   UNK N   1      34.401  19.540  -6.850  0.00  0.00    -0.351 OA
HETATM   30  C   UNK N   1      34.619  18.190  -7.008  0.00  0.00     0.210 C 
ENDBRANCH   9  29
BRANCH   8  31
HETATM   31  O   UNK N   1      34.978  20.213  -4.173  0.00  0.00    -0.353 OA
HETATM   32  C   UNK N   1      36.004  21.131  -4.148  0.00  0.00     0.210 C 
ENDBRANCH   8  31
TORSDOF 7
ENDMDL
MODEL 8
REMARK VINA RESULT:      -5.7      3.772      8.024
REMARK  7 active torsions:
REMARK  status: ('A' for Active; 'I' for Inactive)
REMARK    1  A    between atoms: C_2  and  C_3 
REMARK       I    between atoms: C_2  and  N_5 
REMARK    2  A    between atoms: C_3  and  S_4 
REMARK    3  A    between atoms: C_6  and  N_5 
REMARK    4  A    between atoms: C_13  and  O_20 
REMARK    5  A    between atoms: C_14  and  O_18 
REMARK    6  A    between atoms: C_15  and  O_16 
REMARK    7  A    between atoms: C_26  and  O_29 
ROOT
HETATM    1  C   UNK N   1      32.108  14.945   4.561  0.00  0.00     0.119 C 
HETATM    2  C   UNK N   1      32.471  15.137   6.055  0.00  0.00    -0.020 A 
HETATM    3  C   UNK N   1      33.798  14.806   6.370  0.00  0.00     0.068 A 
HETATM    4  C   UNK N   1      30.845  14.164   4.214  0.00  0.00     0.034 C 
HETATM    5  C   UNK N   1      29.754  14.173   5.232  0.00  0.00     0.042 C 
HETATM    6  C   UNK N   1      29.386  15.532   5.674  0.00  0.00    -0.041 A 
HETATM    7  C   UNK N   1      28.145  16.014   5.275  0.00  0.00     0.047 A 
HETATM    8  C   UNK N   1      27.632  17.208   5.758  0.00  0.00     0.104 A 
HETATM    9  C   UNK N   1      28.358  17.931   6.738  0.00  0.00     0.136 A 
HETATM   10  C   UNK N   1      29.647  17.458   7.133  0.00  0.00     0.116 A 
HETATM   11  C   UNK N   1      30.189  16.256   6.576  0.00  0.00     0.017 A 
HETATM   12  C   UNK N   1      31.577  15.777   6.976  0.00  0.00    -0.014 A 
HETATM   13  C   UNK N   1      31.936  16.085   8.289  0.00  0.00     0.016 A 
HETATM   14  C   UNK N   1      33.095  15.976   9.025  0.00  0.00     0.042 A 
HETATM   15  C   UNK N   1      34.349  15.507   8.697  0.00  0.00     0.118 A 
HETATM   16  C   UNK N   1      34.668  14.932   7.448  0.00  0.00     0.205 A 
HETATM   17  O   UNK N   1      35.797  14.517   7.265  0.00  0.00    -0.285 OA
ENDROOT
BRANCH   1  18
HETATM   18  N   UNK N   1      33.181  14.299   3.806  0.00  0.00    -0.352 N 
HETATM   19  C   UNK N   1      33.774  14.880   2.719  0.00  0.00     0.227 C 
HETATM   20  O   UNK N   1      33.410  15.983   2.331  0.00  0.00    -0.273 OA
HETATM   21  H   UNK N   1      33.489  13.408   4.092  0.00  0.00     0.163 HD
BRANCH  19  22
HETATM   22  C   UNK N   1      34.898  14.172   2.022  0.00  0.00     0.173 C 
BRANCH  22  23
HETATM   23  S   UNK N   1      34.310  12.808   0.959  0.00  0.00    -0.173 SA
HETATM   24  H   UNK N   1      34.233  11.450   0.988  0.00  0.00     0.102 HD
ENDBRANCH  22  23
ENDBRANCH  19  22
ENDBRANCH   1  18
BRANCH  15  25
HETATM   25  O   UNK N   1      35.283  15.653   9.680  0.00  0.00    -0.352 OA
HETATM   26  C   UNK N   1      35.273  16.593  10.686  0.00  0.00     0.210 C 
ENDBRANCH  15  25
BRANCH  10  27
HETATM   27  O   UNK N   1      30.378  18.159   8.030  0.00  0.00    -0.352 OA
HETATM   28  C   UNK N   1      29.894  18.445   9.284  0.00  0.00     0.210 C 
ENDBRANCH  10  27
BRANCH   9  29
HETATM   29  O   UNK N   1      27.792  19.046   7.274  0.00  0.00    -0.351 OA
HETATM   30  C   UNK N   1      27.764  20.296   6.699  0.00  0.00     0.210 C 
ENDBRANCH   9  29
BRANCH   8  31
HETATM   31  O   UNK N   1      26.425  17.605   5.272  0.00  0.00    -0.353 OA
HETATM   32  C   UNK N   1      26.194  18.148   4.029  0.00  0.00     0.210 C 
ENDBRANCH   8  31
TORSDOF 7
ENDMDL
MODEL 9
REMARK VINA RESULT:      -5.6      4.375      8.511
REMARK  7 active torsions:
REMARK  status: ('A' for Active; 'I' for Inactive)
REMARK    1  A    between atoms: C_2  and  C_3 
REMARK       I    between atoms: C_2  and  N_5 
REMARK    2  A    between atoms: C_3  and  S_4 
REMARK    3  A    between atoms: C_6  and  N_5 
REMARK    4  A    between atoms: C_13  and  O_20 
REMARK    5  A    between atoms: C_14  and  O_18 
REMARK    6  A    between atoms: C_15  and  O_16 
REMARK    7  A    between atoms: C_26  and  O_29 
ROOT
HETATM    1  C   UNK N   1      35.156  15.097   9.654  0.00  0.00     0.119 C 
HETATM    2  C   UNK N   1      35.622  14.853   8.197  0.00  0.00    -0.020 A 
HETATM    3  C   UNK N   1      36.758  14.035   8.089  0.00  0.00     0.068 A 
HETATM    4  C   UNK N   1      34.886  16.530  10.101  0.00  0.00     0.034 C 
HETATM    5  C   UNK N   1      34.486  17.498   9.037  0.00  0.00     0.042 C 
HETATM    6  C   UNK N   1      33.358  17.019   8.215  0.00  0.00    -0.041 A 
HETATM    7  C   UNK N   1      32.140  17.670   8.370  0.00  0.00     0.047 A 
HETATM    8  C   UNK N   1      31.059  17.410   7.541  0.00  0.00     0.104 A 
HETATM    9  C   UNK N   1      31.213  16.505   6.462  0.00  0.00     0.136 A 
HETATM   10  C   UNK N   1      32.452  15.809   6.311  0.00  0.00     0.116 A 
HETATM   11  C   UNK N   1      33.537  16.044   7.215  0.00  0.00     0.017 A 
HETATM   12  C   UNK N   1      34.842  15.275   7.070  0.00  0.00    -0.014 A 
HETATM   13  C   UNK N   1      35.173  14.945   5.755  0.00  0.00     0.016 A 
HETATM   14  C   UNK N   1      36.149  14.171   5.169  0.00  0.00     0.042 A 
HETATM   15  C   UNK N   1      37.175  13.424   5.709  0.00  0.00     0.118 A 
HETATM   16  C   UNK N   1      37.473  13.385   7.088  0.00  0.00     0.205 A 
HETATM   17  O   UNK N   1      38.420  12.721   7.465  0.00  0.00    -0.285 OA
ENDROOT
BRANCH   1  18
HETATM   18  N   UNK N   1      36.092  14.555  10.638  0.00  0.00    -0.352 N 
HETATM   19  C   UNK N   1      35.683  13.947  11.792  0.00  0.00     0.227 C 
HETATM   20  O   UNK N   1      34.490  13.841  12.046  0.00  0.00    -0.273 OA
HETATM   21  H   UNK N   1      37.058  14.632  10.462  0.00  0.00     0.163 HD
BRANCH  19  22
HETATM   22  C   UNK N   1      36.704  13.378  12.731  0.00  0.00     0.173 C 
BRANCH  22  23
HETATM   23  S   UNK N   1      36.446  13.924  14.455  0.00  0.00    -0.173 SA
HETATM   24  H   UNK N   1      35.495  14.555  15.195  0.00  0.00     0.102 HD
ENDBRANCH  22  23
ENDBRANCH  19  22
ENDBRANCH   1  18
BRANCH  15  25
HETATM   25  O   UNK N   1      37.889  12.701   4.799  0.00  0.00    -0.352 OA
HETATM   26  C   UNK N   1      38.744  13.204   3.843  0.00  0.00     0.210 C 
ENDBRANCH  15  25
BRANCH  10  27
HETATM   27  O   UNK N   1      32.603  14.904   5.318  0.00  0.00    -0.352 OA
HETATM   28  C   UNK N   1      32.078  13.638   5.415  0.00  0.00     0.210 C 
ENDBRANCH  10  27
BRANCH   9  29
HETATM   29  O   UNK N   1      30.173  16.340   5.600  0.00  0.00    -0.351 OA
HETATM   30  C   UNK N   1      29.069  15.544   5.806  0.00  0.00     0.210 C 
ENDBRANCH   9  29
BRANCH   8  31
HETATM   31  O   UNK N   1      29.902  18.076   7.805  0.00  0.00    -0.353 OA
HETATM   32  C   UNK N   1      29.180  18.006   8.974  0.00  0.00     0.210 C 
ENDBRANCH   8  31
TORSDOF 7
ENDMDL
