REMARK  7 active torsions:
REMARK  status: ('A' for Active; 'I' for Inactive)
REMARK    1  A    between atoms: C_2  and  C_3 
REMARK       I    between atoms: C_2  and  N_5 
REMARK    2  A    between atoms: C_3  and  S_4 
REMARK    3  A    between atoms: C_6  and  N_5 
REMARK    4  A    between atoms: C_13  and  O_20 
REMARK    5  A    between atoms: C_14  and  O_18 
REMARK    6  A    between atoms: C_15  and  O_16 
REMARK    7  A    between atoms: C_26  and  O_29 
ROOT
HETATM    1  C   UNK N   1      -0.079  -1.888   0.841  0.00  0.00     0.119 C 
HETATM    2  C   UNK N   1      -0.808  -0.737   0.104  0.00  0.00    -0.020 A 
HETATM    3  C   UNK N   1      -2.208  -0.826   0.146  0.00  0.00     0.068 A 
HETATM    4  C   UNK N   1       1.037  -2.628   0.111  0.00  0.00     0.034 C 
HETATM    5  C   UNK N   1       1.764  -1.865  -0.946  0.00  0.00     0.042 C 
HETATM    6  C   UNK N   1       2.267  -0.560  -0.474  0.00  0.00    -0.041 A 
HETATM    7  C   UNK N   1       3.642  -0.425  -0.331  0.00  0.00     0.047 A 
HETATM    8  C   UNK N   1       4.233   0.797  -0.047  0.00  0.00     0.104 A 
HETATM    9  C   UNK N   1       3.425   1.958   0.035  0.00  0.00     0.136 A 
HETATM   10  C   UNK N   1       2.007   1.825  -0.083  0.00  0.00     0.116 A 
HETATM   11  C   UNK N   1       1.409   0.545  -0.313  0.00  0.00     0.017 A 
HETATM   12  C   UNK N   1      -0.104   0.405  -0.403  0.00  0.00    -0.014 A 
HETATM   13  C   UNK N   1      -0.753   1.515  -0.945  0.00  0.00     0.016 A 
HETATM   14  C   UNK N   1      -2.071   1.886  -1.096  0.00  0.00     0.042 A 
HETATM   15  C   UNK N   1      -3.247   1.258  -0.743  0.00  0.00     0.118 A 
HETATM   16  C   UNK N   1      -3.305  -0.035  -0.180  0.00  0.00     0.205 A 
HETATM   17  O   UNK N   1      -4.394  -0.518   0.068  0.00  0.00    -0.285 OA
ENDROOT
BRANCH   1  18
HETATM   18  N   UNK N   1      -0.999  -2.929   1.297  0.00  0.00    -0.352 N 
HETATM   19  C   UNK N   1      -1.613  -3.801   0.441  0.00  0.00     0.227 C 
HETATM   20  O   UNK N   1      -1.411  -3.730  -0.765  0.00  0.00    -0.273 OA
HETATM   21  H   UNK N   1      -1.185  -3.005   2.261  0.00  0.00     0.163 HD
BRANCH  19  22
HETATM   22  C   UNK N   1      -2.511  -4.869   0.990  0.00  0.00     0.173 C 
BRANCH  22  23
HETATM   23  S   UNK N   1      -3.105  -6.013  -0.304  0.00  0.00    -0.173 SA
HETATM   24  H   UNK N   1      -4.064  -6.056  -1.268  0.00  0.00     0.102 HD
ENDBRANCH  22  23
ENDBRANCH  19  22
ENDBRANCH   1  18
BRANCH  15  25
HETATM   25  O   UNK N   1      -4.372   1.994  -0.970  0.00  0.00    -0.352 OA
HETATM   26  C   UNK N   1      -5.625   1.757  -0.449  0.00  0.00     0.210 C 
ENDBRANCH  15  25
BRANCH  10  27
HETATM   27  O   UNK N   1       1.213   2.913   0.042  0.00  0.00    -0.352 OA
HETATM   28  C   UNK N   1       0.977   3.492   1.266  0.00  0.00     0.210 C 
ENDBRANCH  10  27
BRANCH   9  29
HETATM   29  O   UNK N   1       4.034   3.162   0.213  0.00  0.00    -0.351 OA
HETATM   30  C   UNK N   1       3.484   4.395  -0.055  0.00  0.00     0.210 C 
ENDBRANCH   9  29
BRANCH   8  31
HETATM   31  O   UNK N   1       5.585   0.809   0.110  0.00  0.00    -0.353 OA
HETATM   32  C   UNK N   1       6.340   1.883   0.523  0.00  0.00     0.210 C 
ENDBRANCH   8  31
TORSDOF 7
