MODEL 1
REMARK VINA RESULT:      -5.4      0.000      0.000
REMARK  9 active torsions:
REMARK  status: ('A' for Active; 'I' for Inactive)
REMARK    1  A    between atoms: C_1  and  C_2 
REMARK    2  A    between atoms: C_1  and  C_9 
REMARK    3  A    between atoms: C_2  and  N_3 
REMARK    4  A    between atoms: C_2  and  C_4 
REMARK    5  A    between atoms: C_4  and  O_5 
REMARK    6  A    between atoms: C_4  and  C_6 
REMARK    7  A    between atoms: C_6  and  N_7 
REMARK    8  A    between atoms: C_6  and  C_8 
REMARK    9  A    between atoms: C_8  and  C_15 
ROOT
HETATM    1  C   UNK N   1      32.767  17.634   8.717  0.00  0.00     0.163 C 
ENDROOT
BRANCH   1   2
HETATM    2  C   UNK N   1      31.312  17.698   8.233  0.00  0.00     0.109 C 
BRANCH   2   3
HETATM    3  C   UNK N   1      30.790  16.314   7.823  0.00  0.00     0.065 C 
BRANCH   3   4
HETATM    4  C   UNK N   1      30.228  16.319   6.436  0.00  0.00    -0.056 A 
HETATM    5  C   UNK N   1      29.702  17.495   5.892  0.00  0.00     0.007 A 
HETATM    6  C   UNK N   1      29.162  17.489   4.602  0.00  0.00     0.001 A 
HETATM    7  C   UNK N   1      29.143  16.307   3.855  0.00  0.00     0.000 A 
HETATM    8  C   UNK N   1      29.670  15.130   4.396  0.00  0.00     0.001 A 
HETATM    9  C   UNK N   1      30.213  15.136   5.683  0.00  0.00     0.007 A 
ENDBRANCH   3   4
ENDBRANCH   2   3
BRANCH   2  10
HETATM   10  N   UNK N   1      30.502  18.226   9.321  0.00  0.00    -0.423 N 
HETATM   11  H   UNK N   1      30.320  18.051  10.309  0.00  0.00     0.150 HD
HETATM   12  H   UNK N   1      29.944  19.015   8.993  0.00  0.00     0.150 HD
ENDBRANCH   2  10
ENDBRANCH   1   2
BRANCH   1  13
HETATM   13  O   UNK N   1      33.065  16.352   9.193  0.00  0.00    -0.391 OA
HETATM   14  H   UNK N   1      33.705  15.745   8.786  0.00  0.00     0.210 HD
ENDBRANCH   1  13
BRANCH   1  15
HETATM   15  C   UNK N   1      33.833  18.123   7.725  0.00  0.00     0.109 C 
BRANCH  15  16
HETATM   16  N   UNK N   1      34.905  18.775   8.467  0.00  0.00    -0.423 N 
HETATM   17  H   UNK N   1      35.084  18.720   9.469  0.00  0.00     0.150 HD
HETATM   18  H   UNK N   1      35.548  19.349   7.922  0.00  0.00     0.150 HD
ENDBRANCH  15  16
BRANCH  15  19
HETATM   19  C   UNK N   1      34.370  16.890   6.979  0.00  0.00     0.065 C 
BRANCH  19  20
HETATM   20  C   UNK N   1      33.832  16.666   5.603  0.00  0.00    -0.056 A 
HETATM   21  C   UNK N   1      33.969  15.398   5.025  0.00  0.00     0.007 A 
HETATM   22  C   UNK N   1      33.479  15.150   3.743  0.00  0.00     0.001 A 
HETATM   23  C   UNK N   1      32.849  16.173   3.027  0.00  0.00     0.000 A 
HETATM   24  C   UNK N   1      32.708  17.442   3.599  0.00  0.00     0.001 A 
HETATM   25  C   UNK N   1      33.194  17.689   4.887  0.00  0.00     0.007 A 
ENDBRANCH  19  20
ENDBRANCH  15  19
ENDBRANCH   1  15
TORSDOF 9
ENDMDL
MODEL 2
REMARK VINA RESULT:      -5.2     14.989     16.949
REMARK  9 active torsions:
REMARK  status: ('A' for Active; 'I' for Inactive)
REMARK    1  A    between atoms: C_1  and  C_2 
REMARK    2  A    between atoms: C_1  and  C_9 
REMARK    3  A    between atoms: C_2  and  N_3 
REMARK    4  A    between atoms: C_2  and  C_4 
REMARK    5  A    between atoms: C_4  and  O_5 
REMARK    6  A    between atoms: C_4  and  C_6 
REMARK    7  A    between atoms: C_6  and  N_7 
REMARK    8  A    between atoms: C_6  and  C_8 
REMARK    9  A    between atoms: C_8  and  C_15 
ROOT
HETATM    1  C   UNK N   1      26.027  23.607  -8.930  0.00  0.00     0.163 C 
ENDROOT
BRANCH   1   2
HETATM    2  C   UNK N   1      26.616  22.677  -7.860  0.00  0.00     0.109 C 
BRANCH   2   3
HETATM    3  C   UNK N   1      25.929  22.871  -6.502  0.00  0.00     0.065 C 
BRANCH   3   4
HETATM    4  C   UNK N   1      26.781  23.652  -5.553  0.00  0.00    -0.056 A 
HETATM    5  C   UNK N   1      26.258  24.092  -4.332  0.00  0.00     0.007 A 
HETATM    6  C   UNK N   1      27.055  24.837  -3.457  0.00  0.00     0.001 A 
HETATM    7  C   UNK N   1      28.374  25.147  -3.801  0.00  0.00     0.000 A 
HETATM    8  C   UNK N   1      28.900  24.708  -5.019  0.00  0.00     0.001 A 
HETATM    9  C   UNK N   1      28.107  23.960  -5.893  0.00  0.00     0.007 A 
ENDBRANCH   3   4
ENDBRANCH   2   3
BRANCH   2  10
HETATM   10  N   UNK N   1      26.434  21.305  -8.311  0.00  0.00    -0.423 N 
HETATM   11  H   UNK N   1      26.441  20.765  -9.176  0.00  0.00     0.150 HD
HETATM   12  H   UNK N   1      26.241  20.696  -7.516  0.00  0.00     0.150 HD
ENDBRANCH   2  10
ENDBRANCH   1   2
BRANCH   1  13
HETATM   13  O   UNK N   1      24.631  23.641  -8.829  0.00  0.00    -0.391 OA
HETATM   14  H   UNK N   1      24.024  23.727  -9.582  0.00  0.00     0.210 HD
ENDBRANCH   1  13
BRANCH   1  15
HETATM   15  C   UNK N   1      26.617  25.023  -8.995  0.00  0.00     0.109 C 
BRANCH  15  16
HETATM   16  N   UNK N   1      26.935  25.339 -10.382  0.00  0.00    -0.423 N 
HETATM   17  H   UNK N   1      27.763  25.822 -10.731  0.00  0.00     0.150 HD
HETATM   18  H   UNK N   1      26.254  25.044 -11.081  0.00  0.00     0.150 HD
ENDBRANCH  15  16
BRANCH  15  19
HETATM   19  C   UNK N   1      25.551  25.993  -8.456  0.00  0.00     0.065 C 
BRANCH  19  20
HETATM   20  C   UNK N   1      25.930  26.778  -7.242  0.00  0.00    -0.056 A 
HETATM   21  C   UNK N   1      27.198  27.369  -7.192  0.00  0.00     0.007 A 
HETATM   22  C   UNK N   1      27.588  28.111  -6.077  0.00  0.00     0.001 A 
HETATM   23  C   UNK N   1      26.709  28.265  -5.000  0.00  0.00     0.000 A 
HETATM   24  C   UNK N   1      25.440  27.678  -5.045  0.00  0.00     0.001 A 
HETATM   25  C   UNK N   1      25.047  26.939  -6.166  0.00  0.00     0.007 A 
ENDBRANCH  19  20
ENDBRANCH  15  19
ENDBRANCH   1  15
TORSDOF 9
ENDMDL
MODEL 3
REMARK VINA RESULT:      -5.2      9.925     12.339
REMARK  9 active torsions:
REMARK  status: ('A' for Active; 'I' for Inactive)
REMARK    1  A    between atoms: C_1  and  C_2 
REMARK    2  A    between atoms: C_1  and  C_9 
REMARK    3  A    between atoms: C_2  and  N_3 
REMARK    4  A    between atoms: C_2  and  C_4 
REMARK    5  A    between atoms: C_4  and  O_5 
REMARK    6  A    between atoms: C_4  and  C_6 
REMARK    7  A    between atoms: C_6  and  N_7 
REMARK    8  A    between atoms: C_6  and  C_8 
REMARK    9  A    between atoms: C_8  and  C_15 
ROOT
HETATM    1  C   UNK N   1      36.411  13.718  13.608  0.00  0.00     0.163 C 
ENDROOT
BRANCH   1   2
HETATM    2  C   UNK N   1      37.196  12.705  12.763  0.00  0.00     0.109 C 
BRANCH   2   3
HETATM    3  C   UNK N   1      36.368  11.445  12.476  0.00  0.00     0.065 C 
BRANCH   3   4
HETATM    4  C   UNK N   1      36.565  10.398  13.527  0.00  0.00    -0.056 A 
HETATM    5  C   UNK N   1      35.527   9.518  13.850  0.00  0.00     0.007 A 
HETATM    6  C   UNK N   1      35.711   8.553  14.846  0.00  0.00     0.001 A 
HETATM    7  C   UNK N   1      36.932   8.468  15.522  0.00  0.00     0.000 A 
HETATM    8  C   UNK N   1      37.972   9.344  15.200  0.00  0.00     0.001 A 
HETATM    9  C   UNK N   1      37.790  10.307  14.203  0.00  0.00     0.007 A 
ENDBRANCH   3   4
ENDBRANCH   2   3
BRANCH   2  10
HETATM   10  N   UNK N   1      37.555  13.352  11.509  0.00  0.00    -0.423 N 
HETATM   11  H   UNK N   1      38.074  14.164  11.176  0.00  0.00     0.150 HD
HETATM   12  H   UNK N   1      37.170  12.831  10.722  0.00  0.00     0.150 HD
ENDBRANCH   2  10
ENDBRANCH   1   2
BRANCH   1  13
HETATM   13  O   UNK N   1      35.044  13.639  13.314  0.00  0.00    -0.391 OA
HETATM   14  H   UNK N   1      34.333  13.923  13.911  0.00  0.00     0.210 HD
ENDBRANCH   1  13
BRANCH   1  15
HETATM   15  C   UNK N   1      36.660  13.674  15.123  0.00  0.00     0.109 C 
BRANCH  15  16
HETATM   16  N   UNK N   1      37.257  14.936  15.540  0.00  0.00    -0.423 N 
HETATM   17  H   UNK N   1      37.566  15.193  16.478  0.00  0.00     0.150 HD
HETATM   18  H   UNK N   1      37.379  15.641  14.814  0.00  0.00     0.150 HD
ENDBRANCH  15  16
BRANCH  15  19
HETATM   19  C   UNK N   1      35.299  13.472  15.809  0.00  0.00     0.065 C 
BRANCH  19  20
HETATM   20  C   UNK N   1      35.325  12.772  17.130  0.00  0.00    -0.056 A 
HETATM   21  C   UNK N   1      35.496  11.383  17.151  0.00  0.00     0.007 A 
HETATM   22  C   UNK N   1      35.527  10.693  18.364  0.00  0.00     0.001 A 
HETATM   23  C   UNK N   1      35.383  11.392  19.566  0.00  0.00     0.000 A 
HETATM   24  C   UNK N   1      35.213  12.781  19.552  0.00  0.00     0.001 A 
HETATM   25  C   UNK N   1      35.188  13.472  18.337  0.00  0.00     0.007 A 
ENDBRANCH  19  20
ENDBRANCH  15  19
ENDBRANCH   1  15
TORSDOF 9
ENDMDL
MODEL 4
REMARK VINA RESULT:      -5.1      2.404      5.020
REMARK  9 active torsions:
REMARK  status: ('A' for Active; 'I' for Inactive)
REMARK    1  A    between atoms: C_1  and  C_2 
REMARK    2  A    between atoms: C_1  and  C_9 
REMARK    3  A    between atoms: C_2  and  N_3 
REMARK    4  A    between atoms: C_2  and  C_4 
REMARK    5  A    between atoms: C_4  and  O_5 
REMARK    6  A    between atoms: C_4  and  C_6 
REMARK    7  A    between atoms: C_6  and  N_7 
REMARK    8  A    between atoms: C_6  and  C_8 
REMARK    9  A    between atoms: C_8  and  C_15 
ROOT
HETATM    1  C   UNK N   1      29.976  17.341   9.052  0.00  0.00     0.163 C 
ENDROOT
BRANCH   1   2
HETATM    2  C   UNK N   1      31.077  16.515   8.373  0.00  0.00     0.109 C 
BRANCH   2   3
HETATM    3  C   UNK N   1      32.035  17.402   7.567  0.00  0.00     0.065 C 
BRANCH   3   4
HETATM    4  C   UNK N   1      31.954  17.122   6.100  0.00  0.00    -0.056 A 
HETATM    5  C   UNK N   1      30.898  16.364   5.584  0.00  0.00     0.007 A 
HETATM    6  C   UNK N   1      30.837  16.090   4.214  0.00  0.00     0.001 A 
HETATM    7  C   UNK N   1      31.833  16.570   3.358  0.00  0.00     0.000 A 
HETATM    8  C   UNK N   1      32.888  17.330   3.870  0.00  0.00     0.001 A 
HETATM    9  C   UNK N   1      32.948  17.607   5.238  0.00  0.00     0.007 A 
ENDBRANCH   3   4
ENDBRANCH   2   3
BRANCH   2  10
HETATM   10  N   UNK N   1      31.815  15.813   9.413  0.00  0.00    -0.423 N 
HETATM   11  H   UNK N   1      31.703  15.020  10.044  0.00  0.00     0.150 HD
HETATM   12  H   UNK N   1      32.726  16.250   9.554  0.00  0.00     0.150 HD
ENDBRANCH   2  10
ENDBRANCH   1   2
BRANCH   1  13
HETATM   13  O   UNK N   1      30.487  18.571   9.482  0.00  0.00    -0.391 OA
HETATM   14  H   UNK N   1      31.428  18.756   9.636  0.00  0.00     0.210 HD
ENDBRANCH   1  13
BRANCH   1  15
HETATM   15  C   UNK N   1      28.677  17.524   8.253  0.00  0.00     0.109 C 
BRANCH  15  16
HETATM   16  N   UNK N   1      27.560  17.033   9.049  0.00  0.00    -0.423 N 
HETATM   17  H   UNK N   1      27.263  16.064   9.164  0.00  0.00     0.150 HD
HETATM   18  H   UNK N   1      27.014  17.736   9.546  0.00  0.00     0.150 HD
ENDBRANCH  15  16
BRANCH  15  19
HETATM   19  C   UNK N   1      28.515  19.028   7.974  0.00  0.00     0.065 C 
BRANCH  19  20
HETATM   20  C   UNK N   1      28.012  19.395   6.615  0.00  0.00    -0.056 A 
HETATM   21  C   UNK N   1      27.358  20.622   6.449  0.00  0.00     0.007 A 
HETATM   22  C   UNK N   1      26.875  21.000   5.195  0.00  0.00     0.001 A 
HETATM   23  C   UNK N   1      27.043  20.151   4.098  0.00  0.00     0.000 A 
HETATM   24  C   UNK N   1      27.698  18.924   4.257  0.00  0.00     0.001 A 
HETATM   25  C   UNK N   1      28.187  18.547   5.512  0.00  0.00     0.007 A 
ENDBRANCH  19  20
ENDBRANCH  15  19
ENDBRANCH   1  15
TORSDOF 9
ENDMDL
MODEL 5
REMARK VINA RESULT:      -5.1      2.499      3.587
REMARK  9 active torsions:
REMARK  status: ('A' for Active; 'I' for Inactive)
REMARK    1  A    between atoms: C_1  and  C_2 
REMARK    2  A    between atoms: C_1  and  C_9 
REMARK    3  A    between atoms: C_2  and  N_3 
REMARK    4  A    between atoms: C_2  and  C_4 
REMARK    5  A    between atoms: C_4  and  O_5 
REMARK    6  A    between atoms: C_4  and  C_6 
REMARK    7  A    between atoms: C_6  and  N_7 
REMARK    8  A    between atoms: C_6  and  C_8 
REMARK    9  A    between atoms: C_8  and  C_15 
ROOT
HETATM    1  C   UNK N   1      33.822  15.105  10.091  0.00  0.00     0.163 C 
ENDROOT
BRANCH   1   2
HETATM    2  C   UNK N   1      34.081  16.405   9.316  0.00  0.00     0.109 C 
BRANCH   2   3
HETATM    3  C   UNK N   1      32.771  17.110   8.938  0.00  0.00     0.065 C 
BRANCH   3   4
HETATM    4  C   UNK N   1      32.594  17.198   7.455  0.00  0.00    -0.056 A 
HETATM    5  C   UNK N   1      33.691  17.452   6.627  0.00  0.00     0.007 A 
HETATM    6  C   UNK N   1      33.516  17.551   5.243  0.00  0.00     0.001 A 
HETATM    7  C   UNK N   1      32.243  17.398   4.685  0.00  0.00     0.000 A 
HETATM    8  C   UNK N   1      31.144  17.141   5.510  0.00  0.00     0.001 A 
HETATM    9  C   UNK N   1      31.319  17.039   6.893  0.00  0.00     0.007 A 
ENDBRANCH   3   4
ENDBRANCH   2   3
BRANCH   2  10
HETATM   10  N   UNK N   1      34.882  17.277  10.162  0.00  0.00    -0.423 N 
HETATM   11  H   UNK N   1      34.823  17.755  11.062  0.00  0.00     0.150 HD
HETATM   12  H   UNK N   1      35.780  17.470   9.719  0.00  0.00     0.150 HD
ENDBRANCH   2  10
ENDBRANCH   1   2
BRANCH   1  13
HETATM   13  O   UNK N   1      32.526  15.106  10.620  0.00  0.00    -0.391 OA
HETATM   14  H   UNK N   1      32.140  14.382  11.139  0.00  0.00     0.210 HD
ENDBRANCH   1  13
BRANCH   1  15
HETATM   15  C   UNK N   1      34.118  13.799   9.340  0.00  0.00     0.109 C 
BRANCH  15  16
HETATM   16  N   UNK N   1      34.192  12.707  10.302  0.00  0.00    -0.423 N 
HETATM   17  H   UNK N   1      33.682  11.824  10.275  0.00  0.00     0.150 HD
HETATM   18  H   UNK N   1      34.824  12.841  11.091  0.00  0.00     0.150 HD
ENDBRANCH  15  16
BRANCH  15  19
HETATM   19  C   UNK N   1      32.963  13.563   8.351  0.00  0.00     0.065 C 
BRANCH  19  20
HETATM   20  C   UNK N   1      33.297  13.713   6.901  0.00  0.00    -0.056 A 
HETATM   21  C   UNK N   1      34.626  13.965   6.540  0.00  0.00     0.007 A 
HETATM   22  C   UNK N   1      34.978  14.110   5.198  0.00  0.00     0.001 A 
HETATM   23  C   UNK N   1      33.998  14.006   4.206  0.00  0.00     0.000 A 
HETATM   24  C   UNK N   1      32.668  13.752   4.560  0.00  0.00     0.001 A 
HETATM   25  C   UNK N   1      32.317  13.601   5.905  0.00  0.00     0.007 A 
ENDBRANCH  19  20
ENDBRANCH  15  19
ENDBRANCH   1  15
TORSDOF 9
ENDMDL
MODEL 6
REMARK VINA RESULT:      -5.0     13.753     15.396
REMARK  9 active torsions:
REMARK  status: ('A' for Active; 'I' for Inactive)
REMARK    1  A    between atoms: C_1  and  C_2 
REMARK    2  A    between atoms: C_1  and  C_9 
REMARK    3  A    between atoms: C_2  and  N_3 
REMARK    4  A    between atoms: C_2  and  C_4 
REMARK    5  A    between atoms: C_4  and  O_5 
REMARK    6  A    between atoms: C_4  and  C_6 
REMARK    7  A    between atoms: C_6  and  N_7 
REMARK    8  A    between atoms: C_6  and  C_8 
REMARK    9  A    between atoms: C_8  and  C_15 
ROOT
HETATM    1  C   UNK N   1      29.177  23.721  -4.539  0.00  0.00     0.163 C 
ENDROOT
BRANCH   1   2
HETATM    2  C   UNK N   1      28.246  24.161  -3.400  0.00  0.00     0.109 C 
BRANCH   2   3
HETATM    3  C   UNK N   1      26.771  24.087  -3.815  0.00  0.00     0.065 C 
BRANCH   3   4
HETATM    4  C   UNK N   1      26.222  25.434  -4.163  0.00  0.00    -0.056 A 
HETATM    5  C   UNK N   1      26.367  26.506  -3.277  0.00  0.00     0.007 A 
HETATM    6  C   UNK N   1      25.836  27.759  -3.601  0.00  0.00     0.001 A 
HETATM    7  C   UNK N   1      25.157  27.942  -4.809  0.00  0.00     0.000 A 
HETATM    8  C   UNK N   1      25.012  26.873  -5.698  0.00  0.00     0.001 A 
HETATM    9  C   UNK N   1      25.545  25.621  -5.377  0.00  0.00     0.007 A 
ENDBRANCH   3   4
ENDBRANCH   2   3
BRANCH   2  10
HETATM   10  N   UNK N   1      28.482  23.281  -2.265  0.00  0.00    -0.423 N 
HETATM   11  H   UNK N   1      28.430  23.296  -1.247  0.00  0.00     0.150 HD
HETATM   12  H   UNK N   1      28.795  22.365  -2.588  0.00  0.00     0.150 HD
ENDBRANCH   2  10
ENDBRANCH   1   2
BRANCH   1  13
HETATM   13  O   UNK N   1      28.440  23.107  -5.558  0.00  0.00    -0.391 OA
HETATM   14  H   UNK N   1      27.600  23.441  -5.912  0.00  0.00     0.210 HD
ENDBRANCH   1  13
BRANCH   1  15
HETATM   15  C   UNK N   1      30.117  24.798  -5.100  0.00  0.00     0.109 C 
BRANCH  15  16
HETATM   16  N   UNK N   1      31.351  24.164  -5.545  0.00  0.00    -0.423 N 
HETATM   17  H   UNK N   1      31.842  23.389  -5.099  0.00  0.00     0.150 HD
HETATM   18  H   UNK N   1      31.769  24.535  -6.397  0.00  0.00     0.150 HD
ENDBRANCH  15  16
BRANCH  15  19
HETATM   19  C   UNK N   1      29.399  25.465  -6.285  0.00  0.00     0.065 C 
BRANCH  19  20
HETATM   20  C   UNK N   1      29.033  26.903  -6.109  0.00  0.00    -0.056 A 
HETATM   21  C   UNK N   1      29.416  27.555  -4.931  0.00  0.00     0.007 A 
HETATM   22  C   UNK N   1      29.094  28.898  -4.729  0.00  0.00     0.001 A 
HETATM   23  C   UNK N   1      28.381  29.598  -5.708  0.00  0.00     0.000 A 
HETATM   24  C   UNK N   1      27.997  28.952  -6.888  0.00  0.00     0.001 A 
HETATM   25  C   UNK N   1      28.325  27.608  -7.093  0.00  0.00     0.007 A 
ENDBRANCH  19  20
ENDBRANCH  15  19
ENDBRANCH   1  15
TORSDOF 9
ENDMDL
MODEL 7
REMARK VINA RESULT:      -4.9      9.648     11.839
REMARK  9 active torsions:
REMARK  status: ('A' for Active; 'I' for Inactive)
REMARK    1  A    between atoms: C_1  and  C_2 
REMARK    2  A    between atoms: C_1  and  C_9 
REMARK    3  A    between atoms: C_2  and  N_3 
REMARK    4  A    between atoms: C_2  and  C_4 
REMARK    5  A    between atoms: C_4  and  O_5 
REMARK    6  A    between atoms: C_4  and  C_6 
REMARK    7  A    between atoms: C_6  and  N_7 
REMARK    8  A    between atoms: C_6  and  C_8 
REMARK    9  A    between atoms: C_8  and  C_15 
ROOT
HETATM    1  C   UNK N   1      35.867  13.659  13.058  0.00  0.00     0.163 C 
ENDROOT
BRANCH   1   2
HETATM    2  C   UNK N   1      35.844  13.719  14.592  0.00  0.00     0.109 C 
BRANCH   2   3
HETATM    3  C   UNK N   1      34.848  12.713  15.183  0.00  0.00     0.065 C 
BRANCH   3   4
HETATM    4  C   UNK N   1      35.097  12.472  16.639  0.00  0.00    -0.056 A 
HETATM    5  C   UNK N   1      35.447  11.196  17.093  0.00  0.00     0.007 A 
HETATM    6  C   UNK N   1      35.661  10.973  18.457  0.00  0.00     0.001 A 
HETATM    7  C   UNK N   1      35.523  12.023  19.370  0.00  0.00     0.000 A 
HETATM    8  C   UNK N   1      35.176  13.300  18.919  0.00  0.00     0.001 A 
HETATM    9  C   UNK N   1      34.965  13.525  17.555  0.00  0.00     0.007 A 
ENDBRANCH   3   4
ENDBRANCH   2   3
BRANCH   2  10
HETATM   10  N   UNK N   1      37.186  13.422  15.071  0.00  0.00    -0.423 N 
HETATM   11  H   UNK N   1      38.057  13.905  15.291  0.00  0.00     0.150 HD
HETATM   12  H   UNK N   1      37.285  12.421  15.240  0.00  0.00     0.150 HD
ENDBRANCH   2  10
ENDBRANCH   1   2
BRANCH   1  13
HETATM   13  O   UNK N   1      37.176  13.810  12.587  0.00  0.00    -0.391 OA
HETATM   14  H   UNK N   1      37.465  13.610  11.681  0.00  0.00     0.210 HD
ENDBRANCH   1  13
BRANCH   1  15
HETATM   15  C   UNK N   1      35.179  12.444  12.418  0.00  0.00     0.109 C 
BRANCH  15  16
HETATM   16  N   UNK N   1      34.520  12.868  11.189  0.00  0.00    -0.423 N 
HETATM   17  H   UNK N   1      34.796  13.633  10.573  0.00  0.00     0.150 HD
HETATM   18  H   UNK N   1      33.691  12.342  10.915  0.00  0.00     0.150 HD
ENDBRANCH  15  16
BRANCH  15  19
HETATM   19  C   UNK N   1      36.270  11.405  12.110  0.00  0.00     0.065 C 
BRANCH  19  20
HETATM   20  C   UNK N   1      36.503  10.364  13.157  0.00  0.00    -0.056 A 
HETATM   21  C   UNK N   1      37.755  10.306  13.780  0.00  0.00     0.007 A 
HETATM   22  C   UNK N   1      38.011   9.350  14.763  0.00  0.00     0.001 A 
HETATM   23  C   UNK N   1      37.013   8.441  15.128  0.00  0.00     0.000 A 
HETATM   24  C   UNK N   1      35.759   8.495  14.510  0.00  0.00     0.001 A 
HETATM   25  C   UNK N   1      35.501   9.457  13.529  0.00  0.00     0.007 A 
ENDBRANCH  19  20
ENDBRANCH  15  19
ENDBRANCH   1  15
TORSDOF 9
ENDMDL
MODEL 8
REMARK VINA RESULT:      -4.9     14.549     16.306
REMARK  9 active torsions:
REMARK  status: ('A' for Active; 'I' for Inactive)
REMARK    1  A    between atoms: C_1  and  C_2 
REMARK    2  A    between atoms: C_1  and  C_9 
REMARK    3  A    between atoms: C_2  and  N_3 
REMARK    4  A    between atoms: C_2  and  C_4 
REMARK    5  A    between atoms: C_4  and  O_5 
REMARK    6  A    between atoms: C_4  and  C_6 
REMARK    7  A    between atoms: C_6  and  N_7 
REMARK    8  A    between atoms: C_6  and  C_8 
REMARK    9  A    between atoms: C_8  and  C_15 
ROOT
HETATM    1  C   UNK N   1      28.511  23.449  -6.133  0.00  0.00     0.163 C 
ENDROOT
BRANCH   1   2
HETATM    2  C   UNK N   1      29.445  24.575  -6.598  0.00  0.00     0.109 C 
BRANCH   2   3
HETATM    3  C   UNK N   1      29.752  25.561  -5.462  0.00  0.00     0.065 C 
BRANCH   3   4
HETATM    4  C   UNK N   1      29.206  26.924  -5.745  0.00  0.00    -0.056 A 
HETATM    5  C   UNK N   1      29.372  27.958  -4.818  0.00  0.00     0.007 A 
HETATM    6  C   UNK N   1      28.844  29.226  -5.081  0.00  0.00     0.001 A 
HETATM    7  C   UNK N   1      28.146  29.463  -6.269  0.00  0.00     0.000 A 
HETATM    8  C   UNK N   1      27.981  28.433  -7.199  0.00  0.00     0.001 A 
HETATM    9  C   UNK N   1      28.511  27.166  -6.940  0.00  0.00     0.007 A 
ENDBRANCH   3   4
ENDBRANCH   2   3
BRANCH   2  10
HETATM   10  N   UNK N   1      30.681  23.965  -7.066  0.00  0.00    -0.423 N 
HETATM   11  H   UNK N   1      30.998  23.290  -7.761  0.00  0.00     0.150 HD
HETATM   12  H   UNK N   1      31.474  24.326  -6.537  0.00  0.00     0.150 HD
ENDBRANCH   2  10
ENDBRANCH   1   2
BRANCH   1  13
HETATM   13  O   UNK N   1      28.704  23.189  -4.771  0.00  0.00    -0.391 OA
HETATM   14  H   UNK N   1      28.016  23.266  -4.090  0.00  0.00     0.210 HD
ENDBRANCH   1  13
BRANCH   1  15
HETATM   15  C   UNK N   1      27.021  23.626  -6.462  0.00  0.00     0.109 C 
BRANCH  15  16
HETATM   16  N   UNK N   1      26.527  22.405  -7.085  0.00  0.00    -0.423 N 
HETATM   17  H   UNK N   1      25.555  22.109  -7.178  0.00  0.00     0.150 HD
HETATM   18  H   UNK N   1      27.231  21.776  -7.470  0.00  0.00     0.150 HD
ENDBRANCH  15  16
BRANCH  15  19
HETATM   19  C   UNK N   1      26.283  23.889  -5.139  0.00  0.00     0.065 C 
BRANCH  19  20
HETATM   20  C   UNK N   1      25.973  25.318  -4.830  0.00  0.00    -0.056 A 
HETATM   21  C   UNK N   1      26.446  25.865  -3.631  0.00  0.00     0.007 A 
HETATM   22  C   UNK N   1      26.178  27.196  -3.308  0.00  0.00     0.001 A 
HETATM   23  C   UNK N   1      25.431  27.989  -4.184  0.00  0.00     0.000 A 
HETATM   24  C   UNK N   1      24.957  27.448  -5.384  0.00  0.00     0.001 A 
HETATM   25  C   UNK N   1      25.230  26.116  -5.711  0.00  0.00     0.007 A 
ENDBRANCH  19  20
ENDBRANCH  15  19
ENDBRANCH   1  15
TORSDOF 9
ENDMDL
MODEL 9
REMARK VINA RESULT:      -4.6     14.121     16.031
REMARK  9 active torsions:
REMARK  status: ('A' for Active; 'I' for Inactive)
REMARK    1  A    between atoms: C_1  and  C_2 
REMARK    2  A    between atoms: C_1  and  C_9 
REMARK    3  A    between atoms: C_2  and  N_3 
REMARK    4  A    between atoms: C_2  and  C_4 
REMARK    5  A    between atoms: C_4  and  O_5 
REMARK    6  A    between atoms: C_4  and  C_6 
REMARK    7  A    between atoms: C_6  and  N_7 
REMARK    8  A    between atoms: C_6  and  C_8 
REMARK    9  A    between atoms: C_8  and  C_15 
ROOT
HETATM    1  C   UNK N   1      27.549  28.496  -4.738  0.00  0.00     0.163 C 
ENDROOT
BRANCH   1   2
HETATM    2  C   UNK N   1      28.944  27.876  -4.572  0.00  0.00     0.109 C 
BRANCH   2   3
HETATM    3  C   UNK N   1      29.377  27.112  -5.831  0.00  0.00     0.065 C 
BRANCH   3   4
HETATM    4  C   UNK N   1      29.332  25.630  -5.626  0.00  0.00    -0.056 A 
HETATM    5  C   UNK N   1      29.133  25.100  -4.347  0.00  0.00     0.007 A 
HETATM    6  C   UNK N   1      29.109  23.714  -4.160  0.00  0.00     0.001 A 
HETATM    7  C   UNK N   1      29.288  22.856  -5.250  0.00  0.00     0.000 A 
HETATM    8  C   UNK N   1      29.485  23.383  -6.529  0.00  0.00     0.001 A 
HETATM    9  C   UNK N   1      29.505  24.768  -6.718  0.00  0.00     0.007 A 
ENDBRANCH   3   4
ENDBRANCH   2   3
BRANCH   2  10
HETATM   10  N   UNK N   1      29.883  28.955  -4.305  0.00  0.00    -0.423 N 
HETATM   11  H   UNK N   1      30.775  29.109  -3.835  0.00  0.00     0.150 HD
HETATM   12  H   UNK N   1      29.545  29.825  -4.715  0.00  0.00     0.150 HD
ENDBRANCH   2  10
ENDBRANCH   1   2
BRANCH   1  13
HETATM   13  O   UNK N   1      27.357  28.911  -6.062  0.00  0.00    -0.391 OA
HETATM   14  H   UNK N   1      27.429  29.829  -6.370  0.00  0.00     0.210 HD
ENDBRANCH   1  13
BRANCH   1  15
HETATM   15  C   UNK N   1      26.368  27.649  -4.241  0.00  0.00     0.109 C 
BRANCH  15  16
HETATM   16  N   UNK N   1      25.613  28.420  -3.262  0.00  0.00    -0.423 N 
HETATM   17  H   UNK N   1      24.675  28.805  -3.370  0.00  0.00     0.150 HD
HETATM   18  H   UNK N   1      26.074  28.594  -2.370  0.00  0.00     0.150 HD
ENDBRANCH  15  16
BRANCH  15  19
HETATM   19  C   UNK N   1      25.488  27.323  -5.460  0.00  0.00     0.065 C 
BRANCH  19  20
HETATM   20  C   UNK N   1      25.643  25.953  -6.037  0.00  0.00    -0.056 A 
HETATM   21  C   UNK N   1      25.840  25.823  -7.417  0.00  0.00     0.007 A 
HETATM   22  C   UNK N   1      25.990  24.562  -7.994  0.00  0.00     0.001 A 
HETATM   23  C   UNK N   1      25.942  23.418  -7.190  0.00  0.00     0.000 A 
HETATM   24  C   UNK N   1      25.746  23.542  -5.810  0.00  0.00     0.001 A 
HETATM   25  C   UNK N   1      25.602  24.807  -5.232  0.00  0.00     0.007 A 
ENDBRANCH  19  20
ENDBRANCH  15  19
ENDBRANCH   1  15
TORSDOF 9
ENDMDL
