REMARK  9 active torsions:
REMARK  status: ('A' for Active; 'I' for Inactive)
REMARK    1  A    between atoms: C_1  and  C_2 
REMARK    2  A    between atoms: C_1  and  C_9 
REMARK    3  A    between atoms: C_2  and  N_3 
REMARK    4  A    between atoms: C_2  and  C_4 
REMARK    5  A    between atoms: C_4  and  O_5 
REMARK    6  A    between atoms: C_4  and  C_6 
REMARK    7  A    between atoms: C_6  and  N_7 
REMARK    8  A    between atoms: C_6  and  C_8 
REMARK    9  A    between atoms: C_8  and  C_15 
ROOT
HETATM    1  C   UNK N   1       0.074   1.043  -0.631  0.00  0.00     0.163 C 
ENDROOT
BRANCH   1   2
HETATM    2  C   UNK N   1      -1.311   0.399  -0.787  0.00  0.00     0.109 C 
BRANCH   2   3
HETATM    3  C   UNK N   1      -2.117   0.467   0.517  0.00  0.00     0.065 C 
BRANCH   3   4
HETATM    4  C   UNK N   1      -3.512  -0.043   0.337  0.00  0.00    -0.056 A 
HETATM    5  C   UNK N   1      -3.792  -1.404   0.497  0.00  0.00     0.007 A 
HETATM    6  C   UNK N   1      -5.095  -1.877   0.310  0.00  0.00     0.001 A 
HETATM    7  C   UNK N   1      -6.119  -0.992  -0.040  0.00  0.00     0.000 A 
HETATM    8  C   UNK N   1      -5.843   0.369  -0.198  0.00  0.00     0.001 A 
HETATM    9  C   UNK N   1      -4.542   0.844  -0.008  0.00  0.00     0.007 A 
ENDBRANCH   3   4
ENDBRANCH   2   3
BRANCH   2  10
HETATM   10  N   UNK N   1      -2.019   1.112  -1.840  0.00  0.00    -0.423 N 
HETATM   11  H   UNK N   1      -1.834   1.791  -2.578  0.00  0.00     0.150 HD
HETATM   12  H   UNK N   1      -3.005   0.851  -1.840  0.00  0.00     0.150 HD
ENDBRANCH   2  10
ENDBRANCH   1   2
BRANCH   1  13
HETATM   13  O   UNK N   1      -0.048   2.335  -0.106  0.00  0.00    -0.391 OA
HETATM   14  H   UNK N   1       0.686   2.856   0.258  0.00  0.00     0.210 HD
ENDBRANCH   1  13
BRANCH   1  15
HETATM   15  C   UNK N   1       1.119   0.223   0.140  0.00  0.00     0.109 C 
BRANCH  15  16
HETATM   16  N   UNK N   1       1.302  -1.058  -0.530  0.00  0.00    -0.423 N 
HETATM   17  H   UNK N   1       0.589  -1.617  -0.999  0.00  0.00     0.150 HD
HETATM   18  H   UNK N   1       2.248  -1.438  -0.530  0.00  0.00     0.150 HD
ENDBRANCH  15  16
BRANCH  15  19
HETATM   19  C   UNK N   1       2.432   1.024   0.132  0.00  0.00     0.065 C 
BRANCH  19  20
HETATM   20  C   UNK N   1       3.692   0.224   0.216  0.00  0.00    -0.056 A 
HETATM   21  C   UNK N   1       4.640   0.354  -0.806  0.00  0.00     0.007 A 
HETATM   22  C   UNK N   1       5.829  -0.375  -0.763  0.00  0.00     0.001 A 
HETATM   23  C   UNK N   1       6.076  -1.243   0.305  0.00  0.00     0.000 A 
HETATM   24  C   UNK N   1       5.133  -1.376   1.330  0.00  0.00     0.001 A 
HETATM   25  C   UNK N   1       3.944  -0.641   1.290  0.00  0.00     0.007 A 
ENDBRANCH  19  20
ENDBRANCH  15  19
ENDBRANCH   1  15
TORSDOF 9
