REMARK  3 active torsions:
REMARK  status: ('A' for Active; 'I' for Inactive)
REMARK       I    between atoms: C_3  and  N_16 
REMARK    1  A    between atoms: C_4  and  N_15 
REMARK    2  A    between atoms: C_5  and  C_9 
REMARK    3  A    between atoms: C_6  and  C_17 
ROOT
HETATM    1  N   UNK N   1       3.077   0.177  -0.018  0.00  0.00    -0.176 N 
ATOM      2  HN  UNK N   1       3.939   0.710   0.095  1.00  0.00     0.186 HD
HETATM    3  C   UNK N   1       3.151  -1.154  -0.230  0.00  0.00     0.677 A 
HETATM    4  C   UNK N   1       1.886   0.823   0.048  0.00  0.00     0.127 A 
HETATM    5  C   UNK N   1       0.664   0.098  -0.107  0.00  0.00     0.041 A 
HETATM    6  C   UNK N   1       0.788  -1.315  -0.323  0.00  0.00     0.041 A 
HETATM    7  N   UNK N   1       2.023  -1.881  -0.381  0.00  0.00    -0.195 N 
ATOM      8  HN  UNK N   1       2.100  -2.885  -0.544  1.00  0.00     0.184 HD
HETATM    9  N   UNK N   1       4.410  -1.783  -0.306  0.00  0.00    -0.234 N 
HETATM   10  H   UNK N   1       4.470  -2.764  -0.360  0.00  0.00     0.174 HD
HETATM   11  H   UNK N   1       5.232  -1.240  -0.306  0.00  0.00     0.174 HD
ENDROOT
BRANCH   5  12
HETATM   12  C   UNK N   1      -0.683   0.809  -0.062  0.00  0.00    -0.020 A 
HETATM   13  C   UNK N   1      -1.895   0.106  -0.181  0.00  0.00     0.012 A 
HETATM   14  C   UNK N   1      -3.128   0.762  -0.142  0.00  0.00     0.001 A 
HETATM   15  C   UNK N   1      -3.175   2.147   0.007  0.00  0.00     0.000 A 
HETATM   16  C   UNK N   1      -1.990   2.871   0.120  0.00  0.00     0.001 A 
HETATM   17  C   UNK N   1      -0.762   2.206   0.088  0.00  0.00     0.012 A 
ENDBRANCH   5  12
BRANCH   4  18
HETATM   18  N   UNK N   1       1.905   2.216   0.262  0.00  0.00    -0.384 N 
HETATM   19  H   UNK N   1       2.755   2.691   0.412  0.00  0.00     0.157 HD
HETATM   20  H   UNK N   1       1.060   2.721   0.262  0.00  0.00     0.157 HD
ENDBRANCH   4  18
BRANCH   6  21
HETATM   21  C   UNK N   1      -0.377  -2.234  -0.540  0.00  0.00     0.054 C 
HETATM   22  C   UNK N   1      -1.057  -2.598   0.769  0.00  0.00     0.011 C 
ENDBRANCH   6  21
TORSDOF 3
