MODEL 1
REMARK VINA RESULT:      -6.5      0.000      0.000
REMARK  3 active torsions:
REMARK  status: ('A' for Active; 'I' for Inactive)
REMARK       I    between atoms: C_3  and  N_16 
REMARK    1  A    between atoms: C_4  and  N_15 
REMARK    2  A    between atoms: C_5  and  C_9 
REMARK    3  A    between atoms: C_6  and  C_17 
ROOT
HETATM    1  N   UNK N   1      36.428  14.470  13.232  0.00  0.00    -0.176 N 
ATOM      2  HN  UNK N   1      37.024  15.257  12.973  1.00  0.00     0.186 HD
HETATM    3  C   UNK N   1      35.631  13.914  12.295  0.00  0.00     0.677 A 
HETATM    4  C   UNK N   1      36.457  14.011  14.508  0.00  0.00     0.127 A 
HETATM    5  C   UNK N   1      35.632  12.910  14.895  0.00  0.00     0.041 A 
HETATM    6  C   UNK N   1      34.806  12.344  13.867  0.00  0.00     0.041 A 
HETATM    7  N   UNK N   1      34.835  12.871  12.614  0.00  0.00    -0.195 N 
ATOM      8  HN  UNK N   1      34.237  12.466  11.893  1.00  0.00     0.184 HD
HETATM    9  N   UNK N   1      35.622  14.432  10.984  0.00  0.00    -0.234 N 
HETATM   10  H   UNK N   1      35.121  13.971  10.274  0.00  0.00     0.174 HD
HETATM   11  H   UNK N   1      36.117  15.259  10.779  0.00  0.00     0.174 HD
ENDROOT
BRANCH   5  12
HETATM   12  C   UNK N   1      35.630  12.395  16.329  0.00  0.00    -0.020 A 
HETATM   13  C   UNK N   1      36.100  11.110  16.655  0.00  0.00     0.012 A 
HETATM   14  C   UNK N   1      36.094  10.641  17.971  0.00  0.00     0.001 A 
HETATM   15  C   UNK N   1      35.605  11.449  18.996  0.00  0.00     0.000 A 
HETATM   16  C   UNK N   1      35.126  12.724  18.702  0.00  0.00     0.001 A 
HETATM   17  C   UNK N   1      35.143  13.188  17.385  0.00  0.00     0.012 A 
ENDBRANCH   5  12
BRANCH   4  18
HETATM   18  N   UNK N   1      37.312  14.660  15.421  0.00  0.00    -0.384 N 
HETATM   19  H   UNK N   1      37.967  15.327  15.111  0.00  0.00     0.157 HD
HETATM   20  H   UNK N   1      37.255  14.445  16.380  0.00  0.00     0.157 HD
ENDBRANCH   4  18
BRANCH   6  21
HETATM   21  C   UNK N   1      33.852  11.208  14.091  0.00  0.00     0.054 C 
HETATM   22  C   UNK N   1      34.068  10.088  13.087  0.00  0.00     0.011 C 
ENDBRANCH   6  21
TORSDOF 3
ENDMDL
MODEL 2
REMARK VINA RESULT:      -6.0      8.095     10.520
REMARK  3 active torsions:
REMARK  status: ('A' for Active; 'I' for Inactive)
REMARK       I    between atoms: C_3  and  N_16 
REMARK    1  A    between atoms: C_4  and  N_15 
REMARK    2  A    between atoms: C_5  and  C_9 
REMARK    3  A    between atoms: C_6  and  C_17 
ROOT
HETATM    1  N   UNK N   1      28.498  18.551   8.006  0.00  0.00    -0.176 N 
ATOM      2  HN  UNK N   1      27.825  19.015   8.616  1.00  0.00     0.186 HD
HETATM    3  C   UNK N   1      28.136  18.246   6.742  0.00  0.00     0.677 A 
HETATM    4  C   UNK N   1      29.732  18.255   8.485  0.00  0.00     0.127 A 
HETATM    5  C   UNK N   1      30.692  17.605   7.650  0.00  0.00     0.041 A 
HETATM    6  C   UNK N   1      30.269  17.306   6.312  0.00  0.00     0.041 A 
HETATM    7  N   UNK N   1      29.010  17.633   5.915  0.00  0.00    -0.195 N 
ATOM      8  HN  UNK N   1      28.717  17.408   4.964  1.00  0.00     0.184 HD
HETATM    9  N   UNK N   1      26.838  18.558   6.289  0.00  0.00    -0.234 N 
HETATM   10  H   UNK N   1      26.601  18.431   5.342  0.00  0.00     0.174 HD
HETATM   11  H   UNK N   1      26.167  18.904   6.921  0.00  0.00     0.174 HD
ENDROOT
BRANCH   5  12
HETATM   12  C   UNK N   1      32.074  17.241   8.177  0.00  0.00    -0.020 A 
HETATM   13  C   UNK N   1      33.165  18.122   8.064  0.00  0.00     0.012 A 
HETATM   14  C   UNK N   1      34.432  17.783   8.546  0.00  0.00     0.001 A 
HETATM   15  C   UNK N   1      34.639  16.542   9.147  0.00  0.00     0.000 A 
HETATM   16  C   UNK N   1      33.579  15.646   9.266  0.00  0.00     0.001 A 
HETATM   17  C   UNK N   1      32.314  15.996   8.788  0.00  0.00     0.012 A 
ENDBRANCH   5  12
BRANCH   4  18
HETATM   18  N   UNK N   1      30.018  18.601   9.822  0.00  0.00    -0.384 N 
HETATM   19  H   UNK N   1      30.949  18.681  10.132  0.00  0.00     0.157 HD
HETATM   20  H   UNK N   1      29.280  18.763  10.452  0.00  0.00     0.157 HD
ENDBRANCH   4  18
BRANCH   6  21
HETATM   21  C   UNK N   1      31.123  16.599   5.302  0.00  0.00     0.054 C 
HETATM   22  C   UNK N   1      31.904  17.579   4.442  0.00  0.00     0.011 C 
ENDBRANCH   6  21
TORSDOF 3
ENDMDL
MODEL 3
REMARK VINA RESULT:      -5.9     17.128     19.126
REMARK  3 active torsions:
REMARK  status: ('A' for Active; 'I' for Inactive)
REMARK       I    between atoms: C_3  and  N_16 
REMARK    1  A    between atoms: C_4  and  N_15 
REMARK    2  A    between atoms: C_5  and  C_9 
REMARK    3  A    between atoms: C_6  and  C_17 
ROOT
HETATM    1  N   UNK N   1      19.839  19.387   1.869  0.00  0.00    -0.176 N 
ATOM      2  HN  UNK N   1      18.938  19.346   1.394  1.00  0.00     0.186 HD
HETATM    3  C   UNK N   1      20.713  20.362   1.538  0.00  0.00     0.677 A 
HETATM    4  C   UNK N   1      20.130  18.462   2.817  0.00  0.00     0.127 A 
HETATM    5  C   UNK N   1      21.387  18.499   3.498  0.00  0.00     0.041 A 
HETATM    6  C   UNK N   1      22.281  19.555   3.121  0.00  0.00     0.041 A 
HETATM    7  N   UNK N   1      21.911  20.438   2.155  0.00  0.00    -0.195 N 
ATOM      8  HN  UNK N   1      22.559  21.179   1.889  1.00  0.00     0.184 HD
HETATM    9  N   UNK N   1      20.376  21.294   0.537  0.00  0.00    -0.234 N 
HETATM   10  H   UNK N   1      20.963  22.065   0.361  0.00  0.00     0.174 HD
HETATM   11  H   UNK N   1      19.551  21.175   0.011  0.00  0.00     0.174 HD
ENDROOT
BRANCH   5  12
HETATM   12  C   UNK N   1      21.743  17.453   4.548  0.00  0.00    -0.020 A 
HETATM   13  C   UNK N   1      21.380  17.606   5.898  0.00  0.00     0.012 A 
HETATM   14  C   UNK N   1      21.711  16.647   6.858  0.00  0.00     0.001 A 
HETATM   15  C   UNK N   1      22.427  15.510   6.487  0.00  0.00     0.000 A 
HETATM   16  C   UNK N   1      22.807  15.334   5.158  0.00  0.00     0.001 A 
HETATM   17  C   UNK N   1      22.465  16.295   4.204  0.00  0.00     0.012 A 
ENDBRANCH   5  12
BRANCH   4  18
HETATM   18  N   UNK N   1      19.163  17.474   3.090  0.00  0.00    -0.384 N 
HETATM   19  H   UNK N   1      18.292  17.480   2.629  0.00  0.00     0.157 HD
HETATM   20  H   UNK N   1      19.358  16.769   3.749  0.00  0.00     0.157 HD
ENDBRANCH   4  18
BRANCH   6  21
HETATM   21  C   UNK N   1      23.653  19.736   3.700  0.00  0.00     0.054 C 
HETATM   22  C   UNK N   1      24.565  20.500   2.754  0.00  0.00     0.011 C 
ENDBRANCH   6  21
TORSDOF 3
ENDMDL
MODEL 4
REMARK VINA RESULT:      -5.9      8.795     11.476
REMARK  3 active torsions:
REMARK  status: ('A' for Active; 'I' for Inactive)
REMARK       I    between atoms: C_3  and  N_16 
REMARK    1  A    between atoms: C_4  and  N_15 
REMARK    2  A    between atoms: C_5  and  C_9 
REMARK    3  A    between atoms: C_6  and  C_17 
ROOT
HETATM    1  N   UNK N   1      29.592  17.361   8.084  0.00  0.00    -0.176 N 
ATOM      2  HN  UNK N   1      28.592  17.230   8.235  1.00  0.00     0.186 HD
HETATM    3  C   UNK N   1      30.325  17.976   9.036  0.00  0.00     0.677 A 
HETATM    4  C   UNK N   1      30.150  16.914   6.931  0.00  0.00     0.127 A 
HETATM    5  C   UNK N   1      31.550  17.086   6.696  0.00  0.00     0.041 A 
HETATM    6  C   UNK N   1      32.293  17.737   7.736  0.00  0.00     0.041 A 
HETATM    7  N   UNK N   1      31.651  18.159   8.858  0.00  0.00    -0.195 N 
ATOM      8  HN  UNK N   1      32.187  18.629   9.588  1.00  0.00     0.184 HD
HETATM    9  N   UNK N   1      29.701  18.438  10.212  0.00  0.00    -0.234 N 
HETATM   10  H   UNK N   1      30.244  18.795  10.952  0.00  0.00     0.174 HD
HETATM   11  H   UNK N   1      28.720  18.403  10.295  0.00  0.00     0.174 HD
ENDROOT
BRANCH   5  12
HETATM   12  C   UNK N   1      32.192  16.614   5.397  0.00  0.00    -0.020 A 
HETATM   13  C   UNK N   1      32.807  15.354   5.290  0.00  0.00     0.012 A 
HETATM   14  C   UNK N   1      33.397  14.927   4.098  0.00  0.00     0.001 A 
HETATM   15  C   UNK N   1      33.394  15.761   2.982  0.00  0.00     0.000 A 
HETATM   16  C   UNK N   1      32.798  17.018   3.059  0.00  0.00     0.001 A 
HETATM   17  C   UNK N   1      32.203  17.434   4.253  0.00  0.00     0.012 A 
ENDBRANCH   5  12
BRANCH   4  18
HETATM   18  N   UNK N   1      29.306  16.294   5.989  0.00  0.00    -0.384 N 
HETATM   19  H   UNK N   1      29.532  16.299   5.030  0.00  0.00     0.157 HD
HETATM   20  H   UNK N   1      28.480  15.850   6.291  0.00  0.00     0.157 HD
ENDBRANCH   4  18
BRANCH   6  21
HETATM   21  C   UNK N   1      33.760  18.035   7.656  0.00  0.00     0.054 C 
HETATM   22  C   UNK N   1      34.582  17.028   8.444  0.00  0.00     0.011 C 
ENDBRANCH   6  21
TORSDOF 3
ENDMDL
MODEL 5
REMARK VINA RESULT:      -5.9     10.523     13.534
REMARK  3 active torsions:
REMARK  status: ('A' for Active; 'I' for Inactive)
REMARK       I    between atoms: C_3  and  N_16 
REMARK    1  A    between atoms: C_4  and  N_15 
REMARK    2  A    between atoms: C_5  and  C_9 
REMARK    3  A    between atoms: C_6  and  C_17 
ROOT
HETATM    1  N   UNK N   1      29.535  18.013   8.611  0.00  0.00    -0.176 N 
ATOM      2  HN  UNK N   1      29.409  18.201   9.605  1.00  0.00     0.186 HD
HETATM    3  C   UNK N   1      30.646  17.367   8.200  0.00  0.00     0.677 A 
HETATM    4  C   UNK N   1      28.582  18.420   7.735  0.00  0.00     0.127 A 
HETATM    5  C   UNK N   1      28.735  18.168   6.336  0.00  0.00     0.041 A 
HETATM    6  C   UNK N   1      29.927  17.472   5.944  0.00  0.00     0.041 A 
HETATM    7  N   UNK N   1      30.834  17.106   6.889  0.00  0.00    -0.195 N 
ATOM      8  HN  UNK N   1      31.682  16.619   6.598  1.00  0.00     0.184 HD
HETATM    9  N   UNK N   1      31.618  16.974   9.143  0.00  0.00    -0.234 N 
HETATM   10  H   UNK N   1      32.380  16.417   8.865  0.00  0.00     0.174 HD
HETATM   11  H   UNK N   1      31.535  17.260  10.082  0.00  0.00     0.174 HD
ENDROOT
BRANCH   5  12
HETATM   12  C   UNK N   1      27.689  18.640   5.334  0.00  0.00    -0.020 A 
HETATM   13  C   UNK N   1      26.609  17.824   4.953  0.00  0.00     0.012 A 
HETATM   14  C   UNK N   1      25.654  18.259   4.031  0.00  0.00     0.001 A 
HETATM   15  C   UNK N   1      25.765  19.524   3.458  0.00  0.00     0.000 A 
HETATM   16  C   UNK N   1      26.829  20.352   3.811  0.00  0.00     0.001 A 
HETATM   17  C   UNK N   1      27.775  19.912   4.739  0.00  0.00     0.012 A 
ENDBRANCH   5  12
BRANCH   4  18
HETATM   18  N   UNK N   1      27.460  19.097   8.253  0.00  0.00    -0.384 N 
HETATM   19  H   UNK N   1      27.275  19.101   9.220  0.00  0.00     0.157 HD
HETATM   20  H   UNK N   1      26.852  19.573   7.641  0.00  0.00     0.157 HD
ENDBRANCH   4  18
BRANCH   6  21
HETATM   21  C   UNK N   1      30.278  17.149   4.523  0.00  0.00     0.054 C 
HETATM   22  C   UNK N   1      31.729  17.477   4.213  0.00  0.00     0.011 C 
ENDBRANCH   6  21
TORSDOF 3
ENDMDL
MODEL 6
REMARK VINA RESULT:      -5.7      6.046      9.460
REMARK  3 active torsions:
REMARK  status: ('A' for Active; 'I' for Inactive)
REMARK       I    between atoms: C_3  and  N_16 
REMARK    1  A    between atoms: C_4  and  N_15 
REMARK    2  A    between atoms: C_5  and  C_9 
REMARK    3  A    between atoms: C_6  and  C_17 
ROOT
HETATM    1  N   UNK N   1      35.310  17.194  10.148  0.00  0.00    -0.176 N 
ATOM      2  HN  UNK N   1      35.889  17.907  10.593  1.00  0.00     0.186 HD
HETATM    3  C   UNK N   1      35.238  15.966  10.704  0.00  0.00     0.677 A 
HETATM    4  C   UNK N   1      34.634  17.504   9.014  0.00  0.00     0.127 A 
HETATM    5  C   UNK N   1      33.816  16.523   8.372  0.00  0.00     0.041 A 
HETATM    6  C   UNK N   1      33.762  15.234   9.000  0.00  0.00     0.041 A 
HETATM    7  N   UNK N   1      34.477  15.007  10.134  0.00  0.00    -0.195 N 
ATOM      8  HN  UNK N   1      34.439  14.084  10.567  1.00  0.00     0.184 HD
HETATM    9  N   UNK N   1      35.969  15.683  11.875  0.00  0.00    -0.234 N 
HETATM   10  H   UNK N   1      35.844  14.824  12.340  0.00  0.00     0.174 HD
HETATM   11  H   UNK N   1      36.608  16.344  12.229  0.00  0.00     0.174 HD
ENDROOT
BRANCH   5  12
HETATM   12  C   UNK N   1      33.069  16.843   7.083  0.00  0.00    -0.020 A 
HETATM   13  C   UNK N   1      31.675  17.022   7.062  0.00  0.00     0.012 A 
HETATM   14  C   UNK N   1      30.993  17.313   5.877  0.00  0.00     0.001 A 
HETATM   15  C   UNK N   1      31.695  17.421   4.678  0.00  0.00     0.000 A 
HETATM   16  C   UNK N   1      33.077  17.242   4.668  0.00  0.00     0.001 A 
HETATM   17  C   UNK N   1      33.752  16.959   5.858  0.00  0.00     0.012 A 
ENDBRANCH   5  12
BRANCH   4  18
HETATM   18  N   UNK N   1      34.777  18.809   8.499  0.00  0.00    -0.384 N 
HETATM   19  H   UNK N   1      35.661  19.149   8.228  0.00  0.00     0.157 HD
HETATM   20  H   UNK N   1      33.985  19.387   8.409  0.00  0.00     0.157 HD
ENDBRANCH   4  18
BRANCH   6  21
HETATM   21  C   UNK N   1      32.987  14.071   8.457  0.00  0.00     0.054 C 
HETATM   22  C   UNK N   1      33.804  13.267   7.460  0.00  0.00     0.011 C 
ENDBRANCH   6  21
TORSDOF 3
ENDMDL
MODEL 7
REMARK VINA RESULT:      -5.6      2.239      4.935
REMARK  3 active torsions:
REMARK  status: ('A' for Active; 'I' for Inactive)
REMARK       I    between atoms: C_3  and  N_16 
REMARK    1  A    between atoms: C_4  and  N_15 
REMARK    2  A    between atoms: C_5  and  C_9 
REMARK    3  A    between atoms: C_6  and  C_17 
ROOT
HETATM    1  N   UNK N   1      36.259  14.460  17.026  0.00  0.00    -0.176 N 
ATOM      2  HN  UNK N   1      36.765  15.133  17.602  1.00  0.00     0.186 HD
HETATM    3  C   UNK N   1      35.355  13.644  17.610  0.00  0.00     0.677 A 
HETATM    4  C   UNK N   1      36.511  14.406  15.695  0.00  0.00     0.127 A 
HETATM    5  C   UNK N   1      35.816  13.471  14.867  0.00  0.00     0.041 A 
HETATM    6  C   UNK N   1      34.859  12.629  15.527  0.00  0.00     0.041 A 
HETATM    7  N   UNK N   1      34.673  12.746  16.869  0.00  0.00    -0.195 N 
ATOM      8  HN  UNK N   1      33.997  12.136  17.329  1.00  0.00     0.184 HD
HETATM    9  N   UNK N   1      35.134  13.724  19.000  0.00  0.00    -0.234 N 
HETATM   10  H   UNK N   1      34.409  13.205  19.416  0.00  0.00     0.174 HD
HETATM   11  H   UNK N   1      35.708  14.300  19.557  0.00  0.00     0.174 HD
ENDROOT
BRANCH   5  12
HETATM   12  C   UNK N   1      36.103  13.377  13.374  0.00  0.00    -0.020 A 
HETATM   13  C   UNK N   1      35.409  14.161  12.436  0.00  0.00     0.012 A 
HETATM   14  C   UNK N   1      35.674  14.070  11.067  0.00  0.00     0.001 A 
HETATM   15  C   UNK N   1      36.639  13.177  10.603  0.00  0.00     0.000 A 
HETATM   16  C   UNK N   1      37.337  12.381  11.508  0.00  0.00     0.001 A 
HETATM   17  C   UNK N   1      37.072  12.485  12.876  0.00  0.00     0.012 A 
ENDBRANCH   5  12
BRANCH   4  18
HETATM   18  N   UNK N   1      37.479  15.288  15.173  0.00  0.00    -0.384 N 
HETATM   19  H   UNK N   1      37.961  15.072  14.341  0.00  0.00     0.157 HD
HETATM   20  H   UNK N   1      37.676  16.129  15.644  0.00  0.00     0.157 HD
ENDBRANCH   4  18
BRANCH   6  21
HETATM   21  C   UNK N   1      34.058  11.568  14.833  0.00  0.00     0.054 C 
HETATM   22  C   UNK N   1      34.488  10.173  15.255  0.00  0.00     0.011 C 
ENDBRANCH   6  21
TORSDOF 3
ENDMDL
MODEL 8
REMARK VINA RESULT:      -5.5      6.927     10.450
REMARK  3 active torsions:
REMARK  status: ('A' for Active; 'I' for Inactive)
REMARK       I    between atoms: C_3  and  N_16 
REMARK    1  A    between atoms: C_4  and  N_15 
REMARK    2  A    between atoms: C_5  and  C_9 
REMARK    3  A    between atoms: C_6  and  C_17 
ROOT
HETATM    1  N   UNK N   1      35.334  15.652   8.780  0.00  0.00    -0.176 N 
ATOM      2  HN  UNK N   1      36.152  15.060   8.923  1.00  0.00     0.186 HD
HETATM    3  C   UNK N   1      34.860  16.378   9.815  0.00  0.00     0.677 A 
HETATM    4  C   UNK N   1      34.749  15.690   7.557  0.00  0.00     0.127 A 
HETATM    5  C   UNK N   1      33.601  16.512   7.333  0.00  0.00     0.041 A 
HETATM    6  C   UNK N   1      33.136  17.272   8.457  0.00  0.00     0.041 A 
HETATM    7  N   UNK N   1      33.779  17.170   9.651  0.00  0.00    -0.195 N 
ATOM      8  HN  UNK N   1      33.435  17.709  10.446  1.00  0.00     0.184 HD
HETATM    9  N   UNK N   1      35.490  16.298  11.074  0.00  0.00    -0.234 N 
HETATM   10  H   UNK N   1      35.214  16.898  11.804  0.00  0.00     0.174 HD
HETATM   11  H   UNK N   1      36.208  15.640  11.224  0.00  0.00     0.174 HD
ENDROOT
BRANCH   5  12
HETATM   12  C   UNK N   1      32.914  16.548   5.973  0.00  0.00    -0.020 A 
HETATM   13  C   UNK N   1      33.260  17.496   4.994  0.00  0.00     0.012 A 
HETATM   14  C   UNK N   1      32.625  17.528   3.750  0.00  0.00     0.001 A 
HETATM   15  C   UNK N   1      31.616  16.612   3.460  0.00  0.00     0.000 A 
HETATM   16  C   UNK N   1      31.247  15.665   4.413  0.00  0.00     0.001 A 
HETATM   17  C   UNK N   1      31.892  15.635   5.651  0.00  0.00     0.012 A 
ENDBRANCH   5  12
BRANCH   4  18
HETATM   18  N   UNK N   1      35.304  14.890   6.538  0.00  0.00    -0.384 N 
HETATM   19  H   UNK N   1      36.212  14.519   6.628  0.00  0.00     0.157 HD
HETATM   20  H   UNK N   1      34.780  14.700   5.727  0.00  0.00     0.157 HD
ENDBRANCH   4  18
BRANCH   6  21
HETATM   21  C   UNK N   1      31.930  18.163   8.424  0.00  0.00     0.054 C 
HETATM   22  C   UNK N   1      30.658  17.400   8.751  0.00  0.00     0.011 C 
ENDBRANCH   6  21
TORSDOF 3
ENDMDL
MODEL 9
REMARK VINA RESULT:      -5.5     23.325     25.957
REMARK  3 active torsions:
REMARK  status: ('A' for Active; 'I' for Inactive)
REMARK       I    between atoms: C_3  and  N_16 
REMARK    1  A    between atoms: C_4  and  N_15 
REMARK    2  A    between atoms: C_5  and  C_9 
REMARK    3  A    between atoms: C_6  and  C_17 
ROOT
HETATM    1  N   UNK N   1      25.724  27.423  -5.450  0.00  0.00    -0.176 N 
ATOM      2  HN  UNK N   1      25.424  28.280  -5.913  1.00  0.00     0.186 HD
HETATM    3  C   UNK N   1      25.922  27.432  -4.115  0.00  0.00     0.677 A 
HETATM    4  C   UNK N   1      25.915  26.303  -6.191  0.00  0.00     0.127 A 
HETATM    5  C   UNK N   1      26.336  25.088  -5.565  0.00  0.00     0.041 A 
HETATM    6  C   UNK N   1      26.527  25.140  -4.144  0.00  0.00     0.041 A 
HETATM    7  N   UNK N   1      26.319  26.308  -3.480  0.00  0.00    -0.195 N 
ATOM      8  HN  UNK N   1      26.467  26.336  -2.471  1.00  0.00     0.184 HD
HETATM    9  N   UNK N   1      25.726  28.621  -3.385  0.00  0.00    -0.234 N 
HETATM   10  H   UNK N   1      25.772  28.611  -2.402  0.00  0.00     0.174 HD
HETATM   11  H   UNK N   1      25.545  29.465  -3.859  0.00  0.00     0.174 HD
ENDROOT
BRANCH   5  12
HETATM   12  C   UNK N   1      26.580  23.826  -6.384  0.00  0.00    -0.020 A 
HETATM   13  C   UNK N   1      27.853  23.509  -6.891  0.00  0.00     0.012 A 
HETATM   14  C   UNK N   1      28.073  22.352  -7.643  0.00  0.00     0.001 A 
HETATM   15  C   UNK N   1      27.014  21.487  -7.915  0.00  0.00     0.000 A 
HETATM   16  C   UNK N   1      25.740  21.780  -7.432  0.00  0.00     0.001 A 
HETATM   17  C   UNK N   1      25.531  22.934  -6.674  0.00  0.00     0.012 A 
ENDBRANCH   5  12
BRANCH   4  18
HETATM   18  N   UNK N   1      25.694  26.389  -7.580  0.00  0.00    -0.384 N 
HETATM   19  H   UNK N   1      26.384  26.095  -8.219  0.00  0.00     0.157 HD
HETATM   20  H   UNK N   1      24.841  26.746  -7.917  0.00  0.00     0.157 HD
ENDBRANCH   4  18
BRANCH   6  21
HETATM   21  C   UNK N   1      26.997  23.979  -3.320  0.00  0.00     0.054 C 
HETATM   22  C   UNK N   1      28.514  23.917  -3.249  0.00  0.00     0.011 C 
ENDBRANCH   6  21
TORSDOF 3
ENDMDL
