MODEL 1
REMARK VINA RESULT:      -7.9      0.000      0.000
REMARK  3 active torsions:
REMARK  status: ('A' for Active; 'I' for Inactive)
REMARK    1  A    between atoms: N_3  and  C_10 
REMARK    2  A    between atoms: C_10  and  C_11 
REMARK    3  A    between atoms: C_14  and  N_17 
ROOT
HETATM    1  C   UNK N   1      34.789  15.964  10.187  0.00  0.00    -0.040 A 
HETATM    2  C   UNK N   1      33.776  15.001  10.240  0.00  0.00     0.011 A 
HETATM    3  C   UNK N   1      32.648  15.130   9.425  0.00  0.00     0.030 A 
HETATM    4  C   UNK N   1      32.504  16.250   8.589  0.00  0.00     0.041 A 
HETATM    5  C   UNK N   1      33.532  17.198   8.531  0.00  0.00     0.030 A 
HETATM    6  C   UNK N   1      34.683  17.038   9.297  0.00  0.00     0.011 A 
ENDROOT
BRANCH   4   7
HETATM    7  N   UNK N   1      31.326  16.416   7.778  0.00  0.00    -0.299 N 
HETATM    8  C   UNK N   1      31.071  15.879   6.552  0.00  0.00     0.085 A 
HETATM    9  N   UNK N   1      29.844  16.226   6.085  0.00  0.00    -0.343 N 
HETATM   10  C   UNK N   1      32.027  15.046   5.768  0.00  0.00     0.089 C 
HETATM   11  C   UNK N   1      29.328  16.987   7.065  0.00  0.00     0.076 A 
ATOM     12  HN  UNK N   1      29.414  15.967   5.196  1.00  0.00     0.167 HD
HETATM   13  C   UNK N   1      30.221  17.114   8.082  0.00  0.00     0.070 A 
HETATM   14  C   UNK N   1      28.071  17.568   7.134  0.00  0.00     0.119 A 
HETATM   15  C   UNK N   1      29.913  17.824   9.239  0.00  0.00     0.049 A 
HETATM   16  C   UNK N   1      28.635  18.408   9.305  0.00  0.00     0.090 A 
HETATM   17  N   UNK N   1      27.751  18.271   8.264  0.00  0.00    -0.373 N 
ATOM     18  HN  UNK N   1      26.830  18.704   8.334  1.00  0.00     0.164 HD
ENDBRANCH   4   7
BRANCH   1  19
HETATM   19  C   UNK N   1      35.981  15.835  11.079  0.00  0.00     0.171 C 
BRANCH  19  20
HETATM   20  N   UNK N   1      36.565  14.480  11.177  0.00  0.00    -0.303 N 
HETATM   21  C   UNK N   1      37.123  13.704  10.170  0.00  0.00     0.291 A 
HETATM   22  S   UNK N   1      37.623  12.249  10.780  0.00  0.00    -0.027 SA
HETATM   23  O   UNK N   1      37.249  14.035   9.007  0.00  0.00    -0.259 OA
HETATM   24  C   UNK N   1      37.182  12.532  12.340  0.00  0.00     0.037 A 
HETATM   25  C   UNK N   1      36.614  13.811  12.388  0.00  0.00     0.055 A 
HETATM   26  C   UNK N   1      37.319  11.728  13.462  0.00  0.00     0.021 A 
HETATM   27  C   UNK N   1      36.160  14.320  13.608  0.00  0.00     0.031 A 
HETATM   28  C   UNK N   1      36.292  13.525  14.762  0.00  0.00     0.002 A 
HETATM   29  C   UNK N   1      36.865  12.238  14.689  0.00  0.00     0.002 A 
ENDBRANCH  19  20
ENDBRANCH   1  19
TORSDOF 3
ENDMDL
MODEL 2
REMARK VINA RESULT:      -7.7      1.480      2.346
REMARK  3 active torsions:
REMARK  status: ('A' for Active; 'I' for Inactive)
REMARK    1  A    between atoms: N_3  and  C_10 
REMARK    2  A    between atoms: C_10  and  C_11 
REMARK    3  A    between atoms: C_14  and  N_17 
ROOT
HETATM    1  C   UNK N   1      34.791  16.009  10.254  0.00  0.00    -0.040 A 
HETATM    2  C   UNK N   1      33.766  15.072  10.083  0.00  0.00     0.011 A 
HETATM    3  C   UNK N   1      32.717  15.338   9.198  0.00  0.00     0.030 A 
HETATM    4  C   UNK N   1      32.662  16.566   8.518  0.00  0.00     0.041 A 
HETATM    5  C   UNK N   1      33.701  17.488   8.683  0.00  0.00     0.030 A 
HETATM    6  C   UNK N   1      34.777  17.197   9.517  0.00  0.00     0.011 A 
ENDROOT
BRANCH   4   7
HETATM    7  N   UNK N   1      31.564  16.870   7.639  0.00  0.00    -0.299 N 
HETATM    8  C   UNK N   1      31.483  16.657   6.295  0.00  0.00     0.085 A 
HETATM    9  N   UNK N   1      30.285  17.043   5.785  0.00  0.00    -0.343 N 
HETATM   10  C   UNK N   1      32.583  16.112   5.448  0.00  0.00     0.089 C 
HETATM   11  C   UNK N   1      29.607  17.493   6.855  0.00  0.00     0.076 A 
ATOM     12  HN  UNK N   1      29.973  17.001   4.814  1.00  0.00     0.167 HD
HETATM   13  C   UNK N   1      30.377  17.402   7.972  0.00  0.00     0.070 A 
HETATM   14  C   UNK N   1      28.304  17.964   6.915  0.00  0.00     0.119 A 
HETATM   15  C   UNK N   1      29.892  17.768   9.224  0.00  0.00     0.049 A 
HETATM   16  C   UNK N   1      28.569  18.242   9.280  0.00  0.00     0.090 A 
HETATM   17  N   UNK N   1      27.811  18.330   8.138  0.00  0.00    -0.373 N 
ATOM     18  HN  UNK N   1      26.854  18.677   8.203  1.00  0.00     0.164 HD
ENDBRANCH   4   7
BRANCH   1  19
HETATM   19  C   UNK N   1      35.895  15.729  11.221  0.00  0.00     0.171 C 
BRANCH  19  20
HETATM   20  N   UNK N   1      36.209  14.301  11.441  0.00  0.00    -0.303 N 
HETATM   21  C   UNK N   1      35.654  13.427  12.366  0.00  0.00     0.291 A 
HETATM   22  S   UNK N   1      36.352  11.933  12.232  0.00  0.00    -0.027 SA
HETATM   23  O   UNK N   1      34.771  13.698  13.157  0.00  0.00    -0.259 OA
HETATM   24  C   UNK N   1      37.369  12.307  10.993  0.00  0.00     0.037 A 
HETATM   25  C   UNK N   1      37.162  13.653  10.675  0.00  0.00     0.055 A 
HETATM   26  C   UNK N   1      38.280  11.506  10.320  0.00  0.00     0.021 A 
HETATM   27  C   UNK N   1      37.892  14.238   9.635  0.00  0.00     0.031 A 
HETATM   28  C   UNK N   1      38.820  13.445   8.933  0.00  0.00     0.002 A 
HETATM   29  C   UNK N   1      39.013  12.090   9.275  0.00  0.00     0.002 A 
ENDBRANCH  19  20
ENDBRANCH   1  19
TORSDOF 3
ENDMDL
MODEL 3
REMARK VINA RESULT:      -7.7      2.795      8.134
REMARK  3 active torsions:
REMARK  status: ('A' for Active; 'I' for Inactive)
REMARK    1  A    between atoms: N_3  and  C_10 
REMARK    2  A    between atoms: C_10  and  C_11 
REMARK    3  A    between atoms: C_14  and  N_17 
ROOT
HETATM    1  C   UNK N   1      34.119  16.650   8.002  0.00  0.00    -0.040 A 
HETATM    2  C   UNK N   1      34.474  15.386   7.520  0.00  0.00     0.011 A 
HETATM    3  C   UNK N   1      35.247  14.530   8.309  0.00  0.00     0.030 A 
HETATM    4  C   UNK N   1      35.712  14.954   9.565  0.00  0.00     0.041 A 
HETATM    5  C   UNK N   1      35.336  16.214  10.045  0.00  0.00     0.030 A 
HETATM    6  C   UNK N   1      34.516  17.042   9.284  0.00  0.00     0.011 A 
ENDROOT
BRANCH   4   7
HETATM    7  N   UNK N   1      36.546  14.099  10.368  0.00  0.00    -0.299 N 
HETATM    8  C   UNK N   1      37.873  13.834  10.208  0.00  0.00     0.085 A 
HETATM    9  N   UNK N   1      38.349  12.998  11.166  0.00  0.00    -0.343 N 
HETATM   10  C   UNK N   1      38.720  14.348   9.093  0.00  0.00     0.089 C 
HETATM   11  C   UNK N   1      37.280  12.757  11.945  0.00  0.00     0.076 A 
ATOM     12  HN  UNK N   1      39.298  12.637  11.271  1.00  0.00     0.167 HD
HETATM   13  C   UNK N   1      36.189  13.408  11.462  0.00  0.00     0.070 A 
HETATM   14  C   UNK N   1      37.211  12.000  13.105  0.00  0.00     0.119 A 
HETATM   15  C   UNK N   1      34.959  13.354  12.111  0.00  0.00     0.049 A 
HETATM   16  C   UNK N   1      34.897  12.588  13.290  0.00  0.00     0.090 A 
HETATM   17  N   UNK N   1      36.010  11.934  13.757  0.00  0.00    -0.373 N 
ATOM     18  HN  UNK N   1      35.940  11.385  14.614  1.00  0.00     0.164 HD
ENDBRANCH   4   7
BRANCH   1  19
HETATM   19  C   UNK N   1      33.314  17.570   7.143  0.00  0.00     0.171 C 
BRANCH  19  20
HETATM   20  N   UNK N   1      31.923  17.146   6.876  0.00  0.00    -0.303 N 
HETATM   21  C   UNK N   1      31.445  16.345   5.848  0.00  0.00     0.291 A 
HETATM   22  S   UNK N   1      29.804  16.173   5.971  0.00  0.00    -0.027 SA
HETATM   23  O   UNK N   1      32.122  15.823   4.983  0.00  0.00    -0.259 OA
HETATM   24  C   UNK N   1      29.618  17.079   7.333  0.00  0.00     0.037 A 
HETATM   25  C   UNK N   1      30.886  17.541   7.703  0.00  0.00     0.055 A 
HETATM   26  C   UNK N   1      28.470  17.373   8.055  0.00  0.00     0.021 A 
HETATM   27  C   UNK N   1      31.026  18.333   8.848  0.00  0.00     0.031 A 
HETATM   28  C   UNK N   1      29.877  18.641   9.600  0.00  0.00     0.002 A 
HETATM   29  C   UNK N   1      28.608  18.166   9.205  0.00  0.00     0.002 A 
ENDBRANCH  19  20
ENDBRANCH   1  19
TORSDOF 3
ENDMDL
MODEL 4
REMARK VINA RESULT:      -7.6      1.193      2.353
REMARK  3 active torsions:
REMARK  status: ('A' for Active; 'I' for Inactive)
REMARK    1  A    between atoms: N_3  and  C_10 
REMARK    2  A    between atoms: C_10  and  C_11 
REMARK    3  A    between atoms: C_14  and  N_17 
ROOT
HETATM    1  C   UNK N   1      34.687  16.368   9.756  0.00  0.00    -0.040 A 
HETATM    2  C   UNK N   1      33.659  15.419   9.732  0.00  0.00     0.011 A 
HETATM    3  C   UNK N   1      32.510  15.653   8.971  0.00  0.00     0.030 A 
HETATM    4  C   UNK N   1      32.362  16.861   8.269  0.00  0.00     0.041 A 
HETATM    5  C   UNK N   1      33.404  17.795   8.285  0.00  0.00     0.030 A 
HETATM    6  C   UNK N   1      34.574  17.535   8.994  0.00  0.00     0.011 A 
ENDROOT
BRANCH   4   7
HETATM    7  N   UNK N   1      31.165  17.132   7.518  0.00  0.00    -0.299 N 
HETATM    8  C   UNK N   1      29.963  17.571   7.987  0.00  0.00     0.085 A 
HETATM    9  N   UNK N   1      29.056  17.746   6.993  0.00  0.00    -0.343 N 
HETATM   10  C   UNK N   1      29.637  17.795   9.425  0.00  0.00     0.089 C 
HETATM   11  C   UNK N   1      29.731  17.416   5.877  0.00  0.00     0.076 A 
ATOM     12  HN  UNK N   1      28.087  18.056   7.073  1.00  0.00     0.167 HD
HETATM   13  C   UNK N   1      30.998  17.035   6.189  0.00  0.00     0.070 A 
HETATM   14  C   UNK N   1      29.296  17.461   4.561  0.00  0.00     0.119 A 
HETATM   15  C   UNK N   1      31.916  16.682   5.206  0.00  0.00     0.049 A 
HETATM   16  C   UNK N   1      31.471  16.732   3.872  0.00  0.00     0.090 A 
HETATM   17  N   UNK N   1      30.185  17.116   3.581  0.00  0.00    -0.373 N 
ATOM     18  HN  UNK N   1      29.885  17.145   2.606  1.00  0.00     0.164 HD
ENDBRANCH   4   7
BRANCH   1  19
HETATM   19  C   UNK N   1      35.901  16.123  10.592  0.00  0.00     0.171 C 
BRANCH  19  20
HETATM   20  N   UNK N   1      36.368  14.721  10.650  0.00  0.00    -0.303 N 
HETATM   21  C   UNK N   1      36.765  13.897   9.606  0.00  0.00     0.291 A 
HETATM   22  S   UNK N   1      37.185  12.404  10.182  0.00  0.00    -0.027 SA
HETATM   23  O   UNK N   1      36.819  14.215   8.434  0.00  0.00    -0.259 OA
HETATM   24  C   UNK N   1      36.907  12.727  11.772  0.00  0.00     0.037 A 
HETATM   25  C   UNK N   1      36.462  14.051  11.857  0.00  0.00     0.055 A 
HETATM   26  C   UNK N   1      37.068  11.915  12.885  0.00  0.00     0.021 A 
HETATM   27  C   UNK N   1      36.163  14.600  13.109  0.00  0.00     0.031 A 
HETATM   28  C   UNK N   1      36.322  13.797  14.254  0.00  0.00     0.002 A 
HETATM   29  C   UNK N   1      36.770  12.464  14.142  0.00  0.00     0.002 A 
ENDBRANCH  19  20
ENDBRANCH   1  19
TORSDOF 3
ENDMDL
MODEL 5
REMARK VINA RESULT:      -7.5      2.109      2.814
REMARK  3 active torsions:
REMARK  status: ('A' for Active; 'I' for Inactive)
REMARK    1  A    between atoms: N_3  and  C_10 
REMARK    2  A    between atoms: C_10  and  C_11 
REMARK    3  A    between atoms: C_14  and  N_17 
ROOT
HETATM    1  C   UNK N   1      34.353  15.548   7.770  0.00  0.00    -0.040 A 
HETATM    2  C   UNK N   1      34.325  16.902   7.420  0.00  0.00     0.011 A 
HETATM    3  C   UNK N   1      33.192  17.442   6.805  0.00  0.00     0.030 A 
HETATM    4  C   UNK N   1      32.099  16.617   6.491  0.00  0.00     0.041 A 
HETATM    5  C   UNK N   1      32.130  15.268   6.862  0.00  0.00     0.030 A 
HETATM    6  C   UNK N   1      33.234  14.745   7.529  0.00  0.00     0.011 A 
ENDROOT
BRANCH   4   7
HETATM    7  N   UNK N   1      30.945  17.151   5.817  0.00  0.00    -0.299 N 
HETATM    8  C   UNK N   1      30.734  17.260   4.475  0.00  0.00     0.085 A 
HETATM    9  N   UNK N   1      29.518  17.791   4.188  0.00  0.00    -0.343 N 
HETATM   10  C   UNK N   1      31.725  16.895   3.422  0.00  0.00     0.089 C 
HETATM   11  C   UNK N   1      28.962  17.998   5.394  0.00  0.00     0.076 A 
ATOM     12  HN  UNK N   1      29.119  17.986   3.269  1.00  0.00     0.167 HD
HETATM   13  C   UNK N   1      29.821  17.625   6.379  0.00  0.00     0.070 A 
HETATM   14  C   UNK N   1      27.696  18.481   5.689  0.00  0.00     0.119 A 
HETATM   15  C   UNK N   1      29.469  17.703   7.723  0.00  0.00     0.049 A 
HETATM   16  C   UNK N   1      28.182  18.191   8.016  0.00  0.00     0.090 A 
HETATM   17  N   UNK N   1      27.332  18.566   7.005  0.00  0.00    -0.373 N 
ATOM     18  HN  UNK N   1      26.404  18.917   7.241  1.00  0.00     0.164 HD
ENDBRANCH   4   7
BRANCH   1  19
HETATM   19  C   UNK N   1      35.577  14.973   8.404  0.00  0.00     0.171 C 
BRANCH  19  20
HETATM   20  N   UNK N   1      35.562  14.902   9.881  0.00  0.00    -0.303 N 
HETATM   21  C   UNK N   1      35.775  15.922  10.798  0.00  0.00     0.291 A 
HETATM   22  S   UNK N   1      35.671  15.336  12.342  0.00  0.00    -0.027 SA
HETATM   23  O   UNK N   1      35.993  17.087  10.525  0.00  0.00    -0.259 OA
HETATM   24  C   UNK N   1      35.332  13.778  11.933  0.00  0.00     0.037 A 
HETATM   25  C   UNK N   1      35.306  13.709  10.535  0.00  0.00     0.055 A 
HETATM   26  C   UNK N   1      35.089  12.679  12.744  0.00  0.00     0.021 A 
HETATM   27  C   UNK N   1      35.024  12.492   9.908  0.00  0.00     0.031 A 
HETATM   28  C   UNK N   1      34.769  11.363  10.710  0.00  0.00     0.002 A 
HETATM   29  C   UNK N   1      34.803  11.456  12.117  0.00  0.00     0.002 A 
ENDBRANCH  19  20
ENDBRANCH   1  19
TORSDOF 3
ENDMDL
MODEL 6
REMARK VINA RESULT:      -7.4     10.194     12.234
REMARK  3 active torsions:
REMARK  status: ('A' for Active; 'I' for Inactive)
REMARK    1  A    between atoms: N_3  and  C_10 
REMARK    2  A    between atoms: C_10  and  C_11 
REMARK    3  A    between atoms: C_14  and  N_17 
ROOT
HETATM    1  C   UNK N   1      21.651  15.043   5.466  0.00  0.00    -0.040 A 
HETATM    2  C   UNK N   1      21.907  16.127   6.312  0.00  0.00     0.011 A 
HETATM    3  C   UNK N   1      22.507  17.282   5.804  0.00  0.00     0.030 A 
HETATM    4  C   UNK N   1      22.901  17.340   4.457  0.00  0.00     0.041 A 
HETATM    5  C   UNK N   1      22.623  16.257   3.615  0.00  0.00     0.030 A 
HETATM    6  C   UNK N   1      21.971  15.130   4.107  0.00  0.00     0.011 A 
ENDROOT
BRANCH   4   7
HETATM    7  N   UNK N   1      23.560  18.507   3.933  0.00  0.00    -0.299 N 
HETATM    8  C   UNK N   1      22.989  19.630   3.414  0.00  0.00     0.085 A 
HETATM    9  N   UNK N   1      23.914  20.548   3.035  0.00  0.00    -0.343 N 
HETATM   10  C   UNK N   1      21.524  19.834   3.226  0.00  0.00     0.089 C 
HETATM   11  C   UNK N   1      25.088  19.973   3.346  0.00  0.00     0.076 A 
ATOM     12  HN  UNK N   1      23.754  21.463   2.612  1.00  0.00     0.167 HD
HETATM   13  C   UNK N   1      24.882  18.739   3.877  0.00  0.00     0.070 A 
HETATM   14  C   UNK N   1      26.366  20.496   3.216  0.00  0.00     0.119 A 
HETATM   15  C   UNK N   1      25.938  17.949   4.320  0.00  0.00     0.049 A 
HETATM   16  C   UNK N   1      27.232  18.486   4.189  0.00  0.00     0.090 A 
HETATM   17  N   UNK N   1      27.418  19.733   3.646  0.00  0.00    -0.373 N 
ATOM     18  HN  UNK N   1      28.365  20.102   3.561  1.00  0.00     0.164 HD
ENDBRANCH   4   7
BRANCH   1  19
HETATM   19  C   UNK N   1      21.032  13.801   6.020  0.00  0.00     0.171 C 
BRANCH  19  20
HETATM   20  N   UNK N   1      21.954  12.884   6.725  0.00  0.00    -0.303 N 
HETATM   21  C   UNK N   1      22.944  12.071   6.188  0.00  0.00     0.291 A 
HETATM   22  S   UNK N   1      23.696  11.217   7.389  0.00  0.00    -0.027 SA
HETATM   23  O   UNK N   1      23.239  11.997   5.011  0.00  0.00    -0.259 OA
HETATM   24  C   UNK N   1      22.830  11.842   8.641  0.00  0.00     0.037 A 
HETATM   25  C   UNK N   1      21.911  12.749   8.101  0.00  0.00     0.055 A 
HETATM   26  C   UNK N   1      22.929  11.591  10.002  0.00  0.00     0.021 A 
HETATM   27  C   UNK N   1      21.047  13.446   8.952  0.00  0.00     0.031 A 
HETATM   28  C   UNK N   1      21.131  13.212  10.338  0.00  0.00     0.002 A 
HETATM   29  C   UNK N   1      22.064  12.291  10.858  0.00  0.00     0.002 A 
ENDBRANCH  19  20
ENDBRANCH   1  19
TORSDOF 3
ENDMDL
MODEL 7
REMARK VINA RESULT:      -7.4      5.463      8.556
REMARK  3 active torsions:
REMARK  status: ('A' for Active; 'I' for Inactive)
REMARK    1  A    between atoms: N_3  and  C_10 
REMARK    2  A    between atoms: C_10  and  C_11 
REMARK    3  A    between atoms: C_14  and  N_17 
ROOT
HETATM    1  C   UNK N   1      28.126  16.608   5.094  0.00  0.00    -0.040 A 
HETATM    2  C   UNK N   1      27.417  16.242   3.945  0.00  0.00     0.011 A 
HETATM    3  C   UNK N   1      26.342  17.022   3.510  0.00  0.00     0.030 A 
HETATM    4  C   UNK N   1      25.938  18.145   4.252  0.00  0.00     0.041 A 
HETATM    5  C   UNK N   1      26.665  18.512   5.390  0.00  0.00     0.030 A 
HETATM    6  C   UNK N   1      27.773  17.769   5.788  0.00  0.00     0.011 A 
ENDROOT
BRANCH   4   7
HETATM    7  N   UNK N   1      24.804  18.930   3.839  0.00  0.00    -0.299 N 
HETATM    8  C   UNK N   1      24.806  20.096   3.134  0.00  0.00     0.085 A 
HETATM    9  N   UNK N   1      23.550  20.553   2.896  0.00  0.00    -0.343 N 
HETATM   10  C   UNK N   1      26.028  20.834   2.705  0.00  0.00     0.089 C 
HETATM   11  C   UNK N   1      22.755  19.627   3.461  0.00  0.00     0.076 A 
ATOM     12  HN  UNK N   1      23.273  21.402   2.402  1.00  0.00     0.167 HD
HETATM   13  C   UNK N   1      23.506  18.653   4.040  0.00  0.00     0.070 A 
HETATM   14  C   UNK N   1      21.370  19.570   3.472  0.00  0.00     0.119 A 
HETATM   15  C   UNK N   1      22.922  17.554   4.661  0.00  0.00     0.049 A 
HETATM   16  C   UNK N   1      21.516  17.499   4.666  0.00  0.00     0.090 A 
HETATM   17  N   UNK N   1      20.777  18.497   4.079  0.00  0.00    -0.373 N 
ATOM     18  HN  UNK N   1      19.759  18.436   4.095  1.00  0.00     0.164 HD
ENDBRANCH   4   7
BRANCH   1  19
HETATM   19  C   UNK N   1      29.258  15.756   5.568  0.00  0.00     0.171 C 
BRANCH  19  20
HETATM   20  N   UNK N   1      30.614  16.278   5.292  0.00  0.00    -0.303 N 
HETATM   21  C   UNK N   1      31.294  16.322   4.082  0.00  0.00     0.291 A 
HETATM   22  S   UNK N   1      32.794  16.986   4.293  0.00  0.00    -0.027 SA
HETATM   23  O   UNK N   1      30.858  15.947   3.011  0.00  0.00    -0.259 OA
HETATM   24  C   UNK N   1      32.654  17.268   5.909  0.00  0.00     0.037 A 
HETATM   25  C   UNK N   1      31.388  16.821   6.302  0.00  0.00     0.055 A 
HETATM   26  C   UNK N   1      33.555  17.846   6.791  0.00  0.00     0.021 A 
HETATM   27  C   UNK N   1      30.992  16.954   7.637  0.00  0.00     0.031 A 
HETATM   28  C   UNK N   1      31.887  17.541   8.551  0.00  0.00     0.002 A 
HETATM   29  C   UNK N   1      33.160  17.983   8.131  0.00  0.00     0.002 A 
ENDBRANCH  19  20
ENDBRANCH   1  19
TORSDOF 3
ENDMDL
MODEL 8
REMARK VINA RESULT:      -7.3      1.799      3.344
REMARK  3 active torsions:
REMARK  status: ('A' for Active; 'I' for Inactive)
REMARK    1  A    between atoms: N_3  and  C_10 
REMARK    2  A    between atoms: C_10  and  C_11 
REMARK    3  A    between atoms: C_14  and  N_17 
ROOT
HETATM    1  C   UNK N   1      34.847  16.011  10.280  0.00  0.00    -0.040 A 
HETATM    2  C   UNK N   1      33.854  15.058  10.028  0.00  0.00     0.011 A 
HETATM    3  C   UNK N   1      32.837  15.335   9.111  0.00  0.00     0.030 A 
HETATM    4  C   UNK N   1      32.780  16.588   8.477  0.00  0.00     0.041 A 
HETATM    5  C   UNK N   1      33.789  17.527   8.723  0.00  0.00     0.030 A 
HETATM    6  C   UNK N   1      34.835  17.227   9.591  0.00  0.00     0.011 A 
ENDROOT
BRANCH   4   7
HETATM    7  N   UNK N   1      31.713  16.902   7.564  0.00  0.00    -0.299 N 
HETATM    8  C   UNK N   1      30.426  17.235   7.863  0.00  0.00     0.085 A 
HETATM    9  N   UNK N   1      29.691  17.493   6.751  0.00  0.00    -0.343 N 
HETATM   10  C   UNK N   1      29.850  17.273   9.238  0.00  0.00     0.089 C 
HETATM   11  C   UNK N   1      30.562  17.326   5.741  0.00  0.00     0.076 A 
ATOM     12  HN  UNK N   1      28.706  17.754   6.696  1.00  0.00     0.167 HD
HETATM   13  C   UNK N   1      31.778  16.959   6.224  0.00  0.00     0.070 A 
HETATM   14  C   UNK N   1      30.353  17.512   4.383  0.00  0.00     0.119 A 
HETATM   15  C   UNK N   1      32.868  16.761   5.383  0.00  0.00     0.049 A 
HETATM   16  C   UNK N   1      32.652  16.954   4.006  0.00  0.00     0.090 A 
HETATM   17  N   UNK N   1      31.414  17.321   3.539  0.00  0.00    -0.373 N 
ATOM     18  HN  UNK N   1      31.281  17.455   2.537  1.00  0.00     0.164 HD
ENDBRANCH   4   7
BRANCH   1  19
HETATM   19  C   UNK N   1      35.917  15.718  11.281  0.00  0.00     0.171 C 
BRANCH  19  20
HETATM   20  N   UNK N   1      36.233  14.287  11.484  0.00  0.00    -0.303 N 
HETATM   21  C   UNK N   1      35.676  13.399  12.394  0.00  0.00     0.291 A 
HETATM   22  S   UNK N   1      36.378  11.909  12.242  0.00  0.00    -0.027 SA
HETATM   23  O   UNK N   1      34.790  13.658  13.185  0.00  0.00    -0.259 OA
HETATM   24  C   UNK N   1      37.399  12.302  11.013  0.00  0.00     0.037 A 
HETATM   25  C   UNK N   1      37.190  13.653  10.712  0.00  0.00     0.055 A 
HETATM   26  C   UNK N   1      38.315  11.514  10.331  0.00  0.00     0.021 A 
HETATM   27  C   UNK N   1      37.923  14.253   9.683  0.00  0.00     0.031 A 
HETATM   28  C   UNK N   1      38.855  13.473   8.974  0.00  0.00     0.002 A 
HETATM   29  C   UNK N   1      39.050  12.113   9.297  0.00  0.00     0.002 A 
ENDBRANCH  19  20
ENDBRANCH   1  19
TORSDOF 3
ENDMDL
MODEL 9
REMARK VINA RESULT:      -7.3      2.928      4.510
REMARK  3 active torsions:
REMARK  status: ('A' for Active; 'I' for Inactive)
REMARK    1  A    between atoms: N_3  and  C_10 
REMARK    2  A    between atoms: C_10  and  C_11 
REMARK    3  A    between atoms: C_14  and  N_17 
ROOT
HETATM    1  C   UNK N   1      32.753  17.377   6.272  0.00  0.00    -0.040 A 
HETATM    2  C   UNK N   1      31.643  17.099   7.076  0.00  0.00     0.011 A 
HETATM    3  C   UNK N   1      30.369  17.017   6.506  0.00  0.00     0.030 A 
HETATM    4  C   UNK N   1      30.193  17.263   5.134  0.00  0.00     0.041 A 
HETATM    5  C   UNK N   1      31.312  17.522   4.335  0.00  0.00     0.030 A 
HETATM    6  C   UNK N   1      32.587  17.544   4.893  0.00  0.00     0.011 A 
ENDROOT
BRANCH   4   7
HETATM    7  N   UNK N   1      28.881  17.226   4.544  0.00  0.00    -0.299 N 
HETATM    8  C   UNK N   1      28.223  16.148   4.032  0.00  0.00     0.085 A 
HETATM    9  N   UNK N   1      26.986  16.470   3.576  0.00  0.00    -0.343 N 
HETATM   10  C   UNK N   1      28.790  14.772   3.926  0.00  0.00     0.089 C 
HETATM   11  C   UNK N   1      26.879  17.786   3.831  0.00  0.00     0.076 A 
ATOM     12  HN  UNK N   1      26.297  15.856   3.141  1.00  0.00     0.167 HD
HETATM   13  C   UNK N   1      28.022  18.248   4.404  0.00  0.00     0.070 A 
HETATM   14  C   UNK N   1      25.794  18.622   3.613  0.00  0.00     0.119 A 
HETATM   15  C   UNK N   1      28.153  19.575   4.803  0.00  0.00     0.049 A 
HETATM   16  C   UNK N   1      27.048  20.417   4.582  0.00  0.00     0.090 A 
HETATM   17  N   UNK N   1      25.905  19.930   3.998  0.00  0.00    -0.373 N 
ATOM     18  HN  UNK N   1      25.117  20.559   3.848  1.00  0.00     0.164 HD
ENDBRANCH   4   7
BRANCH   1  19
HETATM   19  C   UNK N   1      34.107  17.489   6.892  0.00  0.00     0.171 C 
BRANCH  19  20
HETATM   20  N   UNK N   1      34.733  16.212   7.300  0.00  0.00    -0.303 N 
HETATM   21  C   UNK N   1      35.095  15.133   6.505  0.00  0.00     0.291 A 
HETATM   22  S   UNK N   1      35.745  13.930   7.436  0.00  0.00    -0.027 SA
HETATM   23  O   UNK N   1      34.974  15.071   5.297  0.00  0.00    -0.259 OA
HETATM   24  C   UNK N   1      35.622  14.714   8.878  0.00  0.00     0.037 A 
HETATM   25  C   UNK N   1      35.044  15.963   8.625  0.00  0.00     0.055 A 
HETATM   26  C   UNK N   1      36.004  14.305  10.147  0.00  0.00     0.021 A 
HETATM   27  C   UNK N   1      34.834  16.854   9.683  0.00  0.00     0.031 A 
HETATM   28  C   UNK N   1      35.217  16.463  10.980  0.00  0.00     0.002 A 
HETATM   29  C   UNK N   1      35.796  15.197  11.210  0.00  0.00     0.002 A 
ENDBRANCH  19  20
ENDBRANCH   1  19
TORSDOF 3
ENDMDL
