MODEL 1
REMARK VINA RESULT:      -6.2      0.000      0.000
REMARK  10 active torsions:
REMARK  status: ('A' for Active; 'I' for Inactive)
REMARK    1  A    between atoms: C_1  and  C_10 
REMARK    2  A    between atoms: C_1  and  O_19 
REMARK    3  A    between atoms: C_4  and  N_2 
REMARK    4  A    between atoms: C_5  and  C_4 
REMARK    5  A    between atoms: C_7  and  C_4 
REMARK    6  A    between atoms: C_6  and  C_5 
REMARK    7  A    between atoms: C_7  and  O_8 
REMARK    8  A    between atoms: C_7  and  C_12 
REMARK    9  A    between atoms: C_10  and  C_12 
REMARK   10  A    between atoms: C_10  and  C_11 
ROOT
HETATM    1  C   UNK N   1      27.110  24.534  -3.926  0.00  0.00     0.141 C 
ENDROOT
BRANCH   1   2
HETATM    2  C   UNK N   1      25.881  24.332  -4.833  0.00  0.00     0.103 C 
BRANCH   2   3
HETATM    3  N   UNK N   1      26.237  23.529  -5.996  0.00  0.00    -0.424 N 
HETATM    4  H   UNK N   1      26.977  22.830  -5.944  0.00  0.00     0.150 HD
HETATM    5  H   UNK N   1      25.738  23.670  -6.875  0.00  0.00     0.150 HD
ENDBRANCH   2   3
BRANCH   2   6
HETATM    6  C   UNK N   1      25.309  25.680  -5.292  0.00  0.00     0.031 C 
BRANCH   6   7
HETATM    7  C   UNK N   1      26.229  26.839  -4.937  0.00  0.00    -0.013 C 
HETATM    8  C   UNK N   1      26.672  27.559  -6.207  0.00  0.00     0.005 C 
HETATM    9  C   UNK N   1      27.654  28.671  -5.854  0.00  0.00     0.000 C 
HETATM   10  C   UNK N   1      27.016  29.651  -4.871  0.00  0.00     0.000 C 
HETATM   11  C   UNK N   1      26.533  28.922  -3.618  0.00  0.00     0.000 C 
HETATM   12  C   UNK N   1      25.545  27.819  -3.994  0.00  0.00     0.005 C 
ENDBRANCH   6   7
ENDBRANCH   2   6
ENDBRANCH   1   2
BRANCH   1  13
HETATM   13  O   UNK N   1      26.897  23.958  -2.671  0.00  0.00    -0.394 OA
HETATM   14  H   UNK N   1      26.361  23.156  -2.578  0.00  0.00     0.210 HD
ENDBRANCH   1  13
BRANCH   1  15
HETATM   15  C   UNK N   1      28.443  24.031  -4.519  0.00  0.00     0.049 C 
BRANCH  15  16
HETATM   16  C   UNK N   1      29.362  23.039  -3.760  0.00  0.00     0.089 C 
BRANCH  16  17
HETATM   17  C   UNK N   1      30.189  23.680  -2.661  0.00  0.00     0.144 C 
HETATM   18  O   UNK N   1      30.768  24.732  -2.870  0.00  0.00    -0.650 OA
BRANCH  17  19
HETATM   19  O   UNK N   1      30.345  23.073  -1.469  0.00  0.00    -0.776 OA
HETATM   20  H   UNK N   1      30.377  22.139  -1.406  0.00  0.00     0.167 HD
ENDBRANCH  17  19
ENDBRANCH  16  17
BRANCH  16  21
HETATM   21  C   UNK N   1      30.187  22.118  -4.694  0.00  0.00    -0.009 C 
HETATM   22  C   UNK N   1      30.600  20.804  -4.047  0.00  0.00     0.010 C 
HETATM   23  C   UNK N   1      29.439  21.801  -5.980  0.00  0.00     0.010 C 
ENDBRANCH  16  21
ENDBRANCH  15  16
ENDBRANCH   1  15
TORSDOF 10
ENDMDL
MODEL 2
REMARK VINA RESULT:      -6.1     11.562     14.511
REMARK  10 active torsions:
REMARK  status: ('A' for Active; 'I' for Inactive)
REMARK    1  A    between atoms: C_1  and  C_10 
REMARK    2  A    between atoms: C_1  and  O_19 
REMARK    3  A    between atoms: C_4  and  N_2 
REMARK    4  A    between atoms: C_5  and  C_4 
REMARK    5  A    between atoms: C_7  and  C_4 
REMARK    6  A    between atoms: C_6  and  C_5 
REMARK    7  A    between atoms: C_7  and  O_8 
REMARK    8  A    between atoms: C_7  and  C_12 
REMARK    9  A    between atoms: C_10  and  C_12 
REMARK   10  A    between atoms: C_10  and  C_11 
ROOT
HETATM    1  C   UNK N   1      28.258  17.850   8.426  0.00  0.00     0.141 C 
ENDROOT
BRANCH   1   2
HETATM    2  C   UNK N   1      29.564  17.297   9.028  0.00  0.00     0.103 C 
BRANCH   2   3
HETATM    3  N   UNK N   1      29.425  17.129  10.469  0.00  0.00    -0.424 N 
HETATM    4  H   UNK N   1      29.820  16.317  10.943  0.00  0.00     0.150 HD
HETATM    5  H   UNK N   1      28.925  17.834  11.011  0.00  0.00     0.150 HD
ENDBRANCH   2   3
BRANCH   2   6
HETATM    6  C   UNK N   1      30.745  18.230   8.730  0.00  0.00     0.031 C 
BRANCH   6   7
HETATM    7  C   UNK N   1      31.906  17.489   8.082  0.00  0.00    -0.013 C 
HETATM    8  C   UNK N   1      31.545  17.110   6.649  0.00  0.00     0.005 C 
HETATM    9  C   UNK N   1      32.678  16.301   6.029  0.00  0.00     0.000 C 
HETATM   10  C   UNK N   1      33.982  17.097   6.065  0.00  0.00     0.000 C 
HETATM   11  C   UNK N   1      34.320  17.515   7.495  0.00  0.00     0.000 C 
HETATM   12  C   UNK N   1      33.175  18.331   8.093  0.00  0.00     0.005 C 
ENDBRANCH   6   7
ENDBRANCH   2   6
ENDBRANCH   1   2
BRANCH   1  13
HETATM   13  O   UNK N   1      27.366  18.220   9.435  0.00  0.00    -0.394 OA
HETATM   14  H   UNK N   1      27.691  18.562  10.283  0.00  0.00     0.210 HD
ENDBRANCH   1  13
BRANCH   1  15
HETATM   15  C   UNK N   1      28.444  19.016   7.432  0.00  0.00     0.049 C 
BRANCH  15  16
HETATM   16  C   UNK N   1      27.760  19.033   6.041  0.00  0.00     0.089 C 
BRANCH  16  17
HETATM   17  C   UNK N   1      28.342  18.039   5.054  0.00  0.00     0.144 C 
HETATM   18  O   UNK N   1      27.883  16.911   4.983  0.00  0.00    -0.650 OA
BRANCH  17  19
HETATM   19  O   UNK N   1      29.403  18.362   4.291  0.00  0.00    -0.776 OA
HETATM   20  H   UNK N   1      29.289  18.662   3.411  0.00  0.00     0.167 HD
ENDBRANCH  17  19
ENDBRANCH  16  17
BRANCH  16  21
HETATM   21  C   UNK N   1      27.584  20.455   5.453  0.00  0.00    -0.009 C 
HETATM   22  C   UNK N   1      26.685  20.502   4.225  0.00  0.00     0.010 C 
HETATM   23  C   UNK N   1      27.033  21.430   6.483  0.00  0.00     0.010 C 
ENDBRANCH  16  21
ENDBRANCH  15  16
ENDBRANCH   1  15
TORSDOF 10
ENDMDL
MODEL 3
REMARK VINA RESULT:      -6.1     11.886     14.028
REMARK  10 active torsions:
REMARK  status: ('A' for Active; 'I' for Inactive)
REMARK    1  A    between atoms: C_1  and  C_10 
REMARK    2  A    between atoms: C_1  and  O_19 
REMARK    3  A    between atoms: C_4  and  N_2 
REMARK    4  A    between atoms: C_5  and  C_4 
REMARK    5  A    between atoms: C_7  and  C_4 
REMARK    6  A    between atoms: C_6  and  C_5 
REMARK    7  A    between atoms: C_7  and  O_8 
REMARK    8  A    between atoms: C_7  and  C_12 
REMARK    9  A    between atoms: C_10  and  C_12 
REMARK   10  A    between atoms: C_10  and  C_11 
ROOT
HETATM    1  C   UNK N   1      30.343  18.350   9.050  0.00  0.00     0.141 C 
ENDROOT
BRANCH   1   2
HETATM    2  C   UNK N   1      29.011  18.717   8.368  0.00  0.00     0.103 C 
BRANCH   2   3
HETATM    3  N   UNK N   1      27.887  18.274   9.183  0.00  0.00    -0.424 N 
HETATM    4  H   UNK N   1      27.542  17.317   9.125  0.00  0.00     0.150 HD
HETATM    5  H   UNK N   1      27.439  18.933   9.820  0.00  0.00     0.150 HD
ENDBRANCH   2   3
BRANCH   2   6
HETATM    6  C   UNK N   1      28.916  18.086   6.972  0.00  0.00     0.031 C 
BRANCH   6   7
HETATM    7  C   UNK N   1      27.798  18.703   6.144  0.00  0.00    -0.013 C 
HETATM    8  C   UNK N   1      27.784  20.216   6.336  0.00  0.00     0.005 C 
HETATM    9  C   UNK N   1      26.615  20.823   5.567  0.00  0.00     0.000 C 
HETATM   10  C   UNK N   1      26.713  20.466   4.084  0.00  0.00     0.000 C 
HETATM   11  C   UNK N   1      26.771  18.951   3.895  0.00  0.00     0.000 C 
HETATM   12  C   UNK N   1      27.953  18.367   4.667  0.00  0.00     0.005 C 
ENDBRANCH   6   7
ENDBRANCH   2   6
ENDBRANCH   1   2
BRANCH   1  13
HETATM   13  O   UNK N   1      30.147  17.363  10.018  0.00  0.00    -0.394 OA
HETATM   14  H   UNK N   1      29.663  16.550   9.806  0.00  0.00     0.210 HD
ENDBRANCH   1  13
BRANCH   1  15
HETATM   15  C   UNK N   1      31.471  17.927   8.085  0.00  0.00     0.049 C 
BRANCH  15  16
HETATM   16  C   UNK N   1      32.900  17.589   8.583  0.00  0.00     0.089 C 
BRANCH  16  17
HETATM   17  C   UNK N   1      34.006  18.244   7.776  0.00  0.00     0.144 C 
HETATM   18  O   UNK N   1      34.128  17.987   6.590  0.00  0.00    -0.650 OA
BRANCH  17  19
HETATM   19  O   UNK N   1      34.899  19.062   8.363  0.00  0.00    -0.776 OA
HETATM   20  H   UNK N   1      35.067  19.917   8.018  0.00  0.00     0.167 HD
ENDBRANCH  17  19
ENDBRANCH  16  17
BRANCH  16  21
HETATM   21  C   UNK N   1      33.131  16.077   8.831  0.00  0.00    -0.009 C 
HETATM   22  C   UNK N   1      32.520  15.182   7.763  0.00  0.00     0.010 C 
HETATM   23  C   UNK N   1      34.610  15.742   8.944  0.00  0.00     0.010 C 
ENDBRANCH  16  21
ENDBRANCH  15  16
ENDBRANCH   1  15
TORSDOF 10
ENDMDL
MODEL 4
REMARK VINA RESULT:      -6.0     17.014     20.335
REMARK  10 active torsions:
REMARK  status: ('A' for Active; 'I' for Inactive)
REMARK    1  A    between atoms: C_1  and  C_10 
REMARK    2  A    between atoms: C_1  and  O_19 
REMARK    3  A    between atoms: C_4  and  N_2 
REMARK    4  A    between atoms: C_5  and  C_4 
REMARK    5  A    between atoms: C_7  and  C_4 
REMARK    6  A    between atoms: C_6  and  C_5 
REMARK    7  A    between atoms: C_7  and  O_8 
REMARK    8  A    between atoms: C_7  and  C_12 
REMARK    9  A    between atoms: C_10  and  C_12 
REMARK   10  A    between atoms: C_10  and  C_11 
ROOT
HETATM    1  C   UNK N   1      34.600  15.128  10.510  0.00  0.00     0.141 C 
ENDROOT
BRANCH   1   2
HETATM    2  C   UNK N   1      35.876  14.804  11.311  0.00  0.00     0.103 C 
BRANCH   2   3
HETATM    3  N   UNK N   1      37.060  15.184  10.551  0.00  0.00    -0.424 N 
HETATM    4  H   UNK N   1      37.886  14.587  10.534  0.00  0.00     0.150 HD
HETATM    5  H   UNK N   1      37.061  16.060  10.028  0.00  0.00     0.150 HD
ENDBRANCH   2   3
BRANCH   2   6
HETATM    6  C   UNK N   1      35.943  13.311  11.657  0.00  0.00     0.031 C 
BRANCH   6   7
HETATM    7  C   UNK N   1      36.236  13.081  13.133  0.00  0.00    -0.013 C 
HETATM    8  C   UNK N   1      36.416  14.422  13.840  0.00  0.00     0.005 C 
HETATM    9  C   UNK N   1      36.787  14.187  15.301  0.00  0.00     0.000 C 
HETATM   10  C   UNK N   1      35.714  13.349  15.994  0.00  0.00     0.000 C 
HETATM   11  C   UNK N   1      35.503  12.026  15.259  0.00  0.00     0.000 C 
HETATM   12  C   UNK N   1      35.124  12.285  13.801  0.00  0.00     0.005 C 
ENDBRANCH   6   7
ENDBRANCH   2   6
ENDBRANCH   1   2
BRANCH   1  13
HETATM   13  O   UNK N   1      33.463  14.969  11.306  0.00  0.00    -0.394 OA
HETATM   14  H   UNK N   1      33.032  14.104  11.387  0.00  0.00     0.210 HD
ENDBRANCH   1  13
BRANCH   1  15
HETATM   15  C   UNK N   1      34.588  16.521   9.845  0.00  0.00     0.049 C 
BRANCH  15  16
HETATM   16  C   UNK N   1      33.916  16.774   8.471  0.00  0.00     0.089 C 
BRANCH  16  17
HETATM   17  C   UNK N   1      34.431  18.005   7.749  0.00  0.00     0.144 C 
HETATM   18  O   UNK N   1      34.402  18.053   6.530  0.00  0.00    -0.650 OA
BRANCH  17  19
HETATM   19  O   UNK N   1      34.980  19.028   8.430  0.00  0.00    -0.776 OA
HETATM   20  H   UNK N   1      35.099  18.979   9.358  0.00  0.00     0.167 HD
ENDBRANCH  17  19
ENDBRANCH  16  17
BRANCH  16  21
HETATM   21  C   UNK N   1      32.370  16.684   8.509  0.00  0.00    -0.009 C 
HETATM   22  C   UNK N   1      31.679  18.039   8.530  0.00  0.00     0.010 C 
HETATM   23  C   UNK N   1      31.821  15.889   7.334  0.00  0.00     0.010 C 
ENDBRANCH  16  21
ENDBRANCH  15  16
ENDBRANCH   1  15
TORSDOF 10
ENDMDL
MODEL 5
REMARK VINA RESULT:      -5.8     11.962     14.068
REMARK  10 active torsions:
REMARK  status: ('A' for Active; 'I' for Inactive)
REMARK    1  A    between atoms: C_1  and  C_10 
REMARK    2  A    between atoms: C_1  and  O_19 
REMARK    3  A    between atoms: C_4  and  N_2 
REMARK    4  A    between atoms: C_5  and  C_4 
REMARK    5  A    between atoms: C_7  and  C_4 
REMARK    6  A    between atoms: C_6  and  C_5 
REMARK    7  A    between atoms: C_7  and  O_8 
REMARK    8  A    between atoms: C_7  and  C_12 
REMARK    9  A    between atoms: C_10  and  C_12 
REMARK   10  A    between atoms: C_10  and  C_11 
ROOT
HETATM    1  C   UNK N   1      30.034  18.179   9.290  0.00  0.00     0.141 C 
ENDROOT
BRANCH   1   2
HETATM    2  C   UNK N   1      28.796  18.663   8.510  0.00  0.00     0.103 C 
BRANCH   2   3
HETATM    3  N   UNK N   1      27.576  18.238   9.184  0.00  0.00    -0.424 N 
HETATM    4  H   UNK N   1      26.670  18.307   8.721  0.00  0.00     0.150 HD
HETATM    5  H   UNK N   1      27.629  17.865  10.132  0.00  0.00     0.150 HD
ENDBRANCH   2   3
BRANCH   2   6
HETATM    6  C   UNK N   1      28.806  18.125   7.074  0.00  0.00     0.031 C 
BRANCH   6   7
HETATM    7  C   UNK N   1      27.725  18.768   6.217  0.00  0.00    -0.013 C 
HETATM    8  C   UNK N   1      27.745  20.283   6.407  0.00  0.00     0.005 C 
HETATM    9  C   UNK N   1      26.612  20.917   5.609  0.00  0.00     0.000 C 
HETATM   10  C   UNK N   1      26.735  20.555   4.130  0.00  0.00     0.000 C 
HETATM   11  C   UNK N   1      26.759  19.038   3.944  0.00  0.00     0.000 C 
HETATM   12  C   UNK N   1      27.907  18.426   4.745  0.00  0.00     0.005 C 
ENDBRANCH   6   7
ENDBRANCH   2   6
ENDBRANCH   1   2
BRANCH   1  13
HETATM   13  O   UNK N   1      29.687  17.166  10.188  0.00  0.00    -0.394 OA
HETATM   14  H   UNK N   1      29.262  16.352   9.876  0.00  0.00     0.210 HD
ENDBRANCH   1  13
BRANCH   1  15
HETATM   15  C   UNK N   1      31.217  17.723   8.411  0.00  0.00     0.049 C 
BRANCH  15  16
HETATM   16  C   UNK N   1      31.540  16.225   8.172  0.00  0.00     0.089 C 
BRANCH  16  17
HETATM   17  C   UNK N   1      32.519  15.637   9.171  0.00  0.00     0.144 C 
HETATM   18  O   UNK N   1      33.691  15.501   8.866  0.00  0.00    -0.650 OA
BRANCH  17  19
HETATM   19  O   UNK N   1      32.102  15.204  10.376  0.00  0.00    -0.776 OA
HETATM   20  H   UNK N   1      31.417  14.569  10.448  0.00  0.00     0.167 HD
ENDBRANCH  17  19
ENDBRANCH  16  17
BRANCH  16  21
HETATM   21  C   UNK N   1      31.887  15.890   6.700  0.00  0.00    -0.009 C 
HETATM   22  C   UNK N   1      30.774  15.164   5.960  0.00  0.00     0.010 C 
HETATM   23  C   UNK N   1      32.250  17.137   5.907  0.00  0.00     0.010 C 
ENDBRANCH  16  21
ENDBRANCH  15  16
ENDBRANCH   1  15
TORSDOF 10
ENDMDL
MODEL 6
REMARK VINA RESULT:      -5.8      1.621      2.456
REMARK  10 active torsions:
REMARK  status: ('A' for Active; 'I' for Inactive)
REMARK    1  A    between atoms: C_1  and  C_10 
REMARK    2  A    between atoms: C_1  and  O_19 
REMARK    3  A    between atoms: C_4  and  N_2 
REMARK    4  A    between atoms: C_5  and  C_4 
REMARK    5  A    between atoms: C_7  and  C_4 
REMARK    6  A    between atoms: C_6  and  C_5 
REMARK    7  A    between atoms: C_7  and  O_8 
REMARK    8  A    between atoms: C_7  and  C_12 
REMARK    9  A    between atoms: C_10  and  C_12 
REMARK   10  A    between atoms: C_10  and  C_11 
ROOT
HETATM    1  C   UNK N   1      27.537  24.296  -5.293  0.00  0.00     0.141 C 
ENDROOT
BRANCH   1   2
HETATM    2  C   UNK N   1      26.153  24.934  -5.520  0.00  0.00     0.103 C 
BRANCH   2   3
HETATM    3  N   UNK N   1      25.179  23.912  -5.881  0.00  0.00    -0.424 N 
HETATM    4  H   UNK N   1      25.433  23.138  -6.494  0.00  0.00     0.150 HD
HETATM    5  H   UNK N   1      24.229  23.972  -5.515  0.00  0.00     0.150 HD
ENDBRANCH   2   3
BRANCH   2   6
HETATM    6  C   UNK N   1      26.213  26.001  -6.621  0.00  0.00     0.031 C 
BRANCH   6   7
HETATM    7  C   UNK N   1      26.282  27.408  -6.046  0.00  0.00    -0.013 C 
HETATM    8  C   UNK N   1      25.869  27.390  -4.577  0.00  0.00     0.005 C 
HETATM    9  C   UNK N   1      25.864  28.811  -4.025  0.00  0.00     0.000 C 
HETATM   10  C   UNK N   1      27.241  29.451  -4.192  0.00  0.00     0.000 C 
HETATM   11  C   UNK N   1      27.673  29.429  -5.657  0.00  0.00     0.000 C 
HETATM   12  C   UNK N   1      27.679  27.996  -6.186  0.00  0.00     0.005 C 
ENDBRANCH   6   7
ENDBRANCH   2   6
ENDBRANCH   1   2
BRANCH   1  13
HETATM   13  O   UNK N   1      28.405  24.613  -6.341  0.00  0.00    -0.394 OA
HETATM   14  H   UNK N   1      28.150  25.259  -7.018  0.00  0.00     0.210 HD
ENDBRANCH   1  13
BRANCH   1  15
HETATM   15  C   UNK N   1      28.195  24.639  -3.940  0.00  0.00     0.049 C 
BRANCH  15  16
HETATM   16  C   UNK N   1      29.500  23.953  -3.459  0.00  0.00     0.089 C 
BRANCH  16  17
HETATM   17  C   UNK N   1      29.362  23.226  -2.134  0.00  0.00     0.144 C 
HETATM   18  O   UNK N   1      28.255  22.961  -1.697  0.00  0.00    -0.650 OA
BRANCH  17  19
HETATM   19  O   UNK N   1      30.447  22.920  -1.397  0.00  0.00    -0.776 OA
HETATM   20  H   UNK N   1      30.651  23.402  -0.619  0.00  0.00     0.167 HD
ENDBRANCH  17  19
ENDBRANCH  16  17
BRANCH  16  21
HETATM   21  C   UNK N   1      30.747  24.868  -3.533  0.00  0.00    -0.009 C 
HETATM   22  C   UNK N   1      31.734  24.469  -4.620  0.00  0.00     0.010 C 
HETATM   23  C   UNK N   1      30.368  26.326  -3.747  0.00  0.00     0.010 C 
ENDBRANCH  16  21
ENDBRANCH  15  16
ENDBRANCH   1  15
TORSDOF 10
ENDMDL
MODEL 7
REMARK VINA RESULT:      -5.7     19.036     22.313
REMARK  10 active torsions:
REMARK  status: ('A' for Active; 'I' for Inactive)
REMARK    1  A    between atoms: C_1  and  C_10 
REMARK    2  A    between atoms: C_1  and  O_19 
REMARK    3  A    between atoms: C_4  and  N_2 
REMARK    4  A    between atoms: C_5  and  C_4 
REMARK    5  A    between atoms: C_7  and  C_4 
REMARK    6  A    between atoms: C_6  and  C_5 
REMARK    7  A    between atoms: C_7  and  O_8 
REMARK    8  A    between atoms: C_7  and  C_12 
REMARK    9  A    between atoms: C_10  and  C_12 
REMARK   10  A    between atoms: C_10  and  C_11 
ROOT
HETATM    1  C   UNK N   1      35.265  12.925  11.533  0.00  0.00     0.141 C 
ENDROOT
BRANCH   1   2
HETATM    2  C   UNK N   1      36.445  13.043  12.517  0.00  0.00     0.103 C 
BRANCH   2   3
HETATM    3  N   UNK N   1      37.681  13.313  11.794  0.00  0.00    -0.424 N 
HETATM    4  H   UNK N   1      38.455  12.649  11.810  0.00  0.00     0.150 HD
HETATM    5  H   UNK N   1      37.774  14.179  11.264  0.00  0.00     0.150 HD
ENDBRANCH   2   3
BRANCH   2   6
HETATM    6  C   UNK N   1      36.602  11.759  13.343  0.00  0.00     0.031 C 
BRANCH   6   7
HETATM    7  C   UNK N   1      36.526  12.033  14.838  0.00  0.00    -0.013 C 
HETATM    8  C   UNK N   1      35.845  13.376  15.086  0.00  0.00     0.005 C 
HETATM    9  C   UNK N   1      35.840  13.683  16.580  0.00  0.00     0.000 C 
HETATM   10  C   UNK N   1      35.134  12.568  17.350  0.00  0.00     0.000 C 
HETATM   11  C   UNK N   1      35.789  11.217  17.066  0.00  0.00     0.000 C 
HETATM   12  C   UNK N   1      35.775  10.926  15.566  0.00  0.00     0.005 C 
ENDBRANCH   6   7
ENDBRANCH   2   6
ENDBRANCH   1   2
BRANCH   1  13
HETATM   13  O   UNK N   1      34.357  11.955  11.963  0.00  0.00    -0.394 OA
HETATM   14  H   UNK N   1      34.330  11.081  11.543  0.00  0.00     0.210 HD
ENDBRANCH   1  13
BRANCH   1  15
HETATM   15  C   UNK N   1      34.526  14.249  11.246  0.00  0.00     0.049 C 
BRANCH  15  16
HETATM   16  C   UNK N   1      34.935  15.187  10.081  0.00  0.00     0.089 C 
BRANCH  16  17
HETATM   17  C   UNK N   1      35.850  16.325  10.495  0.00  0.00     0.144 C 
HETATM   18  O   UNK N   1      35.467  17.479  10.403  0.00  0.00    -0.650 OA
BRANCH  17  19
HETATM   19  O   UNK N   1      37.109  16.085  10.908  0.00  0.00    -0.776 OA
HETATM   20  H   UNK N   1      37.277  15.754  11.768  0.00  0.00     0.167 HD
ENDBRANCH  17  19
ENDBRANCH  16  17
BRANCH  16  21
HETATM   21  C   UNK N   1      33.743  15.644   9.203  0.00  0.00    -0.009 C 
HETATM   22  C   UNK N   1      34.044  15.639   7.712  0.00  0.00     0.010 C 
HETATM   23  C   UNK N   1      32.506  14.792   9.441  0.00  0.00     0.010 C 
ENDBRANCH  16  21
ENDBRANCH  15  16
ENDBRANCH   1  15
TORSDOF 10
ENDMDL
MODEL 8
REMARK VINA RESULT:      -5.7      1.343      2.019
REMARK  10 active torsions:
REMARK  status: ('A' for Active; 'I' for Inactive)
REMARK    1  A    between atoms: C_1  and  C_10 
REMARK    2  A    between atoms: C_1  and  O_19 
REMARK    3  A    between atoms: C_4  and  N_2 
REMARK    4  A    between atoms: C_5  and  C_4 
REMARK    5  A    between atoms: C_7  and  C_4 
REMARK    6  A    between atoms: C_6  and  C_5 
REMARK    7  A    between atoms: C_7  and  O_8 
REMARK    8  A    between atoms: C_7  and  C_12 
REMARK    9  A    between atoms: C_10  and  C_12 
REMARK   10  A    between atoms: C_10  and  C_11 
ROOT
HETATM    1  C   UNK N   1      26.906  24.679  -4.120  0.00  0.00     0.141 C 
ENDROOT
BRANCH   1   2
HETATM    2  C   UNK N   1      25.584  24.621  -4.909  0.00  0.00     0.103 C 
BRANCH   2   3
HETATM    3  N   UNK N   1      25.657  23.598  -5.944  0.00  0.00    -0.424 N 
HETATM    4  H   UNK N   1      25.423  23.813  -6.913  0.00  0.00     0.150 HD
HETATM    5  H   UNK N   1      25.948  22.652  -5.696  0.00  0.00     0.150 HD
ENDBRANCH   2   3
BRANCH   2   6
HETATM    6  C   UNK N   1      25.264  25.978  -5.548  0.00  0.00     0.031 C 
BRANCH   6   7
HETATM    7  C   UNK N   1      26.214  27.069  -5.072  0.00  0.00    -0.013 C 
HETATM    8  C   UNK N   1      26.793  27.813  -6.273  0.00  0.00     0.005 C 
HETATM    9  C   UNK N   1      27.802  28.852  -5.797  0.00  0.00     0.000 C 
HETATM   10  C   UNK N   1      27.143  29.826  -4.822  0.00  0.00     0.000 C 
HETATM   11  C   UNK N   1      26.525  29.077  -3.643  0.00  0.00     0.000 C 
HETATM   12  C   UNK N   1      25.511  28.048  -4.142  0.00  0.00     0.005 C 
ENDBRANCH   6   7
ENDBRANCH   2   6
ENDBRANCH   1   2
BRANCH   1  13
HETATM   13  O   UNK N   1      26.698  24.331  -2.783  0.00  0.00    -0.394 OA
HETATM   14  H   UNK N   1      26.373  24.986  -2.145  0.00  0.00     0.210 HD
ENDBRANCH   1  13
BRANCH   1  15
HETATM   15  C   UNK N   1      28.053  23.835  -4.713  0.00  0.00     0.049 C 
BRANCH  15  16
HETATM   16  C   UNK N   1      29.527  24.316  -4.696  0.00  0.00     0.089 C 
BRANCH  16  17
HETATM   17  C   UNK N   1      30.320  23.836  -3.496  0.00  0.00     0.144 C 
HETATM   18  O   UNK N   1      31.503  23.566  -3.616  0.00  0.00    -0.650 OA
BRANCH  17  19
HETATM   19  O   UNK N   1      29.723  23.642  -2.304  0.00  0.00    -0.776 OA
HETATM   20  H   UNK N   1      29.125  24.274  -1.958  0.00  0.00     0.167 HD
ENDBRANCH  17  19
ENDBRANCH  16  17
BRANCH  16  21
HETATM   21  C   UNK N   1      29.689  25.831  -4.975  0.00  0.00    -0.009 C 
HETATM   22  C   UNK N   1      30.059  26.644  -3.743  0.00  0.00     0.010 C 
HETATM   23  C   UNK N   1      30.729  26.100  -6.053  0.00  0.00     0.010 C 
ENDBRANCH  16  21
ENDBRANCH  15  16
ENDBRANCH   1  15
TORSDOF 10
ENDMDL
MODEL 9
REMARK VINA RESULT:      -5.5     14.124     16.239
REMARK  10 active torsions:
REMARK  status: ('A' for Active; 'I' for Inactive)
REMARK    1  A    between atoms: C_1  and  C_10 
REMARK    2  A    between atoms: C_1  and  O_19 
REMARK    3  A    between atoms: C_4  and  N_2 
REMARK    4  A    between atoms: C_5  and  C_4 
REMARK    5  A    between atoms: C_7  and  C_4 
REMARK    6  A    between atoms: C_6  and  C_5 
REMARK    7  A    between atoms: C_7  and  O_8 
REMARK    8  A    between atoms: C_7  and  C_12 
REMARK    9  A    between atoms: C_10  and  C_12 
REMARK   10  A    between atoms: C_10  and  C_11 
ROOT
HETATM    1  C   UNK N   1      34.138  16.255   6.524  0.00  0.00     0.141 C 
ENDROOT
BRANCH   1   2
HETATM    2  C   UNK N   1      32.623  16.046   6.712  0.00  0.00     0.103 C 
BRANCH   2   3
HETATM    3  N   UNK N   1      32.073  15.297   5.589  0.00  0.00    -0.424 N 
HETATM    4  H   UNK N   1      31.141  14.885   5.639  0.00  0.00     0.150 HD
HETATM    5  H   UNK N   1      32.628  15.183   4.742  0.00  0.00     0.150 HD
ENDBRANCH   2   3
BRANCH   2   6
HETATM    6  C   UNK N   1      31.894  17.389   6.842  0.00  0.00     0.031 C 
BRANCH   6   7
HETATM    7  C   UNK N   1      30.656  17.282   7.722  0.00  0.00    -0.013 C 
HETATM    8  C   UNK N   1      30.726  18.315   8.843  0.00  0.00     0.005 C 
HETATM    9  C   UNK N   1      29.524  18.154   9.767  0.00  0.00     0.000 C 
HETATM   10  C   UNK N   1      28.223  18.299   8.978  0.00  0.00     0.000 C 
HETATM   11  C   UNK N   1      28.174  17.294   7.828  0.00  0.00     0.000 C 
HETATM   12  C   UNK N   1      29.383  17.479   6.911  0.00  0.00     0.005 C 
ENDBRANCH   6   7
ENDBRANCH   2   6
ENDBRANCH   1   2
BRANCH   1  13
HETATM   13  O   UNK N   1      34.431  17.610   6.348  0.00  0.00    -0.394 OA
HETATM   14  H   UNK N   1      35.320  17.894   6.082  0.00  0.00     0.210 HD
ENDBRANCH   1  13
BRANCH   1  15
HETATM   15  C   UNK N   1      35.018  15.665   7.645  0.00  0.00     0.049 C 
BRANCH  15  16
HETATM   16  C   UNK N   1      34.572  15.662   9.131  0.00  0.00     0.089 C 
BRANCH  16  17
HETATM   17  C   UNK N   1      34.893  16.945   9.874  0.00  0.00     0.144 C 
HETATM   18  O   UNK N   1      35.157  17.960   9.252  0.00  0.00    -0.650 OA
BRANCH  17  19
HETATM   19  O   UNK N   1      34.951  16.969  11.219  0.00  0.00    -0.776 OA
HETATM   20  H   UNK N   1      34.669  17.723  11.699  0.00  0.00     0.167 HD
ENDBRANCH  17  19
ENDBRANCH  16  17
BRANCH  16  21
HETATM   21  C   UNK N   1      34.986  14.384   9.901  0.00  0.00    -0.009 C 
HETATM   22  C   UNK N   1      34.234  13.136   9.462  0.00  0.00     0.010 C 
HETATM   23  C   UNK N   1      36.477  14.107   9.781  0.00  0.00     0.010 C 
ENDBRANCH  16  21
ENDBRANCH  15  16
ENDBRANCH   1  15
TORSDOF 10
ENDMDL
