MODEL 1
REMARK VINA RESULT:      -6.4      0.000      0.000
REMARK  8 active torsions:
REMARK  status: ('A' for Active; 'I' for Inactive)
REMARK    1  A    between atoms: C_4  and  C_25 
REMARK       I    between atoms: C_5  and  N_6 
REMARK       I    between atoms: C_5  and  N_12 
REMARK    2  A    between atoms: N_6  and  C_7 
REMARK    3  A    between atoms: C_13  and  N_12 
REMARK    4  A    between atoms: C_13  and  C_14 
REMARK    5  A    between atoms: C_13  and  C_17 
REMARK       I    between atoms: C_17  and  N_19 
REMARK    6  A    between atoms: C_20  and  C_27 
REMARK    7  A    between atoms: C_21  and  N_24 
REMARK       I    between atoms: N_24  and  C_25 
REMARK    8  A    between atoms: C_27  and  C_28 
ROOT
HETATM    1  C   UNK N   1      28.989  17.598   5.879  0.00  0.00     0.243 C 
HETATM    2  O   UNK N   1      29.467  18.319   5.014  0.00  0.00    -0.271 OA
HETATM    3  N   UNK N   1      27.637  17.369   5.913  0.00  0.00    -0.342 N 
HETATM    4  C   UNK N   1      26.734  17.775   4.849  0.00  0.00     0.125 C 
HETATM    5  C   UNK N   1      25.450  16.972   5.152  0.00  0.00     0.110 C 
HETATM    6  C   UNK N   1      25.904  15.836   6.060  0.00  0.00     0.047 C 
HETATM    7  C   UNK N   1      27.055  16.438   6.840  0.00  0.00     0.128 C 
ENDROOT
BRANCH   1   8
HETATM    8  C   UNK N   1      29.935  16.884   6.843  0.00  0.00     0.181 C 
BRANCH   8   9
HETATM    9  N   UNK N   1      31.059  16.292   6.124  0.00  0.00    -0.330 N 
HETATM   10  C   UNK N   1      31.060  15.051   5.546  0.00  0.00     0.317 C 
HETATM   11  O   UNK N   1      30.110  14.298   5.688  0.00  0.00    -0.247 OA
HETATM   12  N   UNK N   1      32.122  14.635   4.814  0.00  0.00    -0.339 N 
HETATM   13  H   UNK N   1      32.107  13.724   4.441  0.00  0.00     0.164 HD
HETATM   14  H   UNK N   1      31.882  16.827   6.048  0.00  0.00     0.165 HD
BRANCH  12  15
HETATM   15  C   UNK N   1      33.275  15.468   4.554  0.00  0.00     0.086 C 
HETATM   16  C   UNK N   1      34.533  14.717   4.944  0.00  0.00     0.025 C 
HETATM   17  C   UNK N   1      34.977  13.943   3.711  0.00  0.00     0.002 C 
HETATM   18  C   UNK N   1      34.138  14.449   2.551  0.00  0.00     0.002 C 
HETATM   19  C   UNK N   1      33.437  15.689   3.062  0.00  0.00     0.025 C 
ENDBRANCH  12  15
ENDBRANCH   8   9
BRANCH   8  20
HETATM   20  C   UNK N   1      30.462  17.756   8.011  0.00  0.00     0.009 C 
HETATM   21  C   UNK N   1      31.931  17.498   8.300  0.00  0.00     0.012 C 
HETATM   22  C   UNK N   1      29.663  17.649   9.300  0.00  0.00     0.012 C 
ENDBRANCH   8  20
ENDBRANCH   1   8
BRANCH   4  23
HETATM   23  C   UNK N   1      26.432  19.311   4.732  0.00  0.00     0.035 A 
HETATM   24  C   UNK N   1      25.056  19.704   4.239  0.00  0.00     0.019 A 
HETATM   25  C   UNK N   1      25.685  20.405   3.046  0.00  0.00     0.002 A 
HETATM   26  C   UNK N   1      27.063  19.984   3.522  0.00  0.00     0.019 A 
BRANCH  23  27
HETATM   27  C   UNK N   1      26.712  20.074   5.999  0.00  0.00     0.242 C 
HETATM   28  O   UNK N   1      27.527  20.982   6.029  0.00  0.00    -0.306 OA
ENDBRANCH  23  27
ENDBRANCH   4  23
BRANCH   5  29
HETATM   29  N   UNK N   1      24.871  16.446   3.931  0.00  0.00    -0.354 N 
HETATM   30  C   UNK N   1      23.542  16.288   3.698  0.00  0.00     0.222 C 
HETATM   31  O   UNK N   1      23.189  15.669   2.707  0.00  0.00    -0.273 OA
HETATM   32  H   UNK N   1      25.491  16.181   3.214  0.00  0.00     0.162 HD
BRANCH  30  33
HETATM   33  C   UNK N   1      22.492  16.847   4.621  0.00  0.00     0.078 A 
HETATM   34  C   UNK N   1      21.848  18.078   3.996  0.00  0.00     0.015 A 
HETATM   35  C   UNK N   1      21.125  16.758   3.956  0.00  0.00     0.015 A 
ENDBRANCH  30  33
ENDBRANCH   5  29
TORSDOF 8
ENDMDL
MODEL 2
REMARK VINA RESULT:      -6.4      5.526     10.869
REMARK  8 active torsions:
REMARK  status: ('A' for Active; 'I' for Inactive)
REMARK    1  A    between atoms: C_4  and  C_25 
REMARK       I    between atoms: C_5  and  N_6 
REMARK       I    between atoms: C_5  and  N_12 
REMARK    2  A    between atoms: N_6  and  C_7 
REMARK    3  A    between atoms: C_13  and  N_12 
REMARK    4  A    between atoms: C_13  and  C_14 
REMARK    5  A    between atoms: C_13  and  C_17 
REMARK       I    between atoms: C_17  and  N_19 
REMARK    6  A    between atoms: C_20  and  C_27 
REMARK    7  A    between atoms: C_21  and  N_24 
REMARK       I    between atoms: N_24  and  C_25 
REMARK    8  A    between atoms: C_27  and  C_28 
ROOT
HETATM    1  C   UNK N   1      34.433  14.579   8.026  0.00  0.00     0.243 C 
HETATM    2  O   UNK N   1      34.513  15.670   8.572  0.00  0.00    -0.271 OA
HETATM    3  N   UNK N   1      34.755  13.439   8.719  0.00  0.00    -0.342 N 
HETATM    4  C   UNK N   1      35.001  13.421  10.151  0.00  0.00     0.125 C 
HETATM    5  C   UNK N   1      34.925  11.920  10.502  0.00  0.00     0.110 C 
HETATM    6  C   UNK N   1      34.171  11.284   9.342  0.00  0.00     0.047 C 
HETATM    7  C   UNK N   1      34.562  12.133   8.150  0.00  0.00     0.128 C 
ENDROOT
BRANCH   1   8
HETATM    8  C   UNK N   1      33.873  14.507   6.607  0.00  0.00     0.181 C 
BRANCH   8   9
HETATM    9  N   UNK N   1      32.663  15.315   6.485  0.00  0.00    -0.330 N 
HETATM   10  C   UNK N   1      31.404  14.822   6.270  0.00  0.00     0.317 C 
HETATM   11  O   UNK N   1      31.229  13.632   6.064  0.00  0.00    -0.247 OA
HETATM   12  N   UNK N   1      30.332  15.651   6.273  0.00  0.00    -0.339 N 
HETATM   13  H   UNK N   1      29.444  15.271   6.080  0.00  0.00     0.164 HD
HETATM   14  H   UNK N   1      32.759  16.291   6.565  0.00  0.00     0.165 HD
BRANCH  12  15
HETATM   15  C   UNK N   1      30.431  17.067   6.549  0.00  0.00     0.086 C 
HETATM   16  C   UNK N   1      29.347  17.802   5.786  0.00  0.00     0.025 C 
HETATM   17  C   UNK N   1      28.127  17.843   6.696  0.00  0.00     0.002 C 
HETATM   18  C   UNK N   1      28.586  17.372   8.065  0.00  0.00     0.002 C 
HETATM   19  C   UNK N   1      30.098  17.344   8.002  0.00  0.00     0.025 C 
ENDBRANCH  12  15
ENDBRANCH   8   9
BRANCH   8  20
HETATM   20  C   UNK N   1      34.873  14.892   5.487  0.00  0.00     0.009 C 
HETATM   21  C   UNK N   1      34.499  14.275   4.150  0.00  0.00     0.012 C 
HETATM   22  C   UNK N   1      36.330  14.587   5.798  0.00  0.00     0.012 C 
ENDBRANCH   8  20
ENDBRANCH   1   8
BRANCH   4  23
HETATM   23  C   UNK N   1      36.353  14.053  10.639  0.00  0.00     0.035 A 
HETATM   24  C   UNK N   1      37.454  14.195   9.610  0.00  0.00     0.019 A 
HETATM   25  C   UNK N   1      38.343  13.280  10.437  0.00  0.00     0.002 A 
HETATM   26  C   UNK N   1      37.227  13.111  11.452  0.00  0.00     0.019 A 
BRANCH  23  27
HETATM   27  C   UNK N   1      36.179  15.381  11.327  0.00  0.00     0.242 C 
HETATM   28  O   UNK N   1      36.545  16.421  10.805  0.00  0.00    -0.306 OA
ENDBRANCH  23  27
ENDBRANCH   4  23
BRANCH   5  29
HETATM   29  N   UNK N   1      34.208  11.717  11.746  0.00  0.00    -0.354 N 
HETATM   30  C   UNK N   1      34.337  10.636  12.560  0.00  0.00     0.222 C 
HETATM   31  O   UNK N   1      33.550  10.496  13.481  0.00  0.00    -0.273 OA
HETATM   32  H   UNK N   1      33.575  12.418  12.023  0.00  0.00     0.162 HD
BRANCH  30  33
HETATM   33  C   UNK N   1      35.416   9.605  12.359  0.00  0.00     0.078 A 
HETATM   34  C   UNK N   1      36.622   9.934  13.230  0.00  0.00     0.015 A 
HETATM   35  C   UNK N   1      35.661   8.860  13.665  0.00  0.00     0.015 A 
ENDBRANCH  30  33
ENDBRANCH   5  29
TORSDOF 8
ENDMDL
MODEL 3
REMARK VINA RESULT:      -6.4     10.825     12.958
REMARK  8 active torsions:
REMARK  status: ('A' for Active; 'I' for Inactive)
REMARK    1  A    between atoms: C_4  and  C_25 
REMARK       I    between atoms: C_5  and  N_6 
REMARK       I    between atoms: C_5  and  N_12 
REMARK    2  A    between atoms: N_6  and  C_7 
REMARK    3  A    between atoms: C_13  and  N_12 
REMARK    4  A    between atoms: C_13  and  C_14 
REMARK    5  A    between atoms: C_13  and  C_17 
REMARK       I    between atoms: C_17  and  N_19 
REMARK    6  A    between atoms: C_20  and  C_27 
REMARK    7  A    between atoms: C_21  and  N_24 
REMARK       I    between atoms: N_24  and  C_25 
REMARK    8  A    between atoms: C_27  and  C_28 
ROOT
HETATM    1  C   UNK N   1      29.198  25.861  -4.634  0.00  0.00     0.243 C 
HETATM    2  O   UNK N   1      29.525  26.379  -5.693  0.00  0.00    -0.271 OA
HETATM    3  N   UNK N   1      27.922  25.386  -4.467  0.00  0.00    -0.342 N 
HETATM    4  C   UNK N   1      26.966  25.274  -5.556  0.00  0.00     0.125 C 
HETATM    5  C   UNK N   1      25.873  24.353  -4.970  0.00  0.00     0.110 C 
HETATM    6  C   UNK N   1      26.542  23.646  -3.799  0.00  0.00     0.047 C 
HETATM    7  C   UNK N   1      27.536  24.667  -3.284  0.00  0.00     0.128 C 
ENDROOT
BRANCH   1   8
HETATM    8  C   UNK N   1      30.261  25.664  -3.555  0.00  0.00     0.181 C 
BRANCH   8   9
HETATM    9  N   UNK N   1      31.016  24.436  -3.788  0.00  0.00    -0.330 N 
HETATM   10  C   UNK N   1      31.065  23.367  -2.935  0.00  0.00     0.317 C 
HETATM   11  O   UNK N   1      30.533  23.421  -1.838  0.00  0.00    -0.247 OA
HETATM   12  N   UNK N   1      31.716  22.232  -3.292  0.00  0.00    -0.339 N 
HETATM   13  H   UNK N   1      31.763  21.495  -2.642  0.00  0.00     0.164 HD
HETATM   14  H   UNK N   1      31.530  24.371  -4.625  0.00  0.00     0.165 HD
BRANCH  12  15
HETATM   15  C   UNK N   1      32.341  22.055  -4.584  0.00  0.00     0.086 C 
HETATM   16  C   UNK N   1      33.795  21.676  -4.388  0.00  0.00     0.025 C 
HETATM   17  C   UNK N   1      33.839  20.156  -4.303  0.00  0.00     0.002 C 
HETATM   18  C   UNK N   1      32.465  19.655  -4.710  0.00  0.00     0.002 C 
HETATM   19  C   UNK N   1      31.748  20.853  -5.293  0.00  0.00     0.025 C 
ENDBRANCH  12  15
ENDBRANCH   8   9
BRANCH   8  20
HETATM   20  C   UNK N   1      31.239  26.853  -3.373  0.00  0.00     0.009 C 
HETATM   21  C   UNK N   1      30.507  28.163  -3.140  0.00  0.00     0.012 C 
HETATM   22  C   UNK N   1      32.250  27.028  -4.496  0.00  0.00     0.012 C 
ENDBRANCH   8  20
ENDBRANCH   1   8
BRANCH   4  23
HETATM   23  C   UNK N   1      26.354  26.616  -6.093  0.00  0.00     0.035 A 
HETATM   24  C   UNK N   1      26.707  27.881  -5.339  0.00  0.00     0.019 A 
HETATM   25  C   UNK N   1      25.237  28.101  -5.024  0.00  0.00     0.002 A 
HETATM   26  C   UNK N   1      24.885  26.816  -5.750  0.00  0.00     0.019 A 
BRANCH  23  27
HETATM   27  C   UNK N   1      26.618  26.851  -7.556  0.00  0.00     0.242 C 
HETATM   28  O   UNK N   1      26.010  26.241  -8.420  0.00  0.00    -0.306 OA
ENDBRANCH  23  27
ENDBRANCH   4  23
BRANCH   5  29
HETATM   29  N   UNK N   1      25.427  23.390  -5.957  0.00  0.00    -0.354 N 
HETATM   30  C   UNK N   1      26.164  22.944  -7.008  0.00  0.00     0.222 C 
HETATM   31  O   UNK N   1      25.616  22.273  -7.868  0.00  0.00    -0.273 OA
HETATM   32  H   UNK N   1      24.516  23.029  -5.859  0.00  0.00     0.162 HD
BRANCH  30  33
HETATM   33  C   UNK N   1      27.631  23.253  -7.149  0.00  0.00     0.078 A 
HETATM   34  C   UNK N   1      28.463  22.073  -6.663  0.00  0.00     0.015 A 
HETATM   35  C   UNK N   1      28.266  22.286  -8.140  0.00  0.00     0.015 A 
ENDBRANCH  30  33
ENDBRANCH   5  29
TORSDOF 8
ENDMDL
MODEL 4
REMARK VINA RESULT:      -6.3      3.716      8.369
REMARK  8 active torsions:
REMARK  status: ('A' for Active; 'I' for Inactive)
REMARK    1  A    between atoms: C_4  and  C_25 
REMARK       I    between atoms: C_5  and  N_6 
REMARK       I    between atoms: C_5  and  N_12 
REMARK    2  A    between atoms: N_6  and  C_7 
REMARK    3  A    between atoms: C_13  and  N_12 
REMARK    4  A    between atoms: C_13  and  C_14 
REMARK    5  A    between atoms: C_13  and  C_17 
REMARK       I    between atoms: C_17  and  N_19 
REMARK    6  A    between atoms: C_20  and  C_27 
REMARK    7  A    between atoms: C_21  and  N_24 
REMARK       I    between atoms: N_24  and  C_25 
REMARK    8  A    between atoms: C_27  and  C_28 
ROOT
HETATM    1  C   UNK N   1      26.107  15.092   6.440  0.00  0.00     0.243 C 
HETATM    2  O   UNK N   1      26.206  15.627   7.535  0.00  0.00    -0.271 OA
HETATM    3  N   UNK N   1      27.133  15.187   5.534  0.00  0.00    -0.342 N 
HETATM    4  C   UNK N   1      28.441  15.726   5.866  0.00  0.00     0.125 C 
HETATM    5  C   UNK N   1      29.322  15.265   4.685  0.00  0.00     0.110 C 
HETATM    6  C   UNK N   1      28.555  14.113   4.050  0.00  0.00     0.047 C 
HETATM    7  C   UNK N   1      27.103  14.475   4.285  0.00  0.00     0.128 C 
ENDROOT
BRANCH   1   8
HETATM    8  C   UNK N   1      24.875  14.237   6.150  0.00  0.00     0.181 C 
BRANCH   8   9
HETATM    9  N   UNK N   1      24.275  13.753   7.389  0.00  0.00    -0.330 N 
HETATM   10  C   UNK N   1      24.043  12.439   7.692  0.00  0.00     0.317 C 
HETATM   11  O   UNK N   1      24.247  11.564   6.865  0.00  0.00    -0.247 OA
HETATM   12  N   UNK N   1      23.573  12.088   8.914  0.00  0.00    -0.339 N 
HETATM   13  H   UNK N   1      23.383  11.138   9.089  0.00  0.00     0.164 HD
HETATM   14  H   UNK N   1      24.017  14.425   8.061  0.00  0.00     0.165 HD
BRANCH  12  15
HETATM   15  C   UNK N   1      23.340  13.044   9.973  0.00  0.00     0.086 C 
HETATM   16  C   UNK N   1      22.039  13.776   9.709  0.00  0.00     0.025 C 
HETATM   17  C   UNK N   1      20.940  12.964  10.377  0.00  0.00     0.002 C 
HETATM   18  C   UNK N   1      21.629  11.921  11.240  0.00  0.00     0.002 C 
HETATM   19  C   UNK N   1      23.087  12.325  11.284  0.00  0.00     0.025 C 
ENDBRANCH  12  15
ENDBRANCH   8   9
BRANCH   8  20
HETATM   20  C   UNK N   1      23.793  14.923   5.277  0.00  0.00     0.009 C 
HETATM   21  C   UNK N   1      22.813  15.729   6.112  0.00  0.00     0.012 C 
HETATM   22  C   UNK N   1      23.027  13.987   4.355  0.00  0.00     0.012 C 
ENDBRANCH   8  20
ENDBRANCH   1   8
BRANCH   4  23
HETATM   23  C   UNK N   1      28.528  17.280   6.070  0.00  0.00     0.035 A 
HETATM   24  C   UNK N   1      27.303  18.090   5.704  0.00  0.00     0.019 A 
HETATM   25  C   UNK N   1      28.113  18.842   4.661  0.00  0.00     0.002 A 
HETATM   26  C   UNK N   1      29.333  18.008   5.004  0.00  0.00     0.019 A 
BRANCH  23  27
HETATM   27  C   UNK N   1      28.958  17.679   7.457  0.00  0.00     0.242 C 
HETATM   28  O   UNK N   1      29.807  17.049   8.067  0.00  0.00    -0.306 OA
ENDBRANCH  23  27
ENDBRANCH   4  23
BRANCH   5  29
HETATM   29  N   UNK N   1      30.618  14.815   5.153  0.00  0.00    -0.354 N 
HETATM   30  C   UNK N   1      31.789  14.955   4.478  0.00  0.00     0.222 C 
HETATM   31  O   UNK N   1      32.780  14.376   4.893  0.00  0.00    -0.273 OA
HETATM   32  H   UNK N   1      30.652  14.371   6.031  0.00  0.00     0.162 HD
BRANCH  30  33
HETATM   33  C   UNK N   1      31.903  15.796   3.235  0.00  0.00     0.078 A 
HETATM   34  C   UNK N   1      32.570  17.126   3.563  0.00  0.00     0.015 A 
HETATM   35  C   UNK N   1      33.372  16.032   2.908  0.00  0.00     0.015 A 
ENDBRANCH  30  33
ENDBRANCH   5  29
TORSDOF 8
ENDMDL
MODEL 5
REMARK VINA RESULT:      -6.3      2.525      7.638
REMARK  8 active torsions:
REMARK  status: ('A' for Active; 'I' for Inactive)
REMARK    1  A    between atoms: C_4  and  C_25 
REMARK       I    between atoms: C_5  and  N_6 
REMARK       I    between atoms: C_5  and  N_12 
REMARK    2  A    between atoms: N_6  and  C_7 
REMARK    3  A    between atoms: C_13  and  N_12 
REMARK    4  A    between atoms: C_13  and  C_14 
REMARK    5  A    between atoms: C_13  and  C_17 
REMARK       I    between atoms: C_17  and  N_19 
REMARK    6  A    between atoms: C_20  and  C_27 
REMARK    7  A    between atoms: C_21  and  N_24 
REMARK       I    between atoms: N_24  and  C_25 
REMARK    8  A    between atoms: C_27  and  C_28 
ROOT
HETATM    1  C   UNK N   1      27.100  17.402   4.957  0.00  0.00     0.243 C 
HETATM    2  O   UNK N   1      26.355  16.994   5.837  0.00  0.00    -0.271 OA
HETATM    3  N   UNK N   1      28.432  17.597   5.221  0.00  0.00    -0.342 N 
HETATM    4  C   UNK N   1      29.074  17.153   6.447  0.00  0.00     0.125 C 
HETATM    5  C   UNK N   1      30.578  17.236   6.106  0.00  0.00     0.110 C 
HETATM    6  C   UNK N   1      30.635  17.251   4.584  0.00  0.00     0.047 C 
HETATM    7  C   UNK N   1      29.358  17.962   4.184  0.00  0.00     0.128 C 
ENDROOT
BRANCH   1   8
HETATM    8  C   UNK N   1      26.539  17.586   3.549  0.00  0.00     0.181 C 
BRANCH   8   9
HETATM    9  N   UNK N   1      25.963  16.341   3.052  0.00  0.00    -0.330 N 
HETATM   10  C   UNK N   1      26.669  15.322   2.471  0.00  0.00     0.317 C 
HETATM   11  O   UNK N   1      27.861  15.445   2.239  0.00  0.00    -0.247 OA
HETATM   12  N   UNK N   1      26.052  14.163   2.134  0.00  0.00    -0.339 N 
HETATM   13  H   UNK N   1      26.580  13.464   1.685  0.00  0.00     0.164 HD
HETATM   14  H   UNK N   1      24.990  16.223   3.143  0.00  0.00     0.165 HD
BRANCH  12  15
HETATM   15  C   UNK N   1      24.655  13.905   2.406  0.00  0.00     0.086 C 
HETATM   16  C   UNK N   1      23.821  14.388   1.236  0.00  0.00     0.025 C 
HETATM   17  C   UNK N   1      23.714  13.219   0.267  0.00  0.00     0.002 C 
HETATM   18  C   UNK N   1      24.255  11.999   0.992  0.00  0.00     0.002 C 
HETATM   19  C   UNK N   1      24.394  12.412   2.442  0.00  0.00     0.025 C 
ENDBRANCH  12  15
ENDBRANCH   8   9
BRANCH   8  20
HETATM   20  C   UNK N   1      25.509  18.735   3.399  0.00  0.00     0.009 C 
HETATM   21  C   UNK N   1      26.011  20.035   4.004  0.00  0.00     0.012 C 
HETATM   22  C   UNK N   1      24.121  18.425   3.938  0.00  0.00     0.012 C 
ENDBRANCH   8  20
ENDBRANCH   1   8
BRANCH   4  23
HETATM   23  C   UNK N   1      28.739  17.965   7.748  0.00  0.00     0.035 A 
HETATM   24  C   UNK N   1      29.816  18.036   8.809  0.00  0.00     0.019 A 
HETATM   25  C   UNK N   1      28.891  17.340   9.793  0.00  0.00     0.002 A 
HETATM   26  C   UNK N   1      27.823  17.238   8.721  0.00  0.00     0.019 A 
BRANCH  23  27
HETATM   27  C   UNK N   1      28.257  19.364   7.473  0.00  0.00     0.242 C 
HETATM   28  O   UNK N   1      27.171  19.753   7.870  0.00  0.00    -0.306 OA
ENDBRANCH  23  27
ENDBRANCH   4  23
BRANCH   5  29
HETATM   29  N   UNK N   1      31.290  16.087   6.629  0.00  0.00    -0.354 N 
HETATM   30  C   UNK N   1      32.622  16.040   6.892  0.00  0.00     0.222 C 
HETATM   31  O   UNK N   1      33.132  14.964   7.157  0.00  0.00    -0.273 OA
HETATM   32  H   UNK N   1      30.765  15.273   6.808  0.00  0.00     0.162 HD
BRANCH  30  33
HETATM   33  C   UNK N   1      33.489  17.271   6.861  0.00  0.00     0.078 A 
HETATM   34  C   UNK N   1      33.391  18.012   8.189  0.00  0.00     0.015 A 
HETATM   35  C   UNK N   1      34.591  17.147   7.906  0.00  0.00     0.015 A 
ENDBRANCH  30  33
ENDBRANCH   5  29
TORSDOF 8
ENDMDL
MODEL 6
REMARK VINA RESULT:      -6.2      2.126      8.399
REMARK  8 active torsions:
REMARK  status: ('A' for Active; 'I' for Inactive)
REMARK    1  A    between atoms: C_4  and  C_25 
REMARK       I    between atoms: C_5  and  N_6 
REMARK       I    between atoms: C_5  and  N_12 
REMARK    2  A    between atoms: N_6  and  C_7 
REMARK    3  A    between atoms: C_13  and  N_12 
REMARK    4  A    between atoms: C_13  and  C_14 
REMARK    5  A    between atoms: C_13  and  C_17 
REMARK       I    between atoms: C_17  and  N_19 
REMARK    6  A    between atoms: C_20  and  C_27 
REMARK    7  A    between atoms: C_21  and  N_24 
REMARK       I    between atoms: N_24  and  C_25 
REMARK    8  A    between atoms: C_27  and  C_28 
ROOT
HETATM    1  C   UNK N   1      27.636  17.805   5.684  0.00  0.00     0.243 C 
HETATM    2  O   UNK N   1      26.854  17.562   6.593  0.00  0.00    -0.271 OA
HETATM    3  N   UNK N   1      28.963  17.482   5.815  0.00  0.00    -0.342 N 
HETATM    4  C   UNK N   1      29.481  16.672   6.905  0.00  0.00     0.125 C 
HETATM    5  C   UNK N   1      30.887  16.272   6.408  0.00  0.00     0.110 C 
HETATM    6  C   UNK N   1      30.844  16.482   4.900  0.00  0.00     0.047 C 
HETATM    7  C   UNK N   1      29.887  17.644   4.727  0.00  0.00     0.128 C 
ENDROOT
BRANCH   1   8
HETATM    8  C   UNK N   1      27.087  18.372   4.377  0.00  0.00     0.181 C 
BRANCH   8   9
HETATM    9  N   UNK N   1      25.646  18.159   4.282  0.00  0.00    -0.330 N 
HETATM   10  C   UNK N   1      25.044  17.138   3.598  0.00  0.00     0.317 C 
HETATM   11  O   UNK N   1      25.705  16.368   2.919  0.00  0.00    -0.247 OA
HETATM   12  N   UNK N   1      23.699  16.971   3.657  0.00  0.00    -0.339 N 
HETATM   13  H   UNK N   1      23.293  16.249   3.125  0.00  0.00     0.164 HD
HETATM   14  H   UNK N   1      25.061  18.799   4.748  0.00  0.00     0.165 HD
BRANCH  12  15
HETATM   15  C   UNK N   1      22.836  17.803   4.465  0.00  0.00     0.086 C 
HETATM   16  C   UNK N   1      22.275  18.920   3.610  0.00  0.00     0.025 C 
HETATM   17  C   UNK N   1      20.982  18.394   3.002  0.00  0.00     0.002 C 
HETATM   18  C   UNK N   1      20.666  17.088   3.708  0.00  0.00     0.002 C 
HETATM   19  C   UNK N   1      21.607  17.024   4.892  0.00  0.00     0.025 C 
ENDBRANCH  12  15
ENDBRANCH   8   9
BRANCH   8  20
HETATM   20  C   UNK N   1      27.412  19.866   4.123  0.00  0.00     0.009 C 
HETATM   21  C   UNK N   1      27.563  20.646   5.418  0.00  0.00     0.012 C 
HETATM   22  C   UNK N   1      26.438  20.587   3.205  0.00  0.00     0.012 C 
ENDBRANCH   8  20
ENDBRANCH   1   8
BRANCH   4  23
HETATM   23  C   UNK N   1      29.549  17.356   8.317  0.00  0.00     0.035 A 
HETATM   24  C   UNK N   1      29.333  18.854   8.364  0.00  0.00     0.019 A 
HETATM   25  C   UNK N   1      30.730  19.036   8.936  0.00  0.00     0.002 A 
HETATM   26  C   UNK N   1      30.959  17.538   8.858  0.00  0.00     0.019 A 
BRANCH  23  27
HETATM   27  C   UNK N   1      28.642  16.719   9.335  0.00  0.00     0.242 C 
HETATM   28  O   UNK N   1      27.577  17.228   9.646  0.00  0.00    -0.306 OA
ENDBRANCH  23  27
ENDBRANCH   4  23
BRANCH   5  29
HETATM   29  N   UNK N   1      31.168  14.884   6.720  0.00  0.00    -0.354 N 
HETATM   30  C   UNK N   1      32.393  14.380   7.021  0.00  0.00     0.222 C 
HETATM   31  O   UNK N   1      32.531  13.168   7.086  0.00  0.00    -0.273 OA
HETATM   32  H   UNK N   1      30.410  14.256   6.711  0.00  0.00     0.162 HD
BRANCH  30  33
HETATM   33  C   UNK N   1      33.586  15.264   7.273  0.00  0.00     0.078 A 
HETATM   34  C   UNK N   1      33.868  15.347   8.767  0.00  0.00     0.015 A 
HETATM   35  C   UNK N   1      34.707  14.446   7.901  0.00  0.00     0.015 A 
ENDBRANCH  30  33
ENDBRANCH   5  29
TORSDOF 8
ENDMDL
MODEL 7
REMARK VINA RESULT:      -6.2      3.942      9.650
REMARK  8 active torsions:
REMARK  status: ('A' for Active; 'I' for Inactive)
REMARK    1  A    between atoms: C_4  and  C_25 
REMARK       I    between atoms: C_5  and  N_6 
REMARK       I    between atoms: C_5  and  N_12 
REMARK    2  A    between atoms: N_6  and  C_7 
REMARK    3  A    between atoms: C_13  and  N_12 
REMARK    4  A    between atoms: C_13  and  C_14 
REMARK    5  A    between atoms: C_13  and  C_17 
REMARK       I    between atoms: C_17  and  N_19 
REMARK    6  A    between atoms: C_20  and  C_27 
REMARK    7  A    between atoms: C_21  and  N_24 
REMARK       I    between atoms: N_24  and  C_25 
REMARK    8  A    between atoms: C_27  and  C_28 
ROOT
HETATM    1  C   UNK N   1      22.794  15.625   6.057  0.00  0.00     0.243 C 
HETATM    2  O   UNK N   1      22.269  16.580   5.502  0.00  0.00    -0.271 OA
HETATM    3  N   UNK N   1      24.161  15.512   6.079  0.00  0.00    -0.342 N 
HETATM    4  C   UNK N   1      25.056  16.574   5.651  0.00  0.00     0.125 C 
HETATM    5  C   UNK N   1      26.422  16.136   6.222  0.00  0.00     0.110 C 
HETATM    6  C   UNK N   1      26.084  15.134   7.319  0.00  0.00     0.047 C 
HETATM    7  C   UNK N   1      24.817  14.469   6.821  0.00  0.00     0.128 C 
ENDROOT
BRANCH   1   8
HETATM    8  C   UNK N   1      21.907  14.633   6.805  0.00  0.00     0.181 C 
BRANCH   8   9
HETATM    9  N   UNK N   1      20.809  15.321   7.477  0.00  0.00    -0.330 N 
HETATM   10  C   UNK N   1      20.450  15.143   8.786  0.00  0.00     0.317 C 
HETATM   11  O   UNK N   1      20.993  14.289   9.470  0.00  0.00    -0.247 OA
HETATM   12  N   UNK N   1      19.478  15.907   9.342  0.00  0.00    -0.339 N 
HETATM   13  H   UNK N   1      19.219  15.730  10.275  0.00  0.00     0.164 HD
HETATM   14  H   UNK N   1      20.286  15.965   6.948  0.00  0.00     0.165 HD
BRANCH  12  15
HETATM   15  C   UNK N   1      18.807  16.970   8.629  0.00  0.00     0.086 C 
HETATM   16  C   UNK N   1      17.395  17.116   9.161  0.00  0.00     0.025 C 
HETATM   17  C   UNK N   1      17.466  18.110  10.313  0.00  0.00     0.002 C 
HETATM   18  C   UNK N   1      18.853  18.728  10.272  0.00  0.00     0.002 C 
HETATM   19  C   UNK N   1      19.451  18.305   8.948  0.00  0.00     0.025 C 
ENDBRANCH  12  15
ENDBRANCH   8   9
BRANCH   8  20
HETATM   20  C   UNK N   1      21.348  13.474   5.942  0.00  0.00     0.009 C 
HETATM   21  C   UNK N   1      19.997  13.814   5.334  0.00  0.00     0.012 C 
HETATM   22  C   UNK N   1      21.263  12.130   6.649  0.00  0.00     0.012 C 
ENDBRANCH   8  20
ENDBRANCH   1   8
BRANCH   4  23
HETATM   23  C   UNK N   1      25.142  16.837   4.105  0.00  0.00     0.035 A 
HETATM   24  C   UNK N   1      24.353  15.910   3.206  0.00  0.00     0.019 A 
HETATM   25  C   UNK N   1      25.642  15.462   2.538  0.00  0.00     0.002 A 
HETATM   26  C   UNK N   1      26.437  16.367   3.461  0.00  0.00     0.019 A 
BRANCH  23  27
HETATM   27  C   UNK N   1      24.815  18.256   3.721  0.00  0.00     0.242 C 
HETATM   28  O   UNK N   1      23.670  18.676   3.752  0.00  0.00    -0.306 OA
ENDBRANCH  23  27
ENDBRANCH   4  23
BRANCH   5  29
HETATM   29  N   UNK N   1      27.138  17.269   6.773  0.00  0.00    -0.354 N 
HETATM   30  C   UNK N   1      28.490  17.391   6.832  0.00  0.00     0.222 C 
HETATM   31  O   UNK N   1      28.970  18.306   7.481  0.00  0.00    -0.273 OA
HETATM   32  H   UNK N   1      26.600  18.011   7.135  0.00  0.00     0.162 HD
BRANCH  30  33
HETATM   33  C   UNK N   1      29.413  16.432   6.130  0.00  0.00     0.078 A 
HETATM   34  C   UNK N   1      29.926  17.053   4.837  0.00  0.00     0.015 A 
HETATM   35  C   UNK N   1      30.812  17.030   6.054  0.00  0.00     0.015 A 
ENDBRANCH  30  33
ENDBRANCH   5  29
TORSDOF 8
ENDMDL
MODEL 8
REMARK VINA RESULT:      -6.2      5.020      8.721
REMARK  8 active torsions:
REMARK  status: ('A' for Active; 'I' for Inactive)
REMARK    1  A    between atoms: C_4  and  C_25 
REMARK       I    between atoms: C_5  and  N_6 
REMARK       I    between atoms: C_5  and  N_12 
REMARK    2  A    between atoms: N_6  and  C_7 
REMARK    3  A    between atoms: C_13  and  N_12 
REMARK    4  A    between atoms: C_13  and  C_14 
REMARK    5  A    between atoms: C_13  and  C_17 
REMARK       I    between atoms: C_17  and  N_19 
REMARK    6  A    between atoms: C_20  and  C_27 
REMARK    7  A    between atoms: C_21  and  N_24 
REMARK       I    between atoms: N_24  and  C_25 
REMARK    8  A    between atoms: C_27  and  C_28 
ROOT
HETATM    1  C   UNK N   1      22.558  14.859   4.216  0.00  0.00     0.243 C 
HETATM    2  O   UNK N   1      23.305  14.287   3.435  0.00  0.00    -0.271 OA
HETATM    3  N   UNK N   1      22.381  14.364   5.483  0.00  0.00    -0.342 N 
HETATM    4  C   UNK N   1      23.192  13.294   6.040  0.00  0.00     0.125 C 
HETATM    5  C   UNK N   1      22.890  13.374   7.553  0.00  0.00     0.110 C 
HETATM    6  C   UNK N   1      22.324  14.772   7.765  0.00  0.00     0.047 C 
HETATM    7  C   UNK N   1      21.605  15.070   6.466  0.00  0.00     0.128 C 
ENDROOT
BRANCH   1   8
HETATM    8  C   UNK N   1      21.917  16.177   3.788  0.00  0.00     0.181 C 
BRANCH   8   9
HETATM    9  N   UNK N   1      22.922  17.229   3.669  0.00  0.00    -0.330 N 
HETATM   10  C   UNK N   1      23.195  18.170   4.626  0.00  0.00     0.317 C 
HETATM   11  O   UNK N   1      22.517  18.243   5.638  0.00  0.00    -0.247 OA
HETATM   12  N   UNK N   1      24.220  19.042   4.459  0.00  0.00    -0.339 N 
HETATM   13  H   UNK N   1      24.368  19.729   5.148  0.00  0.00     0.164 HD
HETATM   14  H   UNK N   1      23.446  17.264   2.837  0.00  0.00     0.165 HD
BRANCH  12  15
HETATM   15  C   UNK N   1      25.105  19.009   3.316  0.00  0.00     0.086 C 
HETATM   16  C   UNK N   1      25.650  20.400   3.065  0.00  0.00     0.025 C 
HETATM   17  C   UNK N   1      26.926  20.522   3.886  0.00  0.00     0.002 C 
HETATM   18  C   UNK N   1      27.254  19.129   4.394  0.00  0.00     0.002 C 
HETATM   19  C   UNK N   1      26.342  18.190   3.634  0.00  0.00     0.025 C 
ENDBRANCH  12  15
ENDBRANCH   8   9
BRANCH   8  20
HETATM   20  C   UNK N   1      21.079  16.106   2.486  0.00  0.00     0.009 C 
HETATM   21  C   UNK N   1      20.434  17.439   2.148  0.00  0.00     0.012 C 
HETATM   22  C   UNK N   1      20.026  15.009   2.461  0.00  0.00     0.012 C 
ENDBRANCH   8  20
ENDBRANCH   1   8
BRANCH   4  23
HETATM   23  C   UNK N   1      22.929  11.850   5.482  0.00  0.00     0.035 A 
HETATM   24  C   UNK N   1      21.673  11.652   4.660  0.00  0.00     0.019 A 
HETATM   25  C   UNK N   1      21.169  10.640   5.676  0.00  0.00     0.002 A 
HETATM   26  C   UNK N   1      22.412  10.863   6.517  0.00  0.00     0.019 A 
BRANCH  23  27
HETATM   27  C   UNK N   1      24.090  11.286   4.709  0.00  0.00     0.242 C 
HETATM   28  O   UNK N   1      25.229  11.685   4.890  0.00  0.00    -0.306 OA
ENDBRANCH  23  27
ENDBRANCH   4  23
BRANCH   5  29
HETATM   29  N   UNK N   1      24.100  13.192   8.330  0.00  0.00    -0.354 N 
HETATM   30  C   UNK N   1      24.149  13.026   9.678  0.00  0.00     0.222 C 
HETATM   31  O   UNK N   1      25.235  13.065  10.236  0.00  0.00    -0.273 OA
HETATM   32  H   UNK N   1      24.955  13.190   7.842  0.00  0.00     0.162 HD
BRANCH  30  33
HETATM   33  C   UNK N   1      22.912  12.802  10.505  0.00  0.00     0.078 A 
HETATM   34  C   UNK N   1      22.614  11.311  10.606  0.00  0.00     0.015 A 
HETATM   35  C   UNK N   1      23.270  12.019  11.762  0.00  0.00     0.015 A 
ENDBRANCH  30  33
ENDBRANCH   5  29
TORSDOF 8
ENDMDL
MODEL 9
REMARK VINA RESULT:      -6.2      3.282      8.389
REMARK  8 active torsions:
REMARK  status: ('A' for Active; 'I' for Inactive)
REMARK    1  A    between atoms: C_4  and  C_25 
REMARK       I    between atoms: C_5  and  N_6 
REMARK       I    between atoms: C_5  and  N_12 
REMARK    2  A    between atoms: N_6  and  C_7 
REMARK    3  A    between atoms: C_13  and  N_12 
REMARK    4  A    between atoms: C_13  and  C_14 
REMARK    5  A    between atoms: C_13  and  C_17 
REMARK       I    between atoms: C_17  and  N_19 
REMARK    6  A    between atoms: C_20  and  C_27 
REMARK    7  A    between atoms: C_21  and  N_24 
REMARK       I    between atoms: N_24  and  C_25 
REMARK    8  A    between atoms: C_27  and  C_28 
ROOT
HETATM    1  C   UNK N   1      23.934  16.762   5.215  0.00  0.00     0.243 C 
HETATM    2  O   UNK N   1      23.551  17.848   5.627  0.00  0.00    -0.271 OA
HETATM    3  N   UNK N   1      25.272  16.536   5.016  0.00  0.00    -0.342 N 
HETATM    4  C   UNK N   1      26.309  17.453   5.459  0.00  0.00     0.125 C 
HETATM    5  C   UNK N   1      27.594  16.602   5.370  0.00  0.00     0.110 C 
HETATM    6  C   UNK N   1      27.107  15.158   5.353  0.00  0.00     0.047 C 
HETATM    7  C   UNK N   1      25.769  15.239   4.646  0.00  0.00     0.128 C 
ENDROOT
BRANCH   1   8
HETATM    8  C   UNK N   1      22.909  15.644   5.031  0.00  0.00     0.181 C 
BRANCH   8   9
HETATM    9  N   UNK N   1      22.619  14.991   6.303  0.00  0.00    -0.330 N 
HETATM   10  C   UNK N   1      22.442  13.644   6.476  0.00  0.00     0.317 C 
HETATM   11  O   UNK N   1      22.421  12.891   5.515  0.00  0.00    -0.247 OA
HETATM   12  N   UNK N   1      22.277  13.126   7.718  0.00  0.00    -0.339 N 
HETATM   13  H   UNK N   1      22.116  12.159   7.805  0.00  0.00     0.164 HD
HETATM   14  H   UNK N   1      22.546  15.563   7.101  0.00  0.00     0.165 HD
BRANCH  12  15
HETATM   15  C   UNK N   1      22.327  13.929   8.920  0.00  0.00     0.086 C 
HETATM   16  C   UNK N   1      20.926  14.086   9.476  0.00  0.00     0.025 C 
HETATM   17  C   UNK N   1      20.701  12.915  10.423  0.00  0.00     0.002 C 
HETATM   18  C   UNK N   1      22.049  12.241  10.613  0.00  0.00     0.002 C 
HETATM   19  C   UNK N   1      23.068  13.187  10.016  0.00  0.00     0.025 C 
ENDBRANCH  12  15
ENDBRANCH   8   9
BRANCH   8  20
HETATM   20  C   UNK N   1      21.585  16.075   4.350  0.00  0.00     0.009 C 
HETATM   21  C   UNK N   1      20.455  16.240   5.353  0.00  0.00     0.012 C 
HETATM   22  C   UNK N   1      21.128  15.177   3.211  0.00  0.00     0.012 C 
ENDBRANCH   8  20
ENDBRANCH   1   8
BRANCH   4  23
HETATM   23  C   UNK N   1      26.454  18.791   4.650  0.00  0.00     0.035 A 
HETATM   24  C   UNK N   1      27.860  19.303   4.418  0.00  0.00     0.019 A 
HETATM   25  C   UNK N   1      27.524  20.570   5.186  0.00  0.00     0.002 A 
HETATM   26  C   UNK N   1      26.125  20.044   5.447  0.00  0.00     0.019 A 
BRANCH  23  27
HETATM   27  C   UNK N   1      25.737  18.772   3.327  0.00  0.00     0.242 C 
HETATM   28  O   UNK N   1      24.875  19.592   3.058  0.00  0.00    -0.306 OA
ENDBRANCH  23  27
ENDBRANCH   4  23
BRANCH   5  29
HETATM   29  N   UNK N   1      28.448  16.836   6.517  0.00  0.00    -0.354 N 
HETATM   30  C   UNK N   1      29.789  16.616   6.556  0.00  0.00     0.222 C 
HETATM   31  O   UNK N   1      30.364  16.679   7.631  0.00  0.00    -0.273 OA
HETATM   32  H   UNK N   1      28.022  17.181   7.335  0.00  0.00     0.162 HD
BRANCH  30  33
HETATM   33  C   UNK N   1      30.585  16.294   5.320  0.00  0.00     0.078 A 
HETATM   34  C   UNK N   1      31.065  17.580   4.658  0.00  0.00     0.015 A 
HETATM   35  C   UNK N   1      32.020  16.773   5.496  0.00  0.00     0.015 A 
ENDBRANCH  30  33
ENDBRANCH   5  29
TORSDOF 8
ENDMDL
