MODEL 1
REMARK VINA RESULT:      -8.0      0.000      0.000
REMARK  7 active torsions:
REMARK  status: ('A' for Active; 'I' for Inactive)
REMARK    1  A    between atoms: C_5  and  C_6 
REMARK    2  A    between atoms: C_6  and  O_7 
REMARK    3  A    between atoms: C_8  and  O_7 
REMARK    4  A    between atoms: C_11  and  C_12 
REMARK    5  A    between atoms: C_12  and  N_13 
REMARK    6  A    between atoms: N_13  and  S_14 
REMARK    7  A    between atoms: S_14  and  C_17 
ROOT
HETATM    1  C   UNK N   1      35.404  15.973   9.862  0.00  0.00     0.157 C 
ENDROOT
BRANCH   1   2
HETATM    2  C   UNK N   1      34.686  14.640  10.103  0.00  0.00     0.097 C 
HETATM    3  N   UNK N   1      35.435  13.520   9.535  0.00  0.00    -0.413 N 
HETATM    4  C   UNK N   1      35.439  12.489  10.559  0.00  0.00     0.146 C 
HETATM    5  H   UNK N   1      35.866  13.472   8.611  0.00  0.00     0.153 HD
HETATM    6  C   UNK N   1      35.355  13.197  11.904  0.00  0.00     0.141 C 
HETATM    7  C   UNK N   1      34.454  14.360  11.582  0.00  0.00     0.060 C 
BRANCH   6   8
HETATM    8  O   UNK N   1      36.602  13.700  12.343  0.00  0.00    -0.380 OA
BRANCH   8   9
HETATM    9  C   UNK N   1      36.438  14.230  13.636  0.00  0.00     0.206 C 
BRANCH   9  10
HETATM   10  C   UNK N   1      36.252  13.157  14.659  0.00  0.00    -0.035 A 
HETATM   11  C   UNK N   1      37.115  12.058  14.654  0.00  0.00     0.011 A 
HETATM   12  C   UNK N   1      36.988  11.060  15.624  0.00  0.00     0.024 A 
HETATM   13  C   UNK N   1      36.003  11.167  16.609  0.00  0.00     0.034 A 
HETATM   14 Cl   UNK N   1      35.866   9.925  17.835  0.00  0.00    -0.084 Cl
HETATM   15  C   UNK N   1      35.140  12.267  16.620  0.00  0.00     0.024 A 
HETATM   16  C   UNK N   1      35.262  13.263  15.643  0.00  0.00     0.011 A 
ENDBRANCH   9  10
ENDBRANCH   8   9
ENDBRANCH   6   8
ENDBRANCH   1   2
BRANCH   1  17
HETATM   17  N   UNK N   1      34.477  17.094   9.778  0.00  0.00    -0.313 N 
HETATM   18  H   UNK N   1      34.087  17.611  10.567  0.00  0.00     0.172 HD
BRANCH  17  19
HETATM   19  S   UNK N   1      34.144  17.402   8.058  0.00  0.00     0.259 S 
HETATM   20  O   UNK N   1      34.847  18.731   7.747  0.00  0.00    -0.201 OA
HETATM   21  O   UNK N   1      35.031  16.421   7.272  0.00  0.00    -0.201 OA
BRANCH  19  22
HETATM   22  C   UNK N   1      32.455  17.378   7.437  0.00  0.00     0.090 A 
HETATM   23  C   UNK N   1      31.405  17.390   8.363  0.00  0.00     0.026 A 
HETATM   24  C   UNK N   1      30.076  17.345   7.935  0.00  0.00     0.002 A 
HETATM   25  C   UNK N   1      29.782  17.287   6.572  0.00  0.00     0.014 A 
HETATM   26  C   UNK N   1      30.816  17.273   5.636  0.00  0.00    -0.009 A 
HETATM   27  C   UNK N   1      30.527  17.211   4.271  0.00  0.00     0.100 A 
HETATM   28  C   UNK N   1      32.164  17.319   6.059  0.00  0.00     0.000 A 
HETATM   29  N   UNK N   1      31.535  17.196   3.360  0.00  0.00    -0.374 N 
HETATM   30  C   UNK N   1      32.842  17.241   3.741  0.00  0.00     0.088 A 
ATOM     31  HN  UNK N   1      31.309  17.150   2.366  1.00  0.00     0.164 HD
HETATM   32  C   UNK N   1      33.179  17.302   5.097  0.00  0.00     0.031 A 
ENDBRANCH  19  22
ENDBRANCH  17  19
ENDBRANCH   1  17
TORSDOF 7
ENDMDL
MODEL 2
REMARK VINA RESULT:      -8.0      1.982      2.997
REMARK  7 active torsions:
REMARK  status: ('A' for Active; 'I' for Inactive)
REMARK    1  A    between atoms: C_5  and  C_6 
REMARK    2  A    between atoms: C_6  and  O_7 
REMARK    3  A    between atoms: C_8  and  O_7 
REMARK    4  A    between atoms: C_11  and  C_12 
REMARK    5  A    between atoms: C_12  and  N_13 
REMARK    6  A    between atoms: N_13  and  S_14 
REMARK    7  A    between atoms: S_14  and  C_17 
ROOT
HETATM    1  C   UNK N   1      33.747  14.788   9.042  0.00  0.00     0.157 C 
ENDROOT
BRANCH   1   2
HETATM    2  C   UNK N   1      35.070  15.311   9.613  0.00  0.00     0.097 C 
HETATM    3  N   UNK N   1      34.851  16.429  10.530  0.00  0.00    -0.413 N 
HETATM    4  C   UNK N   1      35.682  16.155  11.691  0.00  0.00     0.146 C 
HETATM    5  H   UNK N   1      34.241  17.234  10.385  0.00  0.00     0.153 HD
HETATM    6  C   UNK N   1      35.810  14.643  11.799  0.00  0.00     0.141 C 
HETATM    7  C   UNK N   1      35.855  14.235  10.351  0.00  0.00     0.060 C 
BRANCH   6   8
HETATM    8  O   UNK N   1      34.686  14.034  12.405  0.00  0.00    -0.380 OA
BRANCH   8   9
HETATM    9  C   UNK N   1      34.914  12.647  12.473  0.00  0.00     0.206 C 
BRANCH   9  10
HETATM   10  C   UNK N   1      34.908  12.149  13.880  0.00  0.00    -0.035 A 
HETATM   11  C   UNK N   1      34.250  10.951  14.174  0.00  0.00     0.011 A 
HETATM   12  C   UNK N   1      34.263  10.443  15.476  0.00  0.00     0.024 A 
HETATM   13  C   UNK N   1      34.945  11.127  16.485  0.00  0.00     0.034 A 
HETATM   14 Cl   UNK N   1      34.976  10.473  18.108  0.00  0.00    -0.084 Cl
HETATM   15  C   UNK N   1      35.607  12.325  16.195  0.00  0.00     0.024 A 
HETATM   16  C   UNK N   1      35.588  12.839  14.892  0.00  0.00     0.011 A 
ENDBRANCH   9  10
ENDBRANCH   8   9
ENDBRANCH   6   8
ENDBRANCH   1   2
BRANCH   1  17
HETATM   17  N   UNK N   1      32.672  15.766   9.151  0.00  0.00    -0.313 N 
HETATM   18  H   UNK N   1      32.019  15.857   9.929  0.00  0.00     0.172 HD
BRANCH  17  19
HETATM   19  S   UNK N   1      32.699  16.774   7.685  0.00  0.00     0.259 S 
HETATM   20  O   UNK N   1      33.504  18.022   8.073  0.00  0.00    -0.201 OA
HETATM   21  O   UNK N   1      33.682  16.091   6.718  0.00  0.00    -0.201 OA
BRANCH  19  22
HETATM   22  C   UNK N   1      31.166  17.201   6.844  0.00  0.00     0.090 A 
HETATM   23  C   UNK N   1      31.105  17.051   5.453  0.00  0.00     0.026 A 
HETATM   24  C   UNK N   1      29.948  17.393   4.749  0.00  0.00     0.002 A 
HETATM   25  C   UNK N   1      28.837  17.893   5.429  0.00  0.00     0.014 A 
HETATM   26  C   UNK N   1      28.881  18.050   6.815  0.00  0.00    -0.009 A 
HETATM   27  C   UNK N   1      27.773  18.553   7.500  0.00  0.00     0.100 A 
HETATM   28  C   UNK N   1      30.047  17.705   7.537  0.00  0.00     0.000 A 
HETATM   29  N   UNK N   1      27.818  18.706   8.850  0.00  0.00    -0.374 N 
HETATM   30  C   UNK N   1      28.928  18.381   9.569  0.00  0.00     0.088 A 
ATOM     31  HN  UNK N   1      27.000  19.075   9.337  1.00  0.00     0.164 HD
HETATM   32  C   UNK N   1      30.062  17.875   8.925  0.00  0.00     0.031 A 
ENDBRANCH  19  22
ENDBRANCH  17  19
ENDBRANCH   1  17
TORSDOF 7
ENDMDL
MODEL 3
REMARK VINA RESULT:      -7.9      8.076     11.734
REMARK  7 active torsions:
REMARK  status: ('A' for Active; 'I' for Inactive)
REMARK    1  A    between atoms: C_5  and  C_6 
REMARK    2  A    between atoms: C_6  and  O_7 
REMARK    3  A    between atoms: C_8  and  O_7 
REMARK    4  A    between atoms: C_11  and  C_12 
REMARK    5  A    between atoms: C_12  and  N_13 
REMARK    6  A    between atoms: N_13  and  S_14 
REMARK    7  A    between atoms: S_14  and  C_17 
ROOT
HETATM    1  C   UNK N   1      24.734  18.069   4.137  0.00  0.00     0.157 C 
ENDROOT
BRANCH   1   2
HETATM    2  C   UNK N   1      25.808  19.090   3.742  0.00  0.00     0.097 C 
HETATM    3  N   UNK N   1      25.582  20.380   4.393  0.00  0.00    -0.413 N 
HETATM    4  C   UNK N   1      26.880  20.797   4.899  0.00  0.00     0.146 C 
HETATM    5  H   UNK N   1      24.699  20.882   4.475  0.00  0.00     0.153 HD
HETATM    6  C   UNK N   1      27.671  19.531   5.193  0.00  0.00     0.141 C 
HETATM    7  C   UNK N   1      27.215  18.620   4.085  0.00  0.00     0.060 C 
BRANCH   6   8
HETATM    8  O   UNK N   1      27.328  18.939   6.433  0.00  0.00    -0.380 OA
BRANCH   8   9
HETATM    9  C   UNK N   1      27.861  17.638   6.467  0.00  0.00     0.206 C 
BRANCH   9  10
HETATM   10  C   UNK N   1      29.234  17.612   7.053  0.00  0.00    -0.035 A 
HETATM   11  C   UNK N   1      30.282  17.068   6.305  0.00  0.00     0.011 A 
HETATM   12  C   UNK N   1      31.583  17.067   6.814  0.00  0.00     0.024 A 
HETATM   13  C   UNK N   1      31.841  17.622   8.071  0.00  0.00     0.034 A 
HETATM   14 Cl   UNK N   1      33.476  17.638   8.692  0.00  0.00    -0.084 Cl
HETATM   15  C   UNK N   1      30.795  18.170   8.822  0.00  0.00     0.024 A 
HETATM   16  C   UNK N   1      29.490  18.163   8.315  0.00  0.00     0.011 A 
ENDBRANCH   9  10
ENDBRANCH   8   9
ENDBRANCH   6   8
ENDBRANCH   1   2
BRANCH   1  17
HETATM   17  N   UNK N   1      24.209  18.308   5.476  0.00  0.00    -0.313 N 
HETATM   18  H   UNK N   1      24.690  18.796   6.231  0.00  0.00     0.172 HD
BRANCH  17  19
HETATM   19  S   UNK N   1      22.581  17.594   5.560  0.00  0.00     0.259 S 
HETATM   20  O   UNK N   1      22.743  16.331   6.418  0.00  0.00    -0.201 OA
HETATM   21  O   UNK N   1      21.775  18.487   6.518  0.00  0.00    -0.201 OA
BRANCH  19  22
HETATM   22  C   UNK N   1      21.651  17.265   4.055  0.00  0.00     0.090 A 
HETATM   23  C   UNK N   1      21.332  15.937   3.746  0.00  0.00     0.026 A 
HETATM   24  C   UNK N   1      20.634  15.625   2.577  0.00  0.00     0.002 A 
HETATM   25  C   UNK N   1      20.248  16.640   1.701  0.00  0.00     0.014 A 
HETATM   26  C   UNK N   1      20.557  17.968   1.993  0.00  0.00    -0.009 A 
HETATM   27  C   UNK N   1      20.176  18.987   1.118  0.00  0.00     0.100 A 
HETATM   28  C   UNK N   1      21.262  18.295   3.175  0.00  0.00     0.000 A 
HETATM   29  N   UNK N   1      20.480  20.281   1.403  0.00  0.00    -0.374 N 
HETATM   30  C   UNK N   1      21.156  20.622   2.534  0.00  0.00     0.088 A 
ATOM     31  HN  UNK N   1      20.195  21.014   0.754  1.00  0.00     0.164 HD
HETATM   32  C   UNK N   1      21.560  19.635   3.439  0.00  0.00     0.031 A 
ENDBRANCH  19  22
ENDBRANCH  17  19
ENDBRANCH   1  17
TORSDOF 7
ENDMDL
MODEL 4
REMARK VINA RESULT:      -7.9      6.949     11.622
REMARK  7 active torsions:
REMARK  status: ('A' for Active; 'I' for Inactive)
REMARK    1  A    between atoms: C_5  and  C_6 
REMARK    2  A    between atoms: C_6  and  O_7 
REMARK    3  A    between atoms: C_8  and  O_7 
REMARK    4  A    between atoms: C_11  and  C_12 
REMARK    5  A    between atoms: C_12  and  N_13 
REMARK    6  A    between atoms: N_13  and  S_14 
REMARK    7  A    between atoms: S_14  and  C_17 
ROOT
HETATM    1  C   UNK N   1      28.091  19.360   6.269  0.00  0.00     0.157 C 
ENDROOT
BRANCH   1   2
HETATM    2  C   UNK N   1      27.496  20.365   5.276  0.00  0.00     0.097 C 
HETATM    3  N   UNK N   1      27.671  19.917   3.895  0.00  0.00    -0.413 N 
HETATM    4  C   UNK N   1      26.387  20.128   3.247  0.00  0.00     0.146 C 
HETATM    5  H   UNK N   1      28.518  19.537   3.473  0.00  0.00     0.153 HD
HETATM    6  C   UNK N   1      25.319  20.004   4.325  0.00  0.00     0.141 C 
HETATM    7  C   UNK N   1      26.013  20.614   5.514  0.00  0.00     0.060 C 
BRANCH   6   8
HETATM    8  O   UNK N   1      24.995  18.661   4.631  0.00  0.00    -0.380 OA
BRANCH   8   9
HETATM    9  C   UNK N   1      23.644  18.445   4.305  0.00  0.00     0.206 C 
BRANCH   9  10
HETATM   10  C   UNK N   1      22.949  17.612   5.332  0.00  0.00    -0.035 A 
HETATM   11  C   UNK N   1      21.768  18.090   5.909  0.00  0.00     0.011 A 
HETATM   12  C   UNK N   1      21.078  17.314   6.842  0.00  0.00     0.024 A 
HETATM   13  C   UNK N   1      21.561  16.050   7.194  0.00  0.00     0.034 A 
HETATM   14 Cl   UNK N   1      20.678  15.074   8.347  0.00  0.00    -0.084 Cl
HETATM   15  C   UNK N   1      22.741  15.567   6.617  0.00  0.00     0.024 A 
HETATM   16  C   UNK N   1      23.438  16.348   5.687  0.00  0.00     0.011 A 
ENDBRANCH   9  10
ENDBRANCH   8   9
ENDBRANCH   6   8
ENDBRANCH   1   2
BRANCH   1  17
HETATM   17  N   UNK N   1      27.427  18.064   6.211  0.00  0.00    -0.313 N 
HETATM   18  H   UNK N   1      26.504  17.844   6.586  0.00  0.00     0.172 HD
BRANCH  17  19
HETATM   19  S   UNK N   1      28.511  16.931   5.370  0.00  0.00     0.259 S 
HETATM   20  O   UNK N   1      28.117  15.542   5.889  0.00  0.00    -0.201 OA
HETATM   21  O   UNK N   1      27.999  16.849   3.921  0.00  0.00    -0.201 OA
BRANCH  19  22
HETATM   22  C   UNK N   1      30.294  17.178   5.405  0.00  0.00     0.090 A 
HETATM   23  C   UNK N   1      30.961  17.390   4.193  0.00  0.00     0.026 A 
HETATM   24  C   UNK N   1      32.347  17.561   4.162  0.00  0.00     0.002 A 
HETATM   25  C   UNK N   1      33.084  17.520   5.347  0.00  0.00     0.014 A 
HETATM   26  C   UNK N   1      32.435  17.309   6.564  0.00  0.00    -0.009 A 
HETATM   27  C   UNK N   1      33.167  17.264   7.752  0.00  0.00     0.100 A 
HETATM   28  C   UNK N   1      31.032  17.137   6.606  0.00  0.00     0.000 A 
HETATM   29  N   UNK N   1      32.534  17.057   8.936  0.00  0.00    -0.374 N 
HETATM   30  C   UNK N   1      31.184  16.890   9.004  0.00  0.00     0.088 A 
ATOM     31  HN  UNK N   1      33.082  17.027   9.796  1.00  0.00     0.164 HD
HETATM   32  C   UNK N   1      30.410  16.925   7.840  0.00  0.00     0.031 A 
ENDBRANCH  19  22
ENDBRANCH  17  19
ENDBRANCH   1  17
TORSDOF 7
ENDMDL
MODEL 5
REMARK VINA RESULT:      -7.7     16.908     19.880
REMARK  7 active torsions:
REMARK  status: ('A' for Active; 'I' for Inactive)
REMARK    1  A    between atoms: C_5  and  C_6 
REMARK    2  A    between atoms: C_6  and  O_7 
REMARK    3  A    between atoms: C_8  and  O_7 
REMARK    4  A    between atoms: C_11  and  C_12 
REMARK    5  A    between atoms: C_12  and  N_13 
REMARK    6  A    between atoms: N_13  and  S_14 
REMARK    7  A    between atoms: S_14  and  C_17 
ROOT
HETATM    1  C   UNK N   1      32.594  23.788  -4.452  0.00  0.00     0.157 C 
ENDROOT
BRANCH   1   2
HETATM    2  C   UNK N   1      32.720  22.270  -4.627  0.00  0.00     0.097 C 
HETATM    3  N   UNK N   1      32.051  21.551  -3.544  0.00  0.00    -0.413 N 
HETATM    4  C   UNK N   1      31.286  20.495  -4.186  0.00  0.00     0.146 C 
HETATM    5  H   UNK N   1      32.108  21.749  -2.545  0.00  0.00     0.153 HD
HETATM    6  C   UNK N   1      30.921  20.993  -5.577  0.00  0.00     0.141 C 
HETATM    7  C   UNK N   1      32.146  21.784  -5.951  0.00  0.00     0.060 C 
BRANCH   6   8
HETATM    8  O   UNK N   1      29.805  21.862  -5.579  0.00  0.00    -0.380 OA
BRANCH   8   9
HETATM    9  C   UNK N   1      28.972  21.515  -6.658  0.00  0.00     0.206 C 
BRANCH   9  10
HETATM   10  C   UNK N   1      28.158  22.675  -7.130  0.00  0.00    -0.035 A 
HETATM   11  C   UNK N   1      28.812  23.830  -7.569  0.00  0.00     0.011 A 
HETATM   12  C   UNK N   1      28.075  24.914  -8.052  0.00  0.00     0.024 A 
HETATM   13  C   UNK N   1      26.681  24.840  -8.110  0.00  0.00     0.034 A 
HETATM   14 Cl   UNK N   1      25.766  26.193  -8.739  0.00  0.00    -0.084 Cl
HETATM   15  C   UNK N   1      26.022  23.685  -7.675  0.00  0.00     0.024 A 
HETATM   16  C   UNK N   1      26.760  22.601  -7.183  0.00  0.00     0.011 A 
ENDBRANCH   9  10
ENDBRANCH   8   9
ENDBRANCH   6   8
ENDBRANCH   1   2
BRANCH   1  17
HETATM   17  N   UNK N   1      31.381  24.317  -5.063  0.00  0.00    -0.313 N 
HETATM   18  H   UNK N   1      31.180  24.358  -6.062  0.00  0.00     0.172 HD
BRANCH  17  19
HETATM   19  S   UNK N   1      30.312  24.879  -3.756  0.00  0.00     0.259 S 
HETATM   20  O   UNK N   1      30.496  23.860  -2.623  0.00  0.00    -0.201 OA
HETATM   21  O   UNK N   1      31.000  26.112  -3.145  0.00  0.00    -0.201 OA
BRANCH  19  22
HETATM   22  C   UNK N   1      28.573  25.211  -4.080  0.00  0.00     0.090 A 
HETATM   23  C   UNK N   1      27.630  24.246  -3.707  0.00  0.00     0.026 A 
HETATM   24  C   UNK N   1      26.270  24.443  -3.959  0.00  0.00     0.002 A 
HETATM   25  C   UNK N   1      25.837  25.609  -4.592  0.00  0.00     0.014 A 
HETATM   26  C   UNK N   1      26.763  26.580  -4.971  0.00  0.00    -0.009 A 
HETATM   27  C   UNK N   1      26.336  27.748  -5.608  0.00  0.00     0.100 A 
HETATM   28  C   UNK N   1      28.142  26.392  -4.719  0.00  0.00     0.000 A 
HETATM   29  N   UNK N   1      27.240  28.693  -5.978  0.00  0.00    -0.374 N 
HETATM   30  C   UNK N   1      28.573  28.536  -5.746  0.00  0.00     0.088 A 
ATOM     31  HN  UNK N   1      26.913  29.540  -6.443  1.00  0.00     0.164 HD
HETATM   32  C   UNK N   1      29.047  27.382  -5.113  0.00  0.00     0.031 A 
ENDBRANCH  19  22
ENDBRANCH  17  19
ENDBRANCH   1  17
TORSDOF 7
ENDMDL
MODEL 6
REMARK VINA RESULT:      -7.7     19.221     21.023
REMARK  7 active torsions:
REMARK  status: ('A' for Active; 'I' for Inactive)
REMARK    1  A    between atoms: C_5  and  C_6 
REMARK    2  A    between atoms: C_6  and  O_7 
REMARK    3  A    between atoms: C_8  and  O_7 
REMARK    4  A    between atoms: C_11  and  C_12 
REMARK    5  A    between atoms: C_12  and  N_13 
REMARK    6  A    between atoms: N_13  and  S_14 
REMARK    7  A    between atoms: S_14  and  C_17 
ROOT
HETATM    1  C   UNK N   1      30.829  28.081  -2.870  0.00  0.00     0.157 C 
ENDROOT
BRANCH   1   2
HETATM    2  C   UNK N   1      30.406  29.513  -2.525  0.00  0.00     0.097 C 
HETATM    3  N   UNK N   1      29.938  30.231  -3.710  0.00  0.00    -0.413 N 
HETATM    4  C   UNK N   1      28.713  30.902  -3.305  0.00  0.00     0.146 C 
HETATM    5  H   UNK N   1      30.379  30.256  -4.629  0.00  0.00     0.153 HD
HETATM    6  C   UNK N   1      28.089  30.062  -2.201  0.00  0.00     0.141 C 
HETATM    7  C   UNK N   1      29.307  29.561  -1.472  0.00  0.00     0.060 C 
BRANCH   6   8
HETATM    8  O   UNK N   1      27.369  28.948  -2.694  0.00  0.00    -0.380 OA
BRANCH   8   9
HETATM    9  C   UNK N   1      26.384  29.414  -3.583  0.00  0.00     0.206 C 
BRANCH   9  10
HETATM   10  C   UNK N   1      26.288  28.561  -4.805  0.00  0.00    -0.035 A 
HETATM   11  C   UNK N   1      27.339  28.572  -5.727  0.00  0.00     0.011 A 
HETATM   12  C   UNK N   1      27.291  27.754  -6.858  0.00  0.00     0.024 A 
HETATM   13  C   UNK N   1      26.195  26.912  -7.065  0.00  0.00     0.034 A 
HETATM   14 Cl   UNK N   1      26.154  25.873  -8.472  0.00  0.00    -0.084 Cl
HETATM   15  C   UNK N   1      25.142  26.895  -6.144  0.00  0.00     0.024 A 
HETATM   16  C   UNK N   1      25.186  27.721  -5.014  0.00  0.00     0.011 A 
ENDBRANCH   9  10
ENDBRANCH   8   9
ENDBRANCH   6   8
ENDBRANCH   1   2
BRANCH   1  17
HETATM   17  N   UNK N   1      29.866  27.412  -3.736  0.00  0.00    -0.313 N 
HETATM   18  H   UNK N   1      28.951  27.773  -4.007  0.00  0.00     0.172 HD
BRANCH  17  19
HETATM   19  S   UNK N   1      30.567  25.855  -4.234  0.00  0.00     0.259 S 
HETATM   20  O   UNK N   1      32.010  26.179  -4.644  0.00  0.00    -0.201 OA
HETATM   21  O   UNK N   1      30.811  25.064  -2.937  0.00  0.00    -0.201 OA
BRANCH  19  22
HETATM   22  C   UNK N   1      29.737  24.832  -5.461  0.00  0.00     0.090 A 
HETATM   23  C   UNK N   1      30.443  24.471  -6.614  0.00  0.00     0.026 A 
HETATM   24  C   UNK N   1      29.837  23.700  -7.610  0.00  0.00     0.002 A 
HETATM   25  C   UNK N   1      28.514  23.283  -7.463  0.00  0.00     0.014 A 
HETATM   26  C   UNK N   1      27.796  23.633  -6.320  0.00  0.00    -0.009 A 
HETATM   27  C   UNK N   1      26.470  23.221  -6.169  0.00  0.00     0.100 A 
HETATM   28  C   UNK N   1      28.400  24.412  -5.306  0.00  0.00     0.000 A 
HETATM   29  N   UNK N   1      25.771  23.565  -5.056  0.00  0.00    -0.374 N 
HETATM   30  C   UNK N   1      26.330  24.313  -4.065  0.00  0.00     0.088 A 
ATOM     31  HN  UNK N   1      24.803  23.256  -4.960  1.00  0.00     0.164 HD
HETATM   32  C   UNK N   1      27.654  24.750  -4.173  0.00  0.00     0.031 A 
ENDBRANCH  19  22
ENDBRANCH  17  19
ENDBRANCH   1  17
TORSDOF 7
ENDMDL
MODEL 7
REMARK VINA RESULT:      -7.6      1.730      2.409
REMARK  7 active torsions:
REMARK  status: ('A' for Active; 'I' for Inactive)
REMARK    1  A    between atoms: C_5  and  C_6 
REMARK    2  A    between atoms: C_6  and  O_7 
REMARK    3  A    between atoms: C_8  and  O_7 
REMARK    4  A    between atoms: C_11  and  C_12 
REMARK    5  A    between atoms: C_12  and  N_13 
REMARK    6  A    between atoms: N_13  and  S_14 
REMARK    7  A    between atoms: S_14  and  C_17 
ROOT
HETATM    1  C   UNK N   1      32.979  15.454   8.725  0.00  0.00     0.157 C 
ENDROOT
BRANCH   1   2
HETATM    2  C   UNK N   1      34.403  15.907   9.065  0.00  0.00     0.097 C 
HETATM    3  N   UNK N   1      34.401  16.945  10.095  0.00  0.00    -0.413 N 
HETATM    4  C   UNK N   1      35.434  16.561  11.043  0.00  0.00     0.146 C 
HETATM    5  H   UNK N   1      33.800  17.768  10.139  0.00  0.00     0.153 HD
HETATM    6  C   UNK N   1      35.535  15.043  11.000  0.00  0.00     0.141 C 
HETATM    7  C   UNK N   1      35.284  14.761   9.543  0.00  0.00     0.060 C 
BRANCH   6   8
HETATM    8  O   UNK N   1      34.533  14.400  11.764  0.00  0.00    -0.380 OA
BRANCH   8   9
HETATM    9  C   UNK N   1      34.888  13.047  11.915  0.00  0.00     0.206 C 
BRANCH   9  10
HETATM   10  C   UNK N   1      34.994  12.656  13.353  0.00  0.00    -0.035 A 
HETATM   11  C   UNK N   1      35.756  13.446  14.218  0.00  0.00     0.011 A 
HETATM   12  C   UNK N   1      35.840  13.124  15.574  0.00  0.00     0.024 A 
HETATM   13  C   UNK N   1      35.150  12.016  16.072  0.00  0.00     0.034 A 
HETATM   14 Cl   UNK N   1      35.240  11.632  17.777  0.00  0.00    -0.084 Cl
HETATM   15  C   UNK N   1      34.383  11.223  15.211  0.00  0.00     0.024 A 
HETATM   16  C   UNK N   1      34.306  11.541  13.849  0.00  0.00     0.011 A 
ENDBRANCH   9  10
ENDBRANCH   8   9
ENDBRANCH   6   8
ENDBRANCH   1   2
BRANCH   1  17
HETATM   17  N   UNK N   1      31.968  16.212   9.452  0.00  0.00    -0.313 N 
HETATM   18  H   UNK N   1      31.635  16.018  10.396  0.00  0.00     0.172 HD
BRANCH  17  19
HETATM   19  S   UNK N   1      31.417  17.537   8.399  0.00  0.00     0.259 S 
HETATM   20  O   UNK N   1      30.578  18.445   9.308  0.00  0.00    -0.201 OA
HETATM   21  O   UNK N   1      32.647  18.430   8.162  0.00  0.00    -0.201 OA
BRANCH  19  22
HETATM   22  C   UNK N   1      30.576  17.180   6.849  0.00  0.00     0.090 A 
HETATM   23  C   UNK N   1      29.181  17.063   6.860  0.00  0.00     0.026 A 
HETATM   24  C   UNK N   1      28.481  16.762   5.689  0.00  0.00     0.002 A 
HETATM   25  C   UNK N   1      29.171  16.571   4.491  0.00  0.00     0.014 A 
HETATM   26  C   UNK N   1      30.561  16.683   4.462  0.00  0.00    -0.009 A 
HETATM   27  C   UNK N   1      31.257  16.489   3.267  0.00  0.00     0.100 A 
HETATM   28  C   UNK N   1      31.279  16.989   5.642  0.00  0.00     0.000 A 
HETATM   29  N   UNK N   1      32.611  16.597   3.241  0.00  0.00    -0.374 N 
HETATM   30  C   UNK N   1      33.325  16.892   4.362  0.00  0.00     0.088 A 
ATOM     31  HN  UNK N   1      33.106  16.453   2.360  1.00  0.00     0.164 HD
HETATM   32  C   UNK N   1      32.672  17.093   5.582  0.00  0.00     0.031 A 
ENDBRANCH  19  22
ENDBRANCH  17  19
ENDBRANCH   1  17
TORSDOF 7
ENDMDL
MODEL 8
REMARK VINA RESULT:      -7.6      5.698      8.315
REMARK  7 active torsions:
REMARK  status: ('A' for Active; 'I' for Inactive)
REMARK    1  A    between atoms: C_5  and  C_6 
REMARK    2  A    between atoms: C_6  and  O_7 
REMARK    3  A    between atoms: C_8  and  O_7 
REMARK    4  A    between atoms: C_11  and  C_12 
REMARK    5  A    between atoms: C_12  and  N_13 
REMARK    6  A    between atoms: N_13  and  S_14 
REMARK    7  A    between atoms: S_14  and  C_17 
ROOT
HETATM    1  C   UNK N   1      31.081  16.609   8.135  0.00  0.00     0.157 C 
ENDROOT
BRANCH   1   2
HETATM    2  C   UNK N   1      32.267  17.296   8.822  0.00  0.00     0.097 C 
HETATM    3  N   UNK N   1      33.204  16.317   9.374  0.00  0.00    -0.413 N 
HETATM    4  C   UNK N   1      34.527  16.777   8.985  0.00  0.00     0.146 C 
HETATM    5  H   UNK N   1      32.977  15.485   9.917  0.00  0.00     0.153 HD
HETATM    6  C   UNK N   1      34.367  17.545   7.681  0.00  0.00     0.141 C 
HETATM    7  C   UNK N   1      33.034  18.216   7.883  0.00  0.00     0.060 C 
BRANCH   6   8
HETATM    8  O   UNK N   1      34.280  16.701   6.549  0.00  0.00    -0.380 OA
BRANCH   8   9
HETATM    9  C   UNK N   1      33.754  17.445   5.478  0.00  0.00     0.206 C 
BRANCH   9  10
HETATM   10  C   UNK N   1      32.753  16.663   4.692  0.00  0.00    -0.035 A 
HETATM   11  C   UNK N   1      32.609  15.296   4.947  0.00  0.00     0.011 A 
HETATM   12  C   UNK N   1      31.653  14.549   4.254  0.00  0.00     0.024 A 
HETATM   13  C   UNK N   1      30.830  15.172   3.312  0.00  0.00     0.034 A 
HETATM   14 Cl   UNK N   1      29.619  14.235   2.464  0.00  0.00    -0.084 Cl
HETATM   15  C   UNK N   1      30.968  16.540   3.056  0.00  0.00     0.024 A 
HETATM   16  C   UNK N   1      31.932  17.287   3.745  0.00  0.00     0.011 A 
ENDBRANCH   9  10
ENDBRANCH   8   9
ENDBRANCH   6   8
ENDBRANCH   1   2
BRANCH   1  17
HETATM   17  N   UNK N   1      30.511  17.423   7.070  0.00  0.00    -0.313 N 
HETATM   18  H   UNK N   1      30.916  17.573   6.146  0.00  0.00     0.172 HD
BRANCH  17  19
HETATM   19  S   UNK N   1      28.981  18.109   7.666  0.00  0.00     0.259 S 
HETATM   20  O   UNK N   1      28.275  16.950   8.382  0.00  0.00    -0.201 OA
HETATM   21  O   UNK N   1      29.353  18.999   8.864  0.00  0.00    -0.201 OA
BRANCH  19  22
HETATM   22  C   UNK N   1      27.873  18.977   6.544  0.00  0.00     0.090 A 
HETATM   23  C   UNK N   1      27.562  20.314   6.816  0.00  0.00     0.026 A 
HETATM   24  C   UNK N   1      26.686  21.025   5.992  0.00  0.00     0.002 A 
HETATM   25  C   UNK N   1      26.109  20.404   4.884  0.00  0.00     0.014 A 
HETATM   26  C   UNK N   1      26.407  19.072   4.598  0.00  0.00    -0.009 A 
HETATM   27  C   UNK N   1      25.829  18.444   3.493  0.00  0.00     0.100 A 
HETATM   28  C   UNK N   1      27.293  18.344   5.425  0.00  0.00     0.000 A 
HETATM   29  N   UNK N   1      26.119  17.146   3.217  0.00  0.00    -0.374 N 
HETATM   30  C   UNK N   1      26.970  16.423   3.996  0.00  0.00     0.088 A 
ATOM     31  HN  UNK N   1      25.688  16.701   2.405  1.00  0.00     0.164 HD
HETATM   32  C   UNK N   1      27.571  17.009   5.115  0.00  0.00     0.031 A 
ENDBRANCH  19  22
ENDBRANCH  17  19
ENDBRANCH   1  17
TORSDOF 7
ENDMDL
MODEL 9
REMARK VINA RESULT:      -7.6      2.165      2.799
REMARK  7 active torsions:
REMARK  status: ('A' for Active; 'I' for Inactive)
REMARK    1  A    between atoms: C_5  and  C_6 
REMARK    2  A    between atoms: C_6  and  O_7 
REMARK    3  A    between atoms: C_8  and  O_7 
REMARK    4  A    between atoms: C_11  and  C_12 
REMARK    5  A    between atoms: C_12  and  N_13 
REMARK    6  A    between atoms: N_13  and  S_14 
REMARK    7  A    between atoms: S_14  and  C_17 
ROOT
HETATM    1  C   UNK N   1      34.029  15.048   8.431  0.00  0.00     0.157 C 
ENDROOT
BRANCH   1   2
HETATM    2  C   UNK N   1      35.147  15.824   9.137  0.00  0.00     0.097 C 
HETATM    3  N   UNK N   1      34.609  16.733  10.148  0.00  0.00    -0.413 N 
HETATM    4  C   UNK N   1      35.442  16.549  11.326  0.00  0.00     0.146 C 
HETATM    5  H   UNK N   1      33.814  17.365  10.049  0.00  0.00     0.153 HD
HETATM    6  C   UNK N   1      35.961  15.119  11.285  0.00  0.00     0.141 C 
HETATM    7  C   UNK N   1      36.162  14.908   9.808  0.00  0.00     0.060 C 
BRANCH   6   8
HETATM    8  O   UNK N   1      35.016  14.174  11.751  0.00  0.00    -0.380 OA
BRANCH   8   9
HETATM    9  C   UNK N   1      35.711  13.113  12.359  0.00  0.00     0.206 C 
BRANCH   9  10
HETATM   10  C   UNK N   1      35.579  13.139  13.847  0.00  0.00    -0.035 A 
HETATM   11  C   UNK N   1      34.620  12.325  14.458  0.00  0.00     0.011 A 
HETATM   12  C   UNK N   1      34.502  12.301  15.849  0.00  0.00     0.024 A 
HETATM   13  C   UNK N   1      35.352  13.085  16.635  0.00  0.00     0.034 A 
HETATM   14 Cl   UNK N   1      35.214  13.032  18.379  0.00  0.00    -0.084 Cl
HETATM   15  C   UNK N   1      36.315  13.899  16.028  0.00  0.00     0.024 A 
HETATM   16  C   UNK N   1      36.427  13.929  14.633  0.00  0.00     0.011 A 
ENDBRANCH   9  10
ENDBRANCH   8   9
ENDBRANCH   6   8
ENDBRANCH   1   2
BRANCH   1  17
HETATM   17  N   UNK N   1      32.708  15.395   8.939  0.00  0.00    -0.313 N 
HETATM   18  H   UNK N   1      32.403  15.335   9.911  0.00  0.00     0.172 HD
BRANCH  17  19
HETATM   19  S   UNK N   1      31.719  15.940   7.564  0.00  0.00     0.259 S 
HETATM   20  O   UNK N   1      32.725  16.483   6.539  0.00  0.00    -0.201 OA
HETATM   21  O   UNK N   1      31.246  14.663   6.849  0.00  0.00    -0.201 OA
BRANCH  19  22
HETATM   22  C   UNK N   1      30.348  17.076   7.821  0.00  0.00     0.090 A 
HETATM   23  C   UNK N   1      30.074  17.506   9.125  0.00  0.00     0.026 A 
HETATM   24  C   UNK N   1      29.004  18.367   9.383  0.00  0.00     0.002 A 
HETATM   25  C   UNK N   1      28.193  18.808   8.336  0.00  0.00     0.014 A 
HETATM   26  C   UNK N   1      28.452  18.389   7.031  0.00  0.00    -0.009 A 
HETATM   27  C   UNK N   1      27.641  18.824   5.980  0.00  0.00     0.100 A 
HETATM   28  C   UNK N   1      29.533  17.519   6.759  0.00  0.00     0.000 A 
HETATM   29  N   UNK N   1      27.893  18.414   4.709  0.00  0.00    -0.374 N 
HETATM   30  C   UNK N   1      28.928  17.578   4.421  0.00  0.00     0.088 A 
ATOM     31  HN  UNK N   1      27.291  18.741   3.952  1.00  0.00     0.164 HD
HETATM   32  C   UNK N   1      29.765  17.114   5.441  0.00  0.00     0.031 A 
ENDBRANCH  19  22
ENDBRANCH  17  19
ENDBRANCH   1  17
TORSDOF 7
ENDMDL
