REMARK  7 active torsions:
REMARK  status: ('A' for Active; 'I' for Inactive)
REMARK    1  A    between atoms: C_5  and  C_6 
REMARK    2  A    between atoms: C_6  and  O_7 
REMARK    3  A    between atoms: C_8  and  O_7 
REMARK    4  A    between atoms: C_11  and  C_12 
REMARK    5  A    between atoms: C_12  and  N_13 
REMARK    6  A    between atoms: N_13  and  S_14 
REMARK    7  A    between atoms: S_14  and  C_17 
ROOT
HETATM    1  C   UNK N   1      -1.595   1.047   1.309  0.00  0.00     0.157 C 
ENDROOT
BRANCH   1   2
HETATM    2  C   UNK N   1      -2.404  -0.224   1.026  0.00  0.00     0.097 C 
HETATM    3  N   UNK N   1      -2.476  -0.502  -0.408  0.00  0.00    -0.413 N 
HETATM    4  C   UNK N   1      -2.197  -1.922  -0.548  0.00  0.00     0.146 C 
HETATM    5  H   UNK N   1      -2.679   0.162  -1.155  0.00  0.00     0.153 HD
HETATM    6  C   UNK N   1      -1.295  -2.315   0.613  0.00  0.00     0.141 C 
HETATM    7  C   UNK N   1      -1.830  -1.450   1.723  0.00  0.00     0.060 C 
BRANCH   6   8
HETATM    8  O   UNK N   1       0.063  -1.982   0.396  0.00  0.00    -0.380 OA
BRANCH   8   9
HETATM    9  C   UNK N   1       0.525  -2.703  -0.720  0.00  0.00     0.206 C 
BRANCH   9  10
HETATM   10  C   UNK N   1       1.109  -4.021  -0.330  0.00  0.00    -0.035 A 
HETATM   11  C   UNK N   1       0.402  -5.191  -0.623  0.00  0.00     0.011 A 
HETATM   12  C   UNK N   1       0.944  -6.438  -0.304  0.00  0.00     0.024 A 
HETATM   13  C   UNK N   1       2.202  -6.519   0.299  0.00  0.00     0.034 A 
HETATM   14 Cl   UNK N   1       2.885  -8.086   0.674  0.00  0.00    -0.084 Cl
HETATM   15  C   UNK N   1       2.915  -5.351   0.591  0.00  0.00     0.024 A 
HETATM   16  C   UNK N   1       2.368  -4.100   0.279  0.00  0.00     0.011 A 
ENDBRANCH   9  10
ENDBRANCH   8   9
ENDBRANCH   6   8
ENDBRANCH   1   2
BRANCH   1  17
HETATM   17  N   UNK N   1      -0.403   1.142   0.476  0.00  0.00    -0.313 N 
HETATM   18  H   UNK N   1       0.459   0.610   0.598  0.00  0.00     0.172 HD
BRANCH  17  19
HETATM   19  S   UNK N   1      -0.716   2.351  -0.791  0.00  0.00     0.259 S 
HETATM   20  O   UNK N   1      -0.019   1.805  -2.045  0.00  0.00    -0.201 OA
HETATM   21  O   UNK N   1      -2.192   2.178  -1.188  0.00  0.00    -0.201 OA
BRANCH  19  22
HETATM   22  C   UNK N   1      -0.327   4.086  -0.512  0.00  0.00     0.090 A 
HETATM   23  C   UNK N   1      -1.340   5.034  -0.699  0.00  0.00     0.026 A 
HETATM   24  C   UNK N   1      -1.084   6.396  -0.521  0.00  0.00     0.002 A 
HETATM   25  C   UNK N   1       0.192   6.826  -0.155  0.00  0.00     0.014 A 
HETATM   26  C   UNK N   1       1.213   5.895   0.035  0.00  0.00    -0.009 A 
HETATM   27  C   UNK N   1       2.493   6.320   0.398  0.00  0.00     0.100 A 
HETATM   28  C   UNK N   1       0.964   4.514  -0.141  0.00  0.00     0.000 A 
HETATM   29  N   UNK N   1       3.487   5.412   0.581  0.00  0.00    -0.374 N 
HETATM   30  C   UNK N   1       3.273   4.077   0.419  0.00  0.00     0.088 A 
ATOM     31  HN  UNK N   1       4.417   5.738   0.846  1.00  0.00     0.164 HD
HETATM   32  C   UNK N   1       2.008   3.605   0.054  0.00  0.00     0.031 A 
ENDBRANCH  19  22
ENDBRANCH  17  19
ENDBRANCH   1  17
TORSDOF 7
