MODEL 1
REMARK VINA RESULT:      -6.9      0.000      0.000
REMARK  3 active torsions:
REMARK  status: ('A' for Active; 'I' for Inactive)
REMARK    1  A    between atoms: N_1  and  C_2 
REMARK    2  A    between atoms: N_1  and  C_18 
REMARK    3  A    between atoms: C_15  and  C_16 
ROOT
HETATM    1  C   UNK N   1      28.434  17.207   3.625  0.00  0.00     0.047 A 
HETATM    2  C   UNK N   1      27.111  16.861   3.316  0.00  0.00     0.030 A 
HETATM    3  C   UNK N   1      26.829  15.638   2.700  0.00  0.00     0.002 A 
HETATM    4  C   UNK N   1      27.866  14.755   2.389  0.00  0.00     0.001 A 
HETATM    5  C   UNK N   1      29.486  16.315   3.311  0.00  0.00     0.036 A 
HETATM    6  C   UNK N   1      29.188  15.091   2.693  0.00  0.00     0.017 A 
ENDROOT
BRANCH   1   7
HETATM    7  N   UNK N   1      28.756  18.440   4.249  0.00  0.00    -0.341 N 
HETATM    8  H   UNK N   1      29.580  18.870   3.922  0.00  0.00     0.167 HD
BRANCH   7   9
HETATM    9  C   UNK N   1      28.078  19.147   5.267  0.00  0.00     0.120 A 
HETATM   10  C   UNK N   1      28.188  18.707   6.574  0.00  0.00     0.053 A 
HETATM   11  C   UNK N   1      28.872  17.652   7.132  0.00  0.00     0.036 A 
HETATM   12  C   UNK N   1      27.549  19.358   7.565  0.00  0.00     0.120 A 
HETATM   13  C   UNK N   1      28.592  17.728   8.499  0.00  0.00     0.091 A 
HETATM   14  N   UNK N   1      27.776  18.784   8.755  0.00  0.00    -0.351 N 
HETATM   15  H   UNK N   1      27.425  19.066   9.630  0.00  0.00     0.166 HD
HETATM   16  N   UNK N   1      26.784  20.451   7.333  0.00  0.00    -0.338 N 
HETATM   17  C   UNK N   1      26.665  20.898   6.044  0.00  0.00     0.183 A 
ATOM     18  HN  UNK N   1      26.307  20.929   8.098  1.00  0.00     0.168 HD
HETATM   19  N   UNK N   1      27.309  20.249   5.017  0.00  0.00    -0.338 N 
ATOM     20  HN  UNK N   1      27.212  20.591   4.061  1.00  0.00     0.168 HD
ENDBRANCH   7   9
ENDBRANCH   1   7
BRANCH   5  21
HETATM   21  C   UNK N   1      30.900  16.649   3.627  0.00  0.00     0.134 A 
HETATM   22  N   UNK N   1      31.462  16.510   4.846  0.00  0.00    -0.330 N 
HETATM   23  C   UNK N   1      32.722  16.923   4.653  0.00  0.00     0.093 A 
HETATM   24  H   UNK N   1      31.046  16.184   5.676  0.00  0.00     0.168 HD
HETATM   25  C   UNK N   1      33.756  16.956   5.724  0.00  0.00     0.090 C 
HETATM   26  N   UNK N   1      32.933  17.297   3.380  0.00  0.00    -0.288 N 
HETATM   27  N   UNK N   1      31.788  17.126   2.734  0.00  0.00    -0.283 N 
ATOM     28  HN  UNK N   1      33.807  17.647   2.987  1.00  0.00     0.188 HD
ATOM     29  HN  UNK N   1      31.613  17.319   1.748  1.00  0.00     0.188 HD
ENDBRANCH   5  21
TORSDOF 3
ENDMDL
MODEL 2
REMARK VINA RESULT:      -6.8      2.208      5.633
REMARK  3 active torsions:
REMARK  status: ('A' for Active; 'I' for Inactive)
REMARK    1  A    between atoms: N_1  and  C_2 
REMARK    2  A    between atoms: N_1  and  C_18 
REMARK    3  A    between atoms: C_15  and  C_16 
ROOT
HETATM    1  C   UNK N   1      28.524  18.560   5.657  0.00  0.00     0.047 A 
HETATM    2  C   UNK N   1      27.982  19.106   4.485  0.00  0.00     0.030 A 
HETATM    3  C   UNK N   1      27.123  20.208   4.554  0.00  0.00     0.002 A 
HETATM    4  C   UNK N   1      26.802  20.769   5.792  0.00  0.00     0.001 A 
HETATM    5  C   UNK N   1      28.201  19.127   6.911  0.00  0.00     0.036 A 
HETATM    6  C   UNK N   1      27.339  20.232   6.965  0.00  0.00     0.017 A 
ENDROOT
BRANCH   1   7
HETATM    7  N   UNK N   1      29.397  17.442   5.623  0.00  0.00    -0.341 N 
HETATM    8  H   UNK N   1      29.114  16.676   6.176  0.00  0.00     0.167 HD
BRANCH   7   9
HETATM    9  C   UNK N   1      30.609  17.256   4.921  0.00  0.00     0.120 A 
HETATM   10  C   UNK N   1      31.795  17.220   5.633  0.00  0.00     0.053 A 
HETATM   11  C   UNK N   1      32.062  17.330   6.977  0.00  0.00     0.036 A 
HETATM   12  C   UNK N   1      32.967  17.049   4.990  0.00  0.00     0.120 A 
HETATM   13  C   UNK N   1      33.451  17.215   7.076  0.00  0.00     0.091 A 
HETATM   14  N   UNK N   1      33.999  17.042   5.845  0.00  0.00    -0.351 N 
HETATM   15  H   UNK N   1      34.953  16.934   5.628  0.00  0.00     0.166 HD
HETATM   16  N   UNK N   1      33.036  16.909   3.645  0.00  0.00    -0.338 N 
HETATM   17  C   UNK N   1      31.870  16.943   2.927  0.00  0.00     0.183 A 
ATOM     18  HN  UNK N   1      33.934  16.781   3.177  1.00  0.00     0.168 HD
HETATM   19  N   UNK N   1      30.663  17.116   3.563  0.00  0.00    -0.338 N 
ATOM     20  HN  UNK N   1      29.802  17.141   3.017  1.00  0.00     0.168 HD
ENDBRANCH   7   9
ENDBRANCH   1   7
BRANCH   5  21
HETATM   21  C   UNK N   1      28.760  18.574   8.174  0.00  0.00     0.134 A 
HETATM   22  N   UNK N   1      28.331  17.439   8.765  0.00  0.00    -0.330 N 
HETATM   23  C   UNK N   1      29.112  17.341   9.848  0.00  0.00     0.093 A 
HETATM   24  H   UNK N   1      27.615  16.830   8.469  0.00  0.00     0.168 HD
HETATM   25  C   UNK N   1      29.021  16.233  10.838  0.00  0.00     0.090 C 
HETATM   26  N   UNK N   1      29.983  18.361   9.927  0.00  0.00    -0.288 N 
HETATM   27  N   UNK N   1      29.762  19.137   8.875  0.00  0.00    -0.283 N 
ATOM     28  HN  UNK N   1      30.680  18.511  10.657  1.00  0.00     0.188 HD
ATOM     29  HN  UNK N   1      30.258  19.998   8.640  1.00  0.00     0.188 HD
ENDBRANCH   5  21
TORSDOF 3
ENDMDL
MODEL 3
REMARK VINA RESULT:      -6.8      2.421      4.157
REMARK  3 active torsions:
REMARK  status: ('A' for Active; 'I' for Inactive)
REMARK    1  A    between atoms: N_1  and  C_2 
REMARK    2  A    between atoms: N_1  and  C_18 
REMARK    3  A    between atoms: C_15  and  C_16 
ROOT
HETATM    1  C   UNK N   1      31.183  16.567   5.534  0.00  0.00     0.047 A 
HETATM    2  C   UNK N   1      30.748  16.590   4.201  0.00  0.00     0.030 A 
HETATM    3  C   UNK N   1      31.643  16.900   3.173  0.00  0.00     0.002 A 
HETATM    4  C   UNK N   1      32.977  17.189   3.470  0.00  0.00     0.001 A 
HETATM    5  C   UNK N   1      32.534  16.859   5.836  0.00  0.00     0.036 A 
HETATM    6  C   UNK N   1      33.421  17.168   4.795  0.00  0.00     0.017 A 
ENDROOT
BRANCH   1   7
HETATM    7  N   UNK N   1      30.302  16.257   6.601  0.00  0.00    -0.341 N 
HETATM    8  H   UNK N   1      30.087  15.301   6.699  0.00  0.00     0.167 HD
BRANCH   7   9
HETATM    9  C   UNK N   1      29.683  17.109   7.544  0.00  0.00     0.120 A 
HETATM   10  C   UNK N   1      28.761  18.040   7.101  0.00  0.00     0.053 A 
HETATM   11  C   UNK N   1      28.281  18.331   5.845  0.00  0.00     0.036 A 
HETATM   12  C   UNK N   1      28.158  18.868   7.977  0.00  0.00     0.120 A 
HETATM   13  C   UNK N   1      27.371  19.371   6.042  0.00  0.00     0.091 A 
HETATM   14  N   UNK N   1      27.302  19.695   7.360  0.00  0.00    -0.351 N 
HETATM   15  H   UNK N   1      26.742  20.390   7.774  0.00  0.00     0.166 HD
HETATM   16  N   UNK N   1      28.423  18.828   9.304  0.00  0.00    -0.338 N 
HETATM   17  C   UNK N   1      29.334  17.911   9.758  0.00  0.00     0.183 A 
ATOM     18  HN  UNK N   1      27.955  19.465   9.951  1.00  0.00     0.168 HD
HETATM   19  N   UNK N   1      29.960  17.057   8.881  0.00  0.00    -0.338 N 
ATOM     20  HN  UNK N   1      30.637  16.379   9.232  1.00  0.00     0.168 HD
ENDBRANCH   7   9
ENDBRANCH   1   7
BRANCH   5  21
HETATM   21  C   UNK N   1      33.030  16.841   7.239  0.00  0.00     0.134 A 
HETATM   22  N   UNK N   1      33.383  15.723   7.908  0.00  0.00    -0.330 N 
HETATM   23  C   UNK N   1      33.761  16.187   9.106  0.00  0.00     0.093 A 
HETATM   24  H   UNK N   1      33.366  14.791   7.590  0.00  0.00     0.168 HD
HETATM   25  C   UNK N   1      34.244  15.321  10.216  0.00  0.00     0.090 C 
HETATM   26  N   UNK N   1      33.650  17.525   9.178  0.00  0.00    -0.288 N 
HETATM   27  N   UNK N   1      33.190  17.936   8.005  0.00  0.00    -0.283 N 
ATOM     28  HN  UNK N   1      33.875  18.111   9.982  1.00  0.00     0.188 HD
ATOM     29  HN  UNK N   1      32.995  18.900   7.733  1.00  0.00     0.188 HD
ENDBRANCH   5  21
TORSDOF 3
ENDMDL
MODEL 4
REMARK VINA RESULT:      -6.7      2.020      4.551
REMARK  3 active torsions:
REMARK  status: ('A' for Active; 'I' for Inactive)
REMARK    1  A    between atoms: N_1  and  C_2 
REMARK    2  A    between atoms: N_1  and  C_18 
REMARK    3  A    between atoms: C_15  and  C_16 
ROOT
HETATM    1  C   UNK N   1      27.553  18.680   5.828  0.00  0.00     0.047 A 
HETATM    2  C   UNK N   1      27.163  19.849   6.497  0.00  0.00     0.030 A 
HETATM    3  C   UNK N   1      26.791  20.984   5.770  0.00  0.00     0.002 A 
HETATM    4  C   UNK N   1      26.805  20.958   4.374  0.00  0.00     0.001 A 
HETATM    5  C   UNK N   1      27.567  18.651   4.414  0.00  0.00     0.036 A 
HETATM    6  C   UNK N   1      27.191  19.797   3.699  0.00  0.00     0.017 A 
ENDROOT
BRANCH   1   7
HETATM    7  N   UNK N   1      27.937  17.510   6.533  0.00  0.00    -0.341 N 
HETATM    8  H   UNK N   1      27.704  16.662   6.091  0.00  0.00     0.167 HD
BRANCH   7   9
HETATM    9  C   UNK N   1      28.603  17.375   7.773  0.00  0.00     0.120 A 
HETATM   10  C   UNK N   1      29.981  17.261   7.783  0.00  0.00     0.053 A 
HETATM   11  C   UNK N   1      30.909  17.255   6.768  0.00  0.00     0.036 A 
HETATM   12  C   UNK N   1      30.642  17.126   8.950  0.00  0.00     0.120 A 
HETATM   13  C   UNK N   1      32.141  17.108   7.411  0.00  0.00     0.091 A 
HETATM   14  N   UNK N   1      31.965  17.031   8.756  0.00  0.00    -0.351 N 
HETATM   15  H   UNK N   1      32.662  16.925   9.442  0.00  0.00     0.166 HD
HETATM   16  N   UNK N   1      30.000  17.096  10.142  0.00  0.00    -0.338 N 
HETATM   17  C   UNK N   1      28.634  17.208  10.147  0.00  0.00     0.183 A 
ATOM     18  HN  UNK N   1      30.519  16.993  11.014  1.00  0.00     0.168 HD
HETATM   19  N   UNK N   1      27.940  17.346   8.968  0.00  0.00    -0.338 N 
ATOM     20  HN  UNK N   1      26.924  17.428   8.986  1.00  0.00     0.168 HD
ENDBRANCH   7   9
ENDBRANCH   1   7
BRANCH   5  21
HETATM   21  C   UNK N   1      27.972  17.426   3.672  0.00  0.00     0.134 A 
HETATM   22  N   UNK N   1      27.124  16.443   3.305  0.00  0.00    -0.330 N 
HETATM   23  C   UNK N   1      27.919  15.569   2.674  0.00  0.00     0.093 A 
HETATM   24  H   UNK N   1      26.153  16.383   3.464  0.00  0.00     0.168 HD
HETATM   25  C   UNK N   1      27.439  14.294   2.076  0.00  0.00     0.090 C 
HETATM   26  N   UNK N   1      29.196  15.989   2.649  0.00  0.00    -0.288 N 
HETATM   27  N   UNK N   1      29.230  17.156   3.277  0.00  0.00    -0.283 N 
ATOM     28  HN  UNK N   1      29.987  15.501   2.228  1.00  0.00     0.188 HD
ATOM     29  HN  UNK N   1      30.053  17.739   3.431  1.00  0.00     0.188 HD
ENDBRANCH   5  21
TORSDOF 3
ENDMDL
MODEL 5
REMARK VINA RESULT:      -6.7      2.923      5.682
REMARK  3 active torsions:
REMARK  status: ('A' for Active; 'I' for Inactive)
REMARK    1  A    between atoms: N_1  and  C_2 
REMARK    2  A    between atoms: N_1  and  C_18 
REMARK    3  A    between atoms: C_15  and  C_16 
ROOT
HETATM    1  C   UNK N   1      29.984  17.174   7.514  0.00  0.00     0.047 A 
HETATM    2  C   UNK N   1      29.350  17.537   8.711  0.00  0.00     0.030 A 
HETATM    3  C   UNK N   1      28.297  18.457   8.698  0.00  0.00     0.002 A 
HETATM    4  C   UNK N   1      27.872  19.018   7.491  0.00  0.00     0.001 A 
HETATM    5  C   UNK N   1      29.555  17.740   6.291  0.00  0.00     0.036 A 
HETATM    6  C   UNK N   1      28.497  18.661   6.293  0.00  0.00     0.017 A 
ENDROOT
BRANCH   1   7
HETATM    7  N   UNK N   1      31.057  16.245   7.490  0.00  0.00    -0.341 N 
HETATM    8  H   UNK N   1      31.071  15.646   6.708  0.00  0.00     0.167 HD
BRANCH   7   9
HETATM    9  C   UNK N   1      32.106  16.046   8.416  0.00  0.00     0.120 A 
HETATM   10  C   UNK N   1      33.134  16.970   8.470  0.00  0.00     0.053 A 
HETATM   11  C   UNK N   1      33.366  18.128   7.765  0.00  0.00     0.036 A 
HETATM   12  C   UNK N   1      34.150  16.804   9.339  0.00  0.00     0.120 A 
HETATM   13  C   UNK N   1      34.570  18.621   8.273  0.00  0.00     0.091 A 
HETATM   14  N   UNK N   1      35.045  17.797   9.243  0.00  0.00    -0.351 N 
HETATM   15  H   UNK N   1      35.873  17.907   9.765  0.00  0.00     0.166 HD
HETATM   16  N   UNK N   1      34.211  15.745  10.182  0.00  0.00    -0.338 N 
HETATM   17  C   UNK N   1      33.200  14.822  10.139  0.00  0.00     0.183 A 
ATOM     18  HN  UNK N   1      34.990  15.638  10.833  1.00  0.00     0.168 HD
HETATM   19  N   UNK N   1      32.154  14.973   9.260  0.00  0.00    -0.338 N 
ATOM     20  HN  UNK N   1      31.407  14.278   9.238  1.00  0.00     0.168 HD
ENDBRANCH   7   9
ENDBRANCH   1   7
BRANCH   5  21
HETATM   21  C   UNK N   1      30.203  17.375   5.003  0.00  0.00     0.134 A 
HETATM   22  N   UNK N   1      31.529  17.174   4.848  0.00  0.00    -0.330 N 
HETATM   23  C   UNK N   1      31.644  16.871   3.548  0.00  0.00     0.093 A 
HETATM   24  H   UNK N   1      32.239  17.235   5.527  0.00  0.00     0.168 HD
HETATM   25  C   UNK N   1      32.938  16.559   2.882  0.00  0.00     0.090 C 
HETATM   26  N   UNK N   1      30.452  16.882   2.928  0.00  0.00    -0.288 N 
HETATM   27  N   UNK N   1      29.546  17.200   3.841  0.00  0.00    -0.283 N 
ATOM     28  HN  UNK N   1      30.279  16.684   1.942  1.00  0.00     0.188 HD
ATOM     29  HN  UNK N   1      28.541  17.293   3.693  1.00  0.00     0.188 HD
ENDBRANCH   5  21
TORSDOF 3
ENDMDL
MODEL 6
REMARK VINA RESULT:      -6.7     10.302     13.404
REMARK  3 active torsions:
REMARK  status: ('A' for Active; 'I' for Inactive)
REMARK    1  A    between atoms: N_1  and  C_2 
REMARK    2  A    between atoms: N_1  and  C_18 
REMARK    3  A    between atoms: C_15  and  C_16 
ROOT
HETATM    1  C   UNK N   1      36.588  13.937  15.552  0.00  0.00     0.047 A 
HETATM    2  C   UNK N   1      37.010  15.102  16.206  0.00  0.00     0.030 A 
HETATM    3  C   UNK N   1      36.525  15.409  17.481  0.00  0.00     0.002 A 
HETATM    4  C   UNK N   1      35.617  14.553  18.109  0.00  0.00     0.001 A 
HETATM    5  C   UNK N   1      35.668  13.069  16.186  0.00  0.00     0.036 A 
HETATM    6  C   UNK N   1      35.191  13.388  17.465  0.00  0.00     0.017 A 
ENDROOT
BRANCH   1   7
HETATM    7  N   UNK N   1      37.058  13.596  14.257  0.00  0.00    -0.341 N 
HETATM    8  H   UNK N   1      37.847  13.006  14.244  0.00  0.00     0.167 HD
BRANCH   7   9
HETATM    9  C   UNK N   1      36.572  13.973  12.985  0.00  0.00     0.120 A 
HETATM   10  C   UNK N   1      36.407  13.000  12.016  0.00  0.00     0.053 A 
HETATM   11  C   UNK N   1      36.630  11.643  12.032  0.00  0.00     0.036 A 
HETATM   12  C   UNK N   1      35.950  13.332  10.793  0.00  0.00     0.120 A 
HETATM   13  C   UNK N   1      36.277  11.209  10.752  0.00  0.00     0.091 A 
HETATM   14  N   UNK N   1      35.859  12.257   9.996  0.00  0.00    -0.351 N 
HETATM   15  H   UNK N   1      35.554  12.233   9.061  0.00  0.00     0.166 HD
HETATM   16  N   UNK N   1      35.637  14.607  10.462  0.00  0.00    -0.338 N 
HETATM   17  C   UNK N   1      35.794  15.582  11.412  0.00  0.00     0.183 A 
ATOM     18  HN  UNK N   1      35.292  14.837   9.530  1.00  0.00     0.168 HD
HETATM   19  N   UNK N   1      36.260  15.265  12.667  0.00  0.00    -0.338 N 
ATOM     20  HN  UNK N   1      36.374  16.000  13.364  1.00  0.00     0.168 HD
ENDBRANCH   7   9
ENDBRANCH   1   7
BRANCH   5  21
HETATM   21  C   UNK N   1      35.201  11.822  15.522  0.00  0.00     0.134 A 
HETATM   22  N   UNK N   1      35.897  10.666  15.496  0.00  0.00    -0.330 N 
HETATM   23  C   UNK N   1      35.099   9.842  14.804  0.00  0.00     0.093 A 
HETATM   24  H   UNK N   1      36.779  10.475  15.890  0.00  0.00     0.168 HD
HETATM   25  C   UNK N   1      35.435   8.423  14.503  0.00  0.00     0.090 C 
HETATM   26  N   UNK N   1      33.965  10.453  14.422  0.00  0.00    -0.288 N 
HETATM   27  N   UNK N   1      34.029  11.698  14.872  0.00  0.00    -0.283 N 
ATOM     28  HN  UNK N   1      33.202  10.038  13.886  1.00  0.00     0.188 HD
ATOM     29  HN  UNK N   1      33.323  12.425  14.749  1.00  0.00     0.188 HD
ENDBRANCH   5  21
TORSDOF 3
ENDMDL
MODEL 7
REMARK VINA RESULT:      -6.7      8.373     11.266
REMARK  3 active torsions:
REMARK  status: ('A' for Active; 'I' for Inactive)
REMARK    1  A    between atoms: N_1  and  C_2 
REMARK    2  A    between atoms: N_1  and  C_18 
REMARK    3  A    between atoms: C_15  and  C_16 
ROOT
HETATM    1  C   UNK N   1      36.447  12.959  10.850  0.00  0.00     0.047 A 
HETATM    2  C   UNK N   1      37.266  11.821  10.858  0.00  0.00     0.030 A 
HETATM    3  C   UNK N   1      38.434  11.789  10.089  0.00  0.00     0.002 A 
HETATM    4  C   UNK N   1      38.789  12.892   9.309  0.00  0.00     0.001 A 
HETATM    5  C   UNK N   1      36.805  14.077  10.062  0.00  0.00     0.036 A 
HETATM    6  C   UNK N   1      37.979  14.031   9.295  0.00  0.00     0.017 A 
ENDROOT
BRANCH   1   7
HETATM    7  N   UNK N   1      35.255  13.025  11.618  0.00  0.00    -0.341 N 
HETATM    8  H   UNK N   1      34.507  13.497  11.184  0.00  0.00     0.167 HD
BRANCH   7   9
HETATM    9  C   UNK N   1      34.977  12.521  12.908  0.00  0.00     0.120 A 
HETATM   10  C   UNK N   1      35.587  13.109  14.002  0.00  0.00     0.053 A 
HETATM   11  C   UNK N   1      36.468  14.159  14.106  0.00  0.00     0.036 A 
HETATM   12  C   UNK N   1      35.343  12.646  15.243  0.00  0.00     0.120 A 
HETATM   13  C   UNK N   1      36.722  14.278  15.475  0.00  0.00     0.091 A 
HETATM   14  N   UNK N   1      36.023  13.340  16.167  0.00  0.00    -0.351 N 
HETATM   15  H   UNK N   1      36.018  13.201  17.141  0.00  0.00     0.166 HD
HETATM   16  N   UNK N   1      34.509  11.605  15.474  0.00  0.00    -0.338 N 
HETATM   17  C   UNK N   1      33.897  11.013  14.400  0.00  0.00     0.183 A 
ATOM     18  HN  UNK N   1      34.338  11.270  16.422  1.00  0.00     0.168 HD
HETATM   19  N   UNK N   1      34.132  11.470  13.124  0.00  0.00    -0.338 N 
ATOM     20  HN  UNK N   1      33.671  11.019  12.333  1.00  0.00     0.168 HD
ENDBRANCH   7   9
ENDBRANCH   1   7
BRANCH   5  21
HETATM   21  C   UNK N   1      35.961  15.302  10.032  0.00  0.00     0.134 A 
HETATM   22  N   UNK N   1      35.094  15.606   9.042  0.00  0.00    -0.330 N 
HETATM   23  C   UNK N   1      34.570  16.773   9.439  0.00  0.00     0.093 A 
HETATM   24  H   UNK N   1      34.897  15.093   8.225  0.00  0.00     0.168 HD
HETATM   25  C   UNK N   1      33.544  17.525   8.667  0.00  0.00     0.090 C 
HETATM   26  N   UNK N   1      35.082  17.172  10.615  0.00  0.00    -0.288 N 
HETATM   27  N   UNK N   1      35.957  16.249  10.988  0.00  0.00    -0.283 N 
ATOM     28  HN  UNK N   1      34.844  18.025  11.123  1.00  0.00     0.188 HD
ATOM     29  HN  UNK N   1      36.520  16.254  11.839  1.00  0.00     0.188 HD
ENDBRANCH   5  21
TORSDOF 3
ENDMDL
MODEL 8
REMARK VINA RESULT:      -6.7      3.416      5.038
REMARK  3 active torsions:
REMARK  status: ('A' for Active; 'I' for Inactive)
REMARK    1  A    between atoms: N_1  and  C_2 
REMARK    2  A    between atoms: N_1  and  C_18 
REMARK    3  A    between atoms: C_15  and  C_16 
ROOT
HETATM    1  C   UNK N   1      31.813  15.583   6.748  0.00  0.00     0.047 A 
HETATM    2  C   UNK N   1      31.282  15.207   5.506  0.00  0.00     0.030 A 
HETATM    3  C   UNK N   1      31.563  13.945   4.975  0.00  0.00     0.002 A 
HETATM    4  C   UNK N   1      32.375  13.052   5.679  0.00  0.00     0.001 A 
HETATM    5  C   UNK N   1      32.635  14.681   7.464  0.00  0.00     0.036 A 
HETATM    6  C   UNK N   1      32.908  13.419   6.918  0.00  0.00     0.017 A 
ENDROOT
BRANCH   1   7
HETATM    7  N   UNK N   1      31.550  16.857   7.317  0.00  0.00    -0.341 N 
HETATM    8  H   UNK N   1      32.268  17.521   7.200  0.00  0.00     0.167 HD
BRANCH   7   9
HETATM    9  C   UNK N   1      30.418  17.318   8.026  0.00  0.00     0.120 A 
HETATM   10  C   UNK N   1      29.350  17.837   7.317  0.00  0.00     0.053 A 
HETATM   11  C   UNK N   1      29.140  18.008   5.968  0.00  0.00     0.036 A 
HETATM   12  C   UNK N   1      28.259  18.288   7.967  0.00  0.00     0.120 A 
HETATM   13  C   UNK N   1      27.871  18.584   5.874  0.00  0.00     0.091 A 
HETATM   14  N   UNK N   1      27.336  18.752   7.112  0.00  0.00    -0.351 N 
HETATM   15  H   UNK N   1      26.457  19.134   7.334  0.00  0.00     0.166 HD
HETATM   16  N   UNK N   1      28.161  18.256   9.317  0.00  0.00    -0.338 N 
HETATM   17  C   UNK N   1      29.211  17.745  10.033  0.00  0.00     0.183 A 
ATOM     18  HN  UNK N   1      27.326  18.604   9.790  1.00  0.00     0.168 HD
HETATM   19  N   UNK N   1      30.333  17.279   9.389  0.00  0.00    -0.338 N 
ATOM     20  HN  UNK N   1      31.109  16.901   9.934  1.00  0.00     0.168 HD
ENDBRANCH   7   9
ENDBRANCH   1   7
BRANCH   5  21
HETATM   21  C   UNK N   1      33.212  15.047   8.785  0.00  0.00     0.134 A 
HETATM   22  N   UNK N   1      34.380  15.703   8.950  0.00  0.00    -0.330 N 
HETATM   23  C   UNK N   1      34.488  15.810  10.281  0.00  0.00     0.093 A 
HETATM   24  H   UNK N   1      35.003  16.024   8.259  0.00  0.00     0.168 HD
HETATM   25  C   UNK N   1      35.630  16.471  10.969  0.00  0.00     0.090 C 
HETATM   26  N   UNK N   1      33.440  15.252  10.911  0.00  0.00    -0.288 N 
HETATM   27  N   UNK N   1      32.638  14.772   9.971  0.00  0.00    -0.283 N 
ATOM     28  HN  UNK N   1      33.291  15.206  11.919  1.00  0.00     0.188 HD
ATOM     29  HN  UNK N   1      31.753  14.285  10.118  1.00  0.00     0.188 HD
ENDBRANCH   5  21
TORSDOF 3
ENDMDL
MODEL 9
REMARK VINA RESULT:      -6.6      2.857      4.923
REMARK  3 active torsions:
REMARK  status: ('A' for Active; 'I' for Inactive)
REMARK    1  A    between atoms: N_1  and  C_2 
REMARK    2  A    between atoms: N_1  and  C_18 
REMARK    3  A    between atoms: C_15  and  C_16 
ROOT
HETATM    1  C   UNK N   1      27.645  18.387   4.996  0.00  0.00     0.047 A 
HETATM    2  C   UNK N   1      27.797  19.681   4.479  0.00  0.00     0.030 A 
HETATM    3  C   UNK N   1      26.754  20.280   3.764  0.00  0.00     0.002 A 
HETATM    4  C   UNK N   1      25.556  19.590   3.563  0.00  0.00     0.001 A 
HETATM    5  C   UNK N   1      26.432  17.687   4.795  0.00  0.00     0.036 A 
HETATM    6  C   UNK N   1      25.396  18.300   4.076  0.00  0.00     0.017 A 
ENDROOT
BRANCH   1   7
HETATM    7  N   UNK N   1      28.682  17.749   5.725  0.00  0.00    -0.341 N 
HETATM    8  H   UNK N   1      29.277  17.178   5.188  0.00  0.00     0.167 HD
BRANCH   7   9
HETATM    9  C   UNK N   1      28.991  17.806   7.103  0.00  0.00     0.120 A 
HETATM   10  C   UNK N   1      30.276  17.500   7.513  0.00  0.00     0.053 A 
HETATM   11  C   UNK N   1      31.399  17.128   6.812  0.00  0.00     0.036 A 
HETATM   12  C   UNK N   1      30.598  17.541   8.821  0.00  0.00     0.120 A 
HETATM   13  C   UNK N   1      32.387  16.955   7.784  0.00  0.00     0.091 A 
HETATM   14  N   UNK N   1      31.883  17.213   9.020  0.00  0.00    -0.351 N 
HETATM   15  H   UNK N   1      32.361  17.168   9.879  0.00  0.00     0.166 HD
HETATM   16  N   UNK N   1      29.698  17.877   9.775  0.00  0.00    -0.338 N 
HETATM   17  C   UNK N   1      28.421  18.183   9.383  0.00  0.00     0.183 A 
ATOM     18  HN  UNK N   1      29.962  17.902  10.760  1.00  0.00     0.168 HD
HETATM   19  N   UNK N   1      28.071  18.147   8.054  0.00  0.00    -0.338 N 
ATOM     20  HN  UNK N   1      27.116  18.376   7.776  1.00  0.00     0.168 HD
ENDBRANCH   7   9
ENDBRANCH   1   7
BRANCH   5  21
HETATM   21  C   UNK N   1      26.236  16.314   5.333  0.00  0.00     0.134 A 
HETATM   22  N   UNK N   1      25.707  16.039   6.544  0.00  0.00    -0.330 N 
HETATM   23  C   UNK N   1      25.725  14.700   6.590  0.00  0.00     0.093 A 
HETATM   24  H   UNK N   1      25.386  16.670   7.227  0.00  0.00     0.168 HD
HETATM   25  C   UNK N   1      25.234  13.905   7.749  0.00  0.00     0.090 C 
HETATM   26  N   UNK N   1      26.237  14.171   5.466  0.00  0.00    -0.288 N 
HETATM   27  N   UNK N   1      26.559  15.185   4.675  0.00  0.00    -0.283 N 
ATOM     28  HN  UNK N   1      26.356  13.178   5.262  1.00  0.00     0.188 HD
ATOM     29  HN  UNK N   1      26.973  15.121   3.745  1.00  0.00     0.188 HD
ENDBRANCH   5  21
TORSDOF 3
ENDMDL
