MODEL 1
REMARK VINA RESULT:      -6.5      0.000      0.000
REMARK  1 active torsions:
REMARK  status: ('A' for Active; 'I' for Inactive)
REMARK    1  A    between atoms: C_12  and  N_15 
ROOT
HETATM    1  C   UNK N   1      28.706  17.928   6.314  0.00  0.00     0.121 A 
HETATM    2  C   UNK N   1      29.990  16.846   4.697  0.00  0.00     0.183 A 
HETATM    3  C   UNK N   1      29.701  17.832   7.265  0.00  0.00     0.075 A 
HETATM    4  N   UNK N   1      27.611  18.542   6.779  0.00  0.00    -0.350 N 
HETATM    5 Cl   UNK N   1      29.727  18.756  10.038  0.00  0.00    -0.082 Cl
HETATM    6  C   UNK N   1      29.148  18.448   8.407  0.00  0.00     0.067 A 
HETATM    7  C   UNK N   1      27.872  18.865   8.058  0.00  0.00     0.114 A 
HETATM    8  N   UNK N   1      28.831  17.452   5.057  0.00  0.00    -0.338 N 
ATOM      9  HN  UNK N   1      28.066  17.546   4.389  1.00  0.00     0.168 HD
HETATM   10  C   UNK N   1      30.928  17.190   6.880  0.00  0.00     0.120 A 
HETATM   11  N   UNK N   1      31.007  16.723   5.594  0.00  0.00    -0.338 N 
ATOM     12  HN  UNK N   1      31.867  16.262   5.294  1.00  0.00     0.168 HD
HETATM   13  H   UNK N   1      26.779  18.723   6.282  0.00  0.00     0.166 HD
ENDROOT
BRANCH  10  14
HETATM   14  N   UNK N   1      32.070  16.999   7.731  0.00  0.00    -0.360 N 
HETATM   15  C   UNK N   1      32.043  15.977   8.756  0.00  0.00     0.183 A 
HETATM   16  C   UNK N   1      33.269  15.873   9.566  0.00  0.00     0.051 A 
HETATM   17  C   UNK N   1      34.359  16.642   9.409  0.00  0.00     0.036 A 
HETATM   18  N   UNK N   1      33.472  15.004  10.567  0.00  0.00    -0.353 N 
HETATM   19  C   UNK N   1      34.484  17.710   8.393  0.00  0.00     0.079 A 
HETATM   20  N   UNK N   1      35.290  16.286  10.306  0.00  0.00    -0.354 N 
HETATM   21  C   UNK N   1      33.232  17.875   7.506  0.00  0.00     0.131 A 
HETATM   22  C   UNK N   1      34.721  15.277  11.007  0.00  0.00     0.181 A 
HETATM   23  H   UNK N   1      36.188  16.673  10.428  0.00  0.00     0.166 HD
ATOM     24  HN  UNK N   1      32.827  14.295  10.918  1.00  0.00     0.166 HD
ENDBRANCH  10  14
TORSDOF 1
ENDMDL
MODEL 2
REMARK VINA RESULT:      -6.4      1.584      2.426
REMARK  1 active torsions:
REMARK  status: ('A' for Active; 'I' for Inactive)
REMARK    1  A    between atoms: C_12  and  N_15 
ROOT
HETATM    1  C   UNK N   1      30.767  17.567   4.551  0.00  0.00     0.121 A 
HETATM    2  C   UNK N   1      32.907  17.064   3.774  0.00  0.00     0.183 A 
HETATM    3  C   UNK N   1      31.076  17.196   5.843  0.00  0.00     0.075 A 
HETATM    4  N   UNK N   1      29.502  17.988   4.427  0.00  0.00    -0.350 N 
HETATM    5 Cl   UNK N   1      29.402  17.210   8.239  0.00  0.00    -0.082 Cl
HETATM    6  C   UNK N   1      29.882  17.416   6.561  0.00  0.00     0.067 A 
HETATM    7  C   UNK N   1      28.952  17.899   5.652  0.00  0.00     0.114 A 
HETATM    8  N   UNK N   1      31.649  17.508   3.530  0.00  0.00    -0.338 N 
ATOM      9  HN  UNK N   1      31.374  17.794   2.591  1.00  0.00     0.168 HD
HETATM   10  C   UNK N   1      32.410  16.726   6.098  0.00  0.00     0.120 A 
HETATM   11  N   UNK N   1      33.269  16.684   5.032  0.00  0.00    -0.338 N 
ATOM     12  HN  UNK N   1      34.222  16.354   5.185  1.00  0.00     0.168 HD
HETATM   13  H   UNK N   1      29.062  18.300   3.603  0.00  0.00     0.166 HD
ENDROOT
BRANCH  10  14
HETATM   14  N   UNK N   1      32.912  16.298   7.376  0.00  0.00    -0.360 N 
HETATM   15  C   UNK N   1      33.821  17.148   8.115  0.00  0.00     0.183 A 
HETATM   16  C   UNK N   1      34.269  16.606   9.410  0.00  0.00     0.051 A 
HETATM   17  C   UNK N   1      33.894  15.419   9.914  0.00  0.00     0.036 A 
HETATM   18  N   UNK N   1      35.107  17.214  10.262  0.00  0.00    -0.353 N 
HETATM   19  C   UNK N   1      32.972  14.482   9.238  0.00  0.00     0.079 A 
HETATM   20  N   UNK N   1      34.482  15.235  11.105  0.00  0.00    -0.354 N 
HETATM   21  C   UNK N   1      32.461  14.986   7.872  0.00  0.00     0.131 A 
HETATM   22  C   UNK N   1      35.224  16.352  11.298  0.00  0.00     0.181 A 
HETATM   23  H   UNK N   1      34.395  14.459  11.707  0.00  0.00     0.166 HD
ATOM     24  HN  UNK N   1      35.556  18.123  10.153  1.00  0.00     0.166 HD
ENDBRANCH  10  14
TORSDOF 1
ENDMDL
MODEL 3
REMARK VINA RESULT:      -6.3      9.300     11.999
REMARK  1 active torsions:
REMARK  status: ('A' for Active; 'I' for Inactive)
REMARK    1  A    between atoms: C_12  and  N_15 
ROOT
HETATM    1  C   UNK N   1      22.757  12.174  11.158  0.00  0.00     0.121 A 
HETATM    2  C   UNK N   1      20.477  12.214  11.639  0.00  0.00     0.183 A 
HETATM    3  C   UNK N   1      22.603  12.961  10.036  0.00  0.00     0.075 A 
HETATM    4  N   UNK N   1      24.033  11.826  11.368  0.00  0.00    -0.350 N 
HETATM    5 Cl   UNK N   1      24.610  13.926   8.143  0.00  0.00    -0.082 Cl
HETATM    6  C   UNK N   1      23.911  13.098   9.526  0.00  0.00     0.067 A 
HETATM    7  C   UNK N   1      24.747  12.386  10.375  0.00  0.00     0.114 A 
HETATM    8  N   UNK N   1      21.730  11.800  11.951  0.00  0.00    -0.338 N 
ATOM      9  HN  UNK N   1      21.895  11.216  12.771  1.00  0.00     0.168 HD
HETATM   10  C   UNK N   1      21.273  13.398   9.709  0.00  0.00     0.120 A 
HETATM   11  N   UNK N   1      20.264  12.993  10.543  0.00  0.00    -0.338 N 
ATOM     12  HN  UNK N   1      19.310  13.289  10.333  1.00  0.00     0.168 HD
HETATM   13  H   UNK N   1      24.380  11.270  12.104  0.00  0.00     0.166 HD
ENDROOT
BRANCH  10  14
HETATM   14  N   UNK N   1      20.919  14.220   8.584  0.00  0.00    -0.360 N 
HETATM   15  C   UNK N   1      20.783  13.625   7.271  0.00  0.00     0.183 A 
HETATM   16  C   UNK N   1      20.418  14.563   6.195  0.00  0.00     0.051 A 
HETATM   17  C   UNK N   1      20.215  15.880   6.364  0.00  0.00     0.036 A 
HETATM   18  N   UNK N   1      20.238  14.241   4.906  0.00  0.00    -0.353 N 
HETATM   19  C   UNK N   1      20.329  16.580   7.662  0.00  0.00     0.079 A 
HETATM   20  N   UNK N   1      19.899  16.438   5.186  0.00  0.00    -0.354 N 
HETATM   21  C   UNK N   1      20.710  15.655   8.837  0.00  0.00     0.131 A 
HETATM   22  C   UNK N   1      19.919  15.410   4.304  0.00  0.00     0.181 A 
HETATM   23  H   UNK N   1      19.696  17.384   5.002  0.00  0.00     0.166 HD
ATOM     24  HN  UNK N   1      20.323  13.320   4.476  1.00  0.00     0.166 HD
ENDBRANCH  10  14
TORSDOF 1
ENDMDL
MODEL 4
REMARK VINA RESULT:      -6.2      2.006      3.001
REMARK  1 active torsions:
REMARK  status: ('A' for Active; 'I' for Inactive)
REMARK    1  A    between atoms: C_12  and  N_15 
ROOT
HETATM    1  C   UNK N   1      29.954  17.125   4.548  0.00  0.00     0.121 A 
HETATM    2  C   UNK N   1      28.741  17.787   6.424  0.00  0.00     0.183 A 
HETATM    3  C   UNK N   1      31.100  16.904   5.282  0.00  0.00     0.075 A 
HETATM    4  N   UNK N   1      30.122  16.864   3.245  0.00  0.00    -0.350 N 
HETATM    5 Cl   UNK N   1      33.732  15.983   4.404  0.00  0.00    -0.082 Cl
HETATM    6  C   UNK N   1      32.044  16.470   4.328  0.00  0.00     0.067 A 
HETATM    7  C   UNK N   1      31.398  16.463   3.101  0.00  0.00     0.114 A 
HETATM    8  N   UNK N   1      28.795  17.555   5.090  0.00  0.00    -0.338 N 
ATOM      9  HN  UNK N   1      27.973  17.704   4.504  1.00  0.00     0.168 HD
HETATM   10  C   UNK N   1      31.040  17.151   6.697  0.00  0.00     0.120 A 
HETATM   11  N   UNK N   1      29.843  17.587   7.201  0.00  0.00    -0.338 N 
ATOM     12  HN  UNK N   1      29.772  17.770   8.202  1.00  0.00     0.168 HD
HETATM   13  H   UNK N   1      29.446  16.949   2.534  0.00  0.00     0.166 HD
ENDROOT
BRANCH  10  14
HETATM   14  N   UNK N   1      32.128  16.979   7.620  0.00  0.00    -0.360 N 
HETATM   15  C   UNK N   1      32.073  15.926   8.612  0.00  0.00     0.183 A 
HETATM   16  C   UNK N   1      33.244  15.844   9.502  0.00  0.00     0.051 A 
HETATM   17  C   UNK N   1      34.310  16.659   9.442  0.00  0.00     0.036 A 
HETATM   18  N   UNK N   1      33.413  14.954  10.491  0.00  0.00    -0.353 N 
HETATM   19  C   UNK N   1      34.461  17.761   8.467  0.00  0.00     0.079 A 
HETATM   20  N   UNK N   1      35.192  16.312  10.391  0.00  0.00    -0.354 N 
HETATM   21  C   UNK N   1      33.267  17.906   7.500  0.00  0.00     0.131 A 
HETATM   22  C   UNK N   1      34.617  15.261  11.023  0.00  0.00     0.181 A 
HETATM   23  H   UNK N   1      36.062  16.729  10.586  0.00  0.00     0.166 HD
ATOM     24  HN  UNK N   1      32.775  14.211  10.776  1.00  0.00     0.166 HD
ENDBRANCH  10  14
TORSDOF 1
ENDMDL
MODEL 5
REMARK VINA RESULT:      -6.2      2.599      4.017
REMARK  1 active torsions:
REMARK  status: ('A' for Active; 'I' for Inactive)
REMARK    1  A    between atoms: C_12  and  N_15 
ROOT
HETATM    1  C   UNK N   1      31.991  16.751   6.283  0.00  0.00     0.121 A 
HETATM    2  C   UNK N   1      30.646  17.338   8.094  0.00  0.00     0.183 A 
HETATM    3  C   UNK N   1      33.008  16.299   7.098  0.00  0.00     0.075 A 
HETATM    4  N   UNK N   1      32.283  16.626   4.982  0.00  0.00    -0.350 N 
HETATM    5 Cl   UNK N   1      35.602  15.156   6.386  0.00  0.00    -0.082 Cl
HETATM    6  C   UNK N   1      34.003  15.863   6.199  0.00  0.00     0.067 A 
HETATM    7  C   UNK N   1      33.512  16.083   4.920  0.00  0.00     0.114 A 
HETATM    8  N   UNK N   1      30.832  17.260   6.753  0.00  0.00    -0.338 N 
ATOM      9  HN  UNK N   1      30.109  17.582   6.110  1.00  0.00     0.168 HD
HETATM   10  C   UNK N   1      32.807  16.383   8.519  0.00  0.00     0.120 A 
HETATM   11  N   UNK N   1      31.616  16.907   8.948  0.00  0.00    -0.338 N 
ATOM     12  HN  UNK N   1      31.448  16.978   9.952  1.00  0.00     0.168 HD
HETATM   13  H   UNK N   1      31.711  16.881   4.221  0.00  0.00     0.166 HD
ENDROOT
BRANCH  10  14
HETATM   14  N   UNK N   1      33.750  15.963   9.519  0.00  0.00    -0.360 N 
HETATM   15  C   UNK N   1      33.566  14.698  10.199  0.00  0.00     0.183 A 
HETATM   16  C   UNK N   1      34.594  14.374  11.203  0.00  0.00     0.051 A 
HETATM   17  C   UNK N   1      35.644  15.156  11.505  0.00  0.00     0.036 A 
HETATM   18  N   UNK N   1      34.629  13.262  11.953  0.00  0.00    -0.353 N 
HETATM   19  C   UNK N   1      35.919  16.462  10.868  0.00  0.00     0.079 A 
HETATM   20  N   UNK N   1      36.381  14.565  12.457  0.00  0.00    -0.354 N 
HETATM   21  C   UNK N   1      34.879  16.867   9.802  0.00  0.00     0.131 A 
HETATM   22  C   UNK N   1      35.737  13.402  12.716  0.00  0.00     0.181 A 
HETATM   23  H   UNK N   1      37.206  14.902  12.875  0.00  0.00     0.166 HD
ATOM     24  HN  UNK N   1      33.968  12.486  11.948  1.00  0.00     0.166 HD
ENDBRANCH  10  14
TORSDOF 1
ENDMDL
MODEL 6
REMARK VINA RESULT:      -6.1      2.265      2.944
REMARK  1 active torsions:
REMARK  status: ('A' for Active; 'I' for Inactive)
REMARK    1  A    between atoms: C_12  and  N_15 
ROOT
HETATM    1  C   UNK N   1      28.419  18.233   7.733  0.00  0.00     0.121 A 
HETATM    2  C   UNK N   1      29.312  18.395   9.880  0.00  0.00     0.183 A 
HETATM    3  C   UNK N   1      29.561  17.648   7.229  0.00  0.00     0.075 A 
HETATM    4  N   UNK N   1      27.469  18.391   6.802  0.00  0.00    -0.350 N 
HETATM    5 Cl   UNK N   1      30.152  16.745   4.512  0.00  0.00    -0.082 Cl
HETATM    6  C   UNK N   1      29.267  17.434   5.866  0.00  0.00     0.067 A 
HETATM    7  C   UNK N   1      27.979  17.904   5.656  0.00  0.00     0.114 A 
HETATM    8  N   UNK N   1      28.282  18.604   9.024  0.00  0.00    -0.338 N 
ATOM      9  HN  UNK N   1      27.416  19.034   9.350  1.00  0.00     0.168 HD
HETATM   10  C   UNK N   1      30.652  17.428   8.139  0.00  0.00     0.120 A 
HETATM   11  N   UNK N   1      30.466  17.820   9.438  0.00  0.00    -0.338 N 
ATOM     12  HN  UNK N   1      31.224  17.676  10.105  1.00  0.00     0.168 HD
HETATM   13  H   UNK N   1      26.575  18.784   6.931  0.00  0.00     0.166 HD
ENDROOT
BRANCH  10  14
HETATM   14  N   UNK N   1      31.915  16.833   7.796  0.00  0.00    -0.360 N 
HETATM   15  C   UNK N   1      32.299  15.567   8.385  0.00  0.00     0.183 A 
HETATM   16  C   UNK N   1      33.613  15.055   7.960  0.00  0.00     0.051 A 
HETATM   17  C   UNK N   1      34.434  15.673   7.095  0.00  0.00     0.036 A 
HETATM   18  N   UNK N   1      34.174  13.908   8.372  0.00  0.00    -0.353 N 
HETATM   19  C   UNK N   1      34.133  16.965   6.442  0.00  0.00     0.079 A 
HETATM   20  N   UNK N   1      35.544  14.939   6.929  0.00  0.00    -0.354 N 
HETATM   21  C   UNK N   1      32.767  17.563   6.842  0.00  0.00     0.131 A 
HETATM   22  C   UNK N   1      35.361  13.858   7.725  0.00  0.00     0.181 A 
HETATM   23  H   UNK N   1      36.319  15.140   6.357  0.00  0.00     0.166 HD
ATOM     24  HN  UNK N   1      33.791  13.227   9.028  1.00  0.00     0.166 HD
ENDBRANCH  10  14
TORSDOF 1
ENDMDL
MODEL 7
REMARK VINA RESULT:      -6.0      6.830      9.692
REMARK  1 active torsions:
REMARK  status: ('A' for Active; 'I' for Inactive)
REMARK    1  A    between atoms: C_12  and  N_15 
ROOT
HETATM    1  C   UNK N   1      20.188  18.294   2.900  0.00  0.00     0.121 A 
HETATM    2  C   UNK N   1      20.265  20.597   2.547  0.00  0.00     0.183 A 
HETATM    3  C   UNK N   1      21.526  18.232   3.232  0.00  0.00     0.075 A 
HETATM    4  N   UNK N   1      19.592  17.096   2.950  0.00  0.00    -0.350 N 
HETATM    5 Cl   UNK N   1      23.155  15.929   3.995  0.00  0.00    -0.082 Cl
HETATM    6  C   UNK N   1      21.751  16.867   3.506  0.00  0.00     0.067 A 
HETATM    7  C   UNK N   1      20.541  16.217   3.320  0.00  0.00     0.114 A 
HETATM    8  N   UNK N   1      19.558  19.440   2.564  0.00  0.00    -0.338 N 
ATOM      9  HN  UNK N   1      18.566  19.435   2.326  1.00  0.00     0.168 HD
HETATM   10  C   UNK N   1      22.272  19.461   3.213  0.00  0.00     0.120 A 
HETATM   11  N   UNK N   1      21.589  20.597   2.866  0.00  0.00    -0.338 N 
ATOM     12  HN  UNK N   1      22.095  21.483   2.845  1.00  0.00     0.168 HD
HETATM   13  H   UNK N   1      18.647  16.898   2.754  0.00  0.00     0.166 HD
ENDROOT
BRANCH  10  14
HETATM   14  N   UNK N   1      23.668  19.592   3.528  0.00  0.00    -0.360 N 
HETATM   15  C   UNK N   1      24.214  18.911   4.683  0.00  0.00     0.183 A 
HETATM   16  C   UNK N   1      25.655  19.118   4.907  0.00  0.00     0.051 A 
HETATM   17  C   UNK N   1      26.450  19.871   4.130  0.00  0.00     0.036 A 
HETATM   18  N   UNK N   1      26.374  18.589   5.909  0.00  0.00    -0.353 N 
HETATM   19  C   UNK N   1      25.990  20.605   2.931  0.00  0.00     0.079 A 
HETATM   20  N   UNK N   1      27.701  19.846   4.613  0.00  0.00    -0.354 N 
HETATM   21  C   UNK N   1      24.484  20.432   2.636  0.00  0.00     0.131 A 
HETATM   22  C   UNK N   1      27.629  19.051   5.707  0.00  0.00     0.181 A 
HETATM   23  H   UNK N   1      28.496  20.303   4.253  0.00  0.00     0.166 HD
ATOM     24  HN  UNK N   1      26.046  17.976   6.655  1.00  0.00     0.166 HD
ENDBRANCH  10  14
TORSDOF 1
ENDMDL
MODEL 8
REMARK VINA RESULT:      -6.0      2.632      3.309
REMARK  1 active torsions:
REMARK  status: ('A' for Active; 'I' for Inactive)
REMARK    1  A    between atoms: C_12  and  N_15 
ROOT
HETATM    1  C   UNK N   1      31.665  15.524   3.517  0.00  0.00     0.121 A 
HETATM    2  C   UNK N   1      33.871  14.843   3.198  0.00  0.00     0.183 A 
HETATM    3  C   UNK N   1      31.919  15.976   4.795  0.00  0.00     0.075 A 
HETATM    4  N   UNK N   1      30.388  15.699   3.156  0.00  0.00    -0.350 N 
HETATM    5 Cl   UNK N   1      30.110  17.210   6.732  0.00  0.00    -0.082 Cl
HETATM    6  C   UNK N   1      30.674  16.468   5.241  0.00  0.00     0.067 A 
HETATM    7  C   UNK N   1      29.773  16.276   4.204  0.00  0.00     0.114 A 
HETATM    8  N   UNK N   1      32.607  14.969   2.725  0.00  0.00    -0.338 N 
ATOM      9  HN  UNK N   1      32.371  14.650   1.785  1.00  0.00     0.168 HD
HETATM   10  C   UNK N   1      33.260  15.840   5.294  0.00  0.00     0.120 A 
HETATM   11  N   UNK N   1      34.180  15.271   4.454  0.00  0.00    -0.338 N 
ATOM     12  HN  UNK N   1      35.140  15.163   4.782  1.00  0.00     0.168 HD
HETATM   13  H   UNK N   1      29.979  15.454   2.293  0.00  0.00     0.166 HD
ENDROOT
BRANCH  10  14
HETATM   14  N   UNK N   1      33.710  16.252   6.595  0.00  0.00    -0.360 N 
HETATM   15  C   UNK N   1      33.975  15.258   7.614  0.00  0.00     0.183 A 
HETATM   16  C   UNK N   1      34.431  15.797   8.908  0.00  0.00     0.051 A 
HETATM   17  C   UNK N   1      34.605  17.101   9.176  0.00  0.00     0.036 A 
HETATM   18  N   UNK N   1      34.735  15.069   9.993  0.00  0.00    -0.353 N 
HETATM   19  C   UNK N   1      34.362  18.190   8.205  0.00  0.00     0.079 A 
HETATM   20  N   UNK N   1      35.025  17.245  10.442  0.00  0.00    -0.354 N 
HETATM   21  C   UNK N   1      33.880  17.697   6.824  0.00  0.00     0.131 A 
HETATM   22  C   UNK N   1      35.098  15.981  10.923  0.00  0.00     0.181 A 
HETATM   23  H   UNK N   1      35.235  18.082  10.915  0.00  0.00     0.166 HD
ATOM     24  HN  UNK N   1      34.700  14.054  10.093  1.00  0.00     0.166 HD
ENDBRANCH  10  14
TORSDOF 1
ENDMDL
MODEL 9
REMARK VINA RESULT:      -6.0      2.700      6.856
REMARK  1 active torsions:
REMARK  status: ('A' for Active; 'I' for Inactive)
REMARK    1  A    between atoms: C_12  and  N_15 
ROOT
HETATM    1  C   UNK N   1      36.348  14.852   9.938  0.00  0.00     0.121 A 
HETATM    2  C   UNK N   1      35.502  16.702  11.075  0.00  0.00     0.183 A 
HETATM    3  C   UNK N   1      35.500  15.038   8.866  0.00  0.00     0.075 A 
HETATM    4  N   UNK N   1      37.149  13.791   9.778  0.00  0.00    -0.350 N 
HETATM    5 Cl   UNK N   1      35.238  13.488   6.402  0.00  0.00    -0.082 Cl
HETATM    6  C   UNK N   1      35.825  13.989   7.981  0.00  0.00     0.067 A 
HETATM    7  C   UNK N   1      36.837  13.257   8.584  0.00  0.00     0.114 A 
HETATM    8  N   UNK N   1      36.361  15.655  11.023  0.00  0.00    -0.338 N 
ATOM      9  HN  UNK N   1      37.008  15.475  11.792  1.00  0.00     0.168 HD
HETATM   10  C   UNK N   1      34.590  16.150   8.924  0.00  0.00     0.120 A 
HETATM   11  N   UNK N   1      34.641  16.936  10.045  0.00  0.00    -0.338 N 
ATOM     12  HN  UNK N   1      34.006  17.731  10.113  1.00  0.00     0.168 HD
HETATM   13  H   UNK N   1      37.832  13.466  10.410  0.00  0.00     0.166 HD
ENDROOT
BRANCH  10  14
HETATM   14  N   UNK N   1      33.638  16.500   7.906  0.00  0.00    -0.360 N 
HETATM   15  C   UNK N   1      32.223  16.313   8.148  0.00  0.00     0.183 A 
HETATM   16  C   UNK N   1      31.342  16.707   7.034  0.00  0.00     0.051 A 
HETATM   17  C   UNK N   1      31.766  17.207   5.862  0.00  0.00     0.036 A 
HETATM   18  N   UNK N   1      30.003  16.623   7.031  0.00  0.00    -0.353 N 
HETATM   19  C   UNK N   1      33.186  17.436   5.520  0.00  0.00     0.079 A 
HETATM   20  N   UNK N   1      30.709  17.458   5.075  0.00  0.00    -0.354 N 
HETATM   21  C   UNK N   1      34.169  17.044   6.645  0.00  0.00     0.131 A 
HETATM   22  C   UNK N   1      29.636  17.091   5.816  0.00  0.00     0.181 A 
HETATM   23  H   UNK N   1      30.712  17.827   4.162  0.00  0.00     0.166 HD
ATOM     24  HN  UNK N   1      29.398  16.283   7.778  1.00  0.00     0.166 HD
ENDBRANCH  10  14
TORSDOF 1
ENDMDL
