REMARK  6 active torsions:
REMARK  status: ('A' for Active; 'I' for Inactive)
REMARK    1  A    between atoms: N_1  and  O_2 
REMARK       I    between atoms: N_1  and  C_4 
REMARK    2  A    between atoms: C_4  and  C_6 
REMARK    3  A    between atoms: C_9  and  C_11 
REMARK    4  A    between atoms: C_13  and  N_22 
REMARK    5  A    between atoms: C_15  and  C_17 
REMARK       I    between atoms: C_17  and  N_19 
REMARK       I    between atoms: N_22  and  C_23 
REMARK    6  A    between atoms: C_23  and  C_30 
ROOT
HETATM    1  C   UNK N   1       0.016   1.703  -0.536  0.00  0.00    -0.023 A 
HETATM    2  C   UNK N   1       0.051   0.315  -0.601  0.00  0.00     0.042 A 
HETATM    3  C   UNK N   1      -1.091  -0.456  -0.427  0.00  0.00     0.036 A 
HETATM    4  C   UNK N   1      -2.303   0.175  -0.176  0.00  0.00     0.046 A 
HETATM    5  C   UNK N   1      -2.391   1.574  -0.091  0.00  0.00     0.035 A 
HETATM    6  C   UNK N   1      -1.213   2.338  -0.271  0.00  0.00     0.029 A 
ENDROOT
BRANCH   1   7
HETATM    7  C   UNK N   1       1.310   2.426  -0.540  0.00  0.00    -0.026 A 
HETATM    8  C   UNK N   1       2.500   1.681  -0.623  0.00  0.00     0.013 A 
HETATM    9  C   UNK N   1       3.737   2.286  -0.434  0.00  0.00     0.018 A 
HETATM   10  C   UNK N   1       3.814   3.652  -0.155  0.00  0.00     0.034 A 
HETATM   11  C   UNK N   1       2.635   4.417  -0.119  0.00  0.00     0.018 A 
HETATM   12  C   UNK N   1       1.386   3.806  -0.306  0.00  0.00     0.013 A 
BRANCH  10  13
HETATM   13  C   UNK N   1       5.123   4.256   0.169  0.00  0.00     0.275 C 
HETATM   14  N   UNK N   1       5.203   5.561   0.512  0.00  0.00    -0.233 N 
HETATM   15  H   UNK N   1       4.391   6.117   0.507  0.00  0.00     0.197 HD
HETATM   16  O   UNK N   1       6.131   3.561   0.173  0.00  0.00    -0.265 OA
BRANCH  14  17
HETATM   17  O   UNK N   1       6.377   6.107   0.860  0.00  0.00    -0.287 OA
HETATM   18  H   UNK N   1       7.144   5.568   1.111  0.00  0.00     0.244 HD
ENDBRANCH  14  17
ENDBRANCH  10  13
ENDBRANCH   1   7
BRANCH   3  19
HETATM   19  N   UNK N   1      -1.010  -1.872  -0.355  0.00  0.00    -0.323 N 
HETATM   20  C   UNK N   1       0.127  -2.547  -0.016  0.00  0.00     0.256 C 
HETATM   21  O   UNK N   1       1.144  -1.942   0.300  0.00  0.00    -0.267 OA
HETATM   22  H   UNK N   1      -1.818  -2.396  -0.560  0.00  0.00     0.169 HD
BRANCH  20  23
HETATM   23  C   UNK N   1       0.127  -4.016   0.036  0.00  0.00     0.032 A 
HETATM   24  C   UNK N   1       1.280  -4.697   0.452  0.00  0.00     0.017 A 
HETATM   25  C   UNK N   1       1.290  -6.091   0.511  0.00  0.00     0.007 A 
HETATM   26  C   UNK N   1       0.149  -6.811   0.154  0.00  0.00    -0.062 A 
HETATM   27  C   UNK N   1      -1.005  -6.138  -0.260  0.00  0.00     0.007 A 
HETATM   28  C   UNK N   1       0.163  -8.294   0.212  0.00  0.00     0.048 C 
HETATM   29  C   UNK N   1      -1.017  -4.743  -0.318  0.00  0.00     0.017 A 
ENDBRANCH  20  23
ENDBRANCH   3  19
BRANCH   5  30
HETATM   30  C   UNK N   1      -3.667   2.258   0.306  0.00  0.00     0.253 C 
HETATM   31  O   UNK N   1      -3.659   3.483   0.361  0.00  0.00    -0.267 OA
HETATM   32  N   UNK N   1      -4.821   1.589   0.648  0.00  0.00    -0.357 N 
HETATM   33  C   UNK N   1      -4.934   0.150   0.642  0.00  0.00     0.152 C 
HETATM   34  C   UNK N   1      -5.983   2.329   1.070  0.00  0.00     0.152 C 
ENDBRANCH   5  30
TORSDOF 6
