MODEL 1
REMARK VINA RESULT:      -8.2      0.000      0.000
REMARK  6 active torsions:
REMARK  status: ('A' for Active; 'I' for Inactive)
REMARK    1  A    between atoms: N_1  and  O_2 
REMARK       I    between atoms: N_1  and  C_4 
REMARK    2  A    between atoms: C_4  and  C_6 
REMARK    3  A    between atoms: C_9  and  C_11 
REMARK    4  A    between atoms: C_13  and  N_22 
REMARK    5  A    between atoms: C_15  and  C_17 
REMARK       I    between atoms: C_17  and  N_19 
REMARK       I    between atoms: N_22  and  C_23 
REMARK    6  A    between atoms: C_23  and  C_30 
ROOT
HETATM    1  C   UNK N   1      32.552  16.096   8.160  0.00  0.00    -0.023 A 
HETATM    2  C   UNK N   1      32.882  15.541   9.391  0.00  0.00     0.042 A 
HETATM    3  C   UNK N   1      33.988  14.716   9.549  0.00  0.00     0.036 A 
HETATM    4  C   UNK N   1      34.786  14.432   8.448  0.00  0.00     0.046 A 
HETATM    5  C   UNK N   1      34.491  14.960   7.181  0.00  0.00     0.035 A 
HETATM    6  C   UNK N   1      33.358  15.797   7.044  0.00  0.00     0.029 A 
ENDROOT
BRANCH   1   7
HETATM    7  C   UNK N   1      31.252  16.800   8.048  0.00  0.00    -0.026 A 
HETATM    8  C   UNK N   1      30.487  16.625   6.881  0.00  0.00     0.013 A 
HETATM    9  C   UNK N   1      29.364  17.407   6.638  0.00  0.00     0.018 A 
HETATM   10  C   UNK N   1      28.980  18.386   7.557  0.00  0.00     0.034 A 
HETATM   11  C   UNK N   1      29.707  18.537   8.750  0.00  0.00     0.018 A 
HETATM   12  C   UNK N   1      30.843  17.750   8.994  0.00  0.00     0.013 A 
BRANCH  10  13
HETATM   13  C   UNK N   1      27.862  19.294   7.227  0.00  0.00     0.275 C 
HETATM   14  N   UNK N   1      27.125  19.851   8.214  0.00  0.00    -0.233 N 
HETATM   15  H   UNK N   1      27.312  19.619   9.152  0.00  0.00     0.197 HD
HETATM   16  O   UNK N   1      27.633  19.580   6.059  0.00  0.00    -0.265 OA
BRANCH  14  17
HETATM   17  O   UNK N   1      26.143  20.718   7.930  0.00  0.00    -0.287 OA
HETATM   18  H   UNK N   1      26.072  21.155   7.066  0.00  0.00     0.244 HD
ENDBRANCH  14  17
ENDBRANCH  10  13
ENDBRANCH   1   7
BRANCH   3  19
HETATM   19  N   UNK N   1      34.226  14.045  10.779  0.00  0.00    -0.323 N 
HETATM   20  C   UNK N   1      35.201  14.411  11.662  0.00  0.00     0.256 C 
HETATM   21  O   UNK N   1      35.901  15.394  11.451  0.00  0.00    -0.267 OA
HETATM   22  H   UNK N   1      33.658  13.275  11.007  0.00  0.00     0.169 HD
BRANCH  20  23
HETATM   23  C   UNK N   1      35.382  13.664  12.914  0.00  0.00     0.032 A 
HETATM   24  C   UNK N   1      36.203  14.187  13.924  0.00  0.00     0.017 A 
HETATM   25  C   UNK N   1      36.377  13.490  15.119  0.00  0.00     0.007 A 
HETATM   26  C   UNK N   1      35.734  12.266  15.312  0.00  0.00    -0.062 A 
HETATM   27  C   UNK N   1      34.913  11.739  14.310  0.00  0.00     0.007 A 
HETATM   28  C   UNK N   1      35.926  11.522  16.582  0.00  0.00     0.048 C 
HETATM   29  C   UNK N   1      34.736  12.437  13.114  0.00  0.00     0.017 A 
ENDBRANCH  20  23
ENDBRANCH   3  19
BRANCH   5  30
HETATM   30  C   UNK N   1      35.269  14.558   5.961  0.00  0.00     0.253 C 
HETATM   31  O   UNK N   1      36.245  15.238   5.664  0.00  0.00    -0.267 OA
HETATM   32  N   UNK N   1      34.925  13.503   5.146  0.00  0.00    -0.357 N 
HETATM   33  C   UNK N   1      33.783  12.653   5.388  0.00  0.00     0.152 C 
HETATM   34  C   UNK N   1      35.701  13.225   3.964  0.00  0.00     0.152 C 
ENDBRANCH   5  30
TORSDOF 6
ENDMDL
MODEL 2
REMARK VINA RESULT:      -8.1      5.722      9.145
REMARK  6 active torsions:
REMARK  status: ('A' for Active; 'I' for Inactive)
REMARK    1  A    between atoms: N_1  and  O_2 
REMARK       I    between atoms: N_1  and  C_4 
REMARK    2  A    between atoms: C_4  and  C_6 
REMARK    3  A    between atoms: C_9  and  C_11 
REMARK    4  A    between atoms: C_13  and  N_22 
REMARK    5  A    between atoms: C_15  and  C_17 
REMARK       I    between atoms: C_17  and  N_19 
REMARK       I    between atoms: N_22  and  C_23 
REMARK    6  A    between atoms: C_23  and  C_30 
ROOT
HETATM    1  C   UNK N   1      24.909  17.017   5.199  0.00  0.00    -0.023 A 
HETATM    2  C   UNK N   1      26.224  17.344   5.511  0.00  0.00     0.042 A 
HETATM    3  C   UNK N   1      27.034  16.497   6.255  0.00  0.00     0.036 A 
HETATM    4  C   UNK N   1      26.516  15.289   6.707  0.00  0.00     0.046 A 
HETATM    5  C   UNK N   1      25.192  14.915   6.428  0.00  0.00     0.035 A 
HETATM    6  C   UNK N   1      24.386  15.796   5.668  0.00  0.00     0.029 A 
ENDROOT
BRANCH   1   7
HETATM    7  C   UNK N   1      24.069  18.063   4.571  0.00  0.00    -0.026 A 
HETATM    8  C   UNK N   1      22.686  17.838   4.451  0.00  0.00     0.013 A 
HETATM    9  C   UNK N   1      21.884  18.690   3.701  0.00  0.00     0.018 A 
HETATM   10  C   UNK N   1      22.447  19.789   3.049  0.00  0.00     0.034 A 
HETATM   11  C   UNK N   1      23.820  20.053   3.201  0.00  0.00     0.018 A 
HETATM   12  C   UNK N   1      24.630  19.191   3.956  0.00  0.00     0.013 A 
BRANCH  10  13
HETATM   13  C   UNK N   1      21.609  20.611   2.152  0.00  0.00     0.275 C 
HETATM   14  N   UNK N   1      21.312  20.174   0.908  0.00  0.00    -0.233 N 
HETATM   15  H   UNK N   1      21.688  19.323   0.588  0.00  0.00     0.197 HD
HETATM   16  O   UNK N   1      21.143  21.670   2.555  0.00  0.00    -0.265 OA
BRANCH  14  17
HETATM   17  O   UNK N   1      20.508  20.886   0.106  0.00  0.00    -0.287 OA
HETATM   18  H   UNK N   1      20.368  20.652  -0.826  0.00  0.00     0.244 HD
ENDBRANCH  14  17
ENDBRANCH  10  13
ENDBRANCH   1   7
BRANCH   3  19
HETATM   19  N   UNK N   1      28.323  16.911   6.683  0.00  0.00    -0.323 N 
HETATM   20  C   UNK N   1      29.482  16.513   6.082  0.00  0.00     0.256 C 
HETATM   21  O   UNK N   1      29.458  15.801   5.086  0.00  0.00    -0.267 OA
HETATM   22  H   UNK N   1      28.384  17.519   7.455  0.00  0.00     0.169 HD
BRANCH  20  23
HETATM   23  C   UNK N   1      30.778  16.989   6.587  0.00  0.00     0.032 A 
HETATM   24  C   UNK N   1      30.887  17.434   7.912  0.00  0.00     0.017 A 
HETATM   25  C   UNK N   1      32.113  17.882   8.405  0.00  0.00     0.007 A 
HETATM   26  C   UNK N   1      33.235  17.889   7.576  0.00  0.00    -0.062 A 
HETATM   27  C   UNK N   1      33.134  17.444   6.253  0.00  0.00     0.007 A 
HETATM   28  C   UNK N   1      34.538  18.371   8.099  0.00  0.00     0.048 C 
HETATM   29  C   UNK N   1      31.908  16.994   5.760  0.00  0.00     0.017 A 
ENDBRANCH  20  23
ENDBRANCH   3  19
BRANCH   5  30
HETATM   30  C   UNK N   1      24.585  13.675   7.019  0.00  0.00     0.253 C 
HETATM   31  O   UNK N   1      24.206  13.730   8.183  0.00  0.00    -0.267 OA
HETATM   32  N   UNK N   1      24.471  12.481   6.342  0.00  0.00    -0.357 N 
HETATM   33  C   UNK N   1      24.907  12.298   4.979  0.00  0.00     0.152 C 
HETATM   34  C   UNK N   1      23.924  11.327   7.009  0.00  0.00     0.152 C 
ENDBRANCH   5  30
TORSDOF 6
ENDMDL
MODEL 3
REMARK VINA RESULT:      -8.1      3.624      9.143
REMARK  6 active torsions:
REMARK  status: ('A' for Active; 'I' for Inactive)
REMARK    1  A    between atoms: N_1  and  O_2 
REMARK       I    between atoms: N_1  and  C_4 
REMARK    2  A    between atoms: C_4  and  C_6 
REMARK    3  A    between atoms: C_9  and  C_11 
REMARK    4  A    between atoms: C_13  and  N_22 
REMARK    5  A    between atoms: C_15  and  C_17 
REMARK       I    between atoms: C_17  and  N_19 
REMARK       I    between atoms: N_22  and  C_23 
REMARK    6  A    between atoms: C_23  and  C_30 
ROOT
HETATM    1  C   UNK N   1      36.076  13.056  12.666  0.00  0.00    -0.023 A 
HETATM    2  C   UNK N   1      34.981  13.507  11.937  0.00  0.00     0.042 A 
HETATM    3  C   UNK N   1      34.995  13.558  10.550  0.00  0.00     0.036 A 
HETATM    4  C   UNK N   1      36.136  13.153   9.868  0.00  0.00     0.046 A 
HETATM    5  C   UNK N   1      37.272  12.698  10.556  0.00  0.00     0.035 A 
HETATM    6  C   UNK N   1      37.234  12.655  11.971  0.00  0.00     0.029 A 
ENDROOT
BRANCH   1   7
HETATM    7  C   UNK N   1      36.039  13.220  14.138  0.00  0.00    -0.026 A 
HETATM    8  C   UNK N   1      35.051  12.536  14.870  0.00  0.00     0.013 A 
HETATM    9  C   UNK N   1      34.846  12.804  16.218  0.00  0.00     0.018 A 
HETATM   10  C   UNK N   1      35.623  13.765  16.868  0.00  0.00     0.034 A 
HETATM   11  C   UNK N   1      36.647  14.419  16.161  0.00  0.00     0.018 A 
HETATM   12  C   UNK N   1      36.852  14.151  14.799  0.00  0.00     0.013 A 
BRANCH  10  13
HETATM   13  C   UNK N   1      35.311  14.130  18.265  0.00  0.00     0.275 C 
HETATM   14  N   UNK N   1      35.091  13.166  19.187  0.00  0.00    -0.233 N 
HETATM   15  H   UNK N   1      35.101  12.220  18.915  0.00  0.00     0.197 HD
HETATM   16  O   UNK N   1      35.298  15.308  18.599  0.00  0.00    -0.265 OA
BRANCH  14  17
HETATM   17  O   UNK N   1      34.860  13.484  20.469  0.00  0.00    -0.287 OA
HETATM   18  H   UNK N   1      34.745  12.809  21.156  0.00  0.00     0.244 HD
ENDBRANCH  14  17
ENDBRANCH  10  13
ENDBRANCH   1   7
BRANCH   3  19
HETATM   19  N   UNK N   1      33.924  14.154   9.832  0.00  0.00    -0.323 N 
HETATM   20  C   UNK N   1      33.962  15.426   9.337  0.00  0.00     0.256 C 
HETATM   21  O   UNK N   1      34.971  16.112   9.450  0.00  0.00    -0.267 OA
HETATM   22  H   UNK N   1      33.110  13.621   9.682  0.00  0.00     0.169 HD
BRANCH  20  23
HETATM   23  C   UNK N   1      32.810  15.969   8.604  0.00  0.00     0.032 A 
HETATM   24  C   UNK N   1      32.176  15.187   7.627  0.00  0.00     0.017 A 
HETATM   25  C   UNK N   1      31.078  15.689   6.929  0.00  0.00     0.007 A 
HETATM   26  C   UNK N   1      30.608  16.974   7.202  0.00  0.00    -0.062 A 
HETATM   27  C   UNK N   1      31.234  17.759   8.176  0.00  0.00     0.007 A 
HETATM   28  C   UNK N   1      29.442  17.509   6.454  0.00  0.00     0.048 C 
HETATM   29  C   UNK N   1      32.332  17.257   8.877  0.00  0.00     0.017 A 
ENDBRANCH  20  23
ENDBRANCH   3  19
BRANCH   5  30
HETATM   30  C   UNK N   1      38.551  12.380   9.838  0.00  0.00     0.253 C 
HETATM   31  O   UNK N   1      39.223  13.323   9.434  0.00  0.00    -0.267 OA
HETATM   32  N   UNK N   1      38.984  11.100   9.573  0.00  0.00    -0.357 N 
HETATM   33  C   UNK N   1      38.260   9.919   9.980  0.00  0.00     0.152 C 
HETATM   34  C   UNK N   1      40.199  10.891   8.828  0.00  0.00     0.152 C 
ENDBRANCH   5  30
TORSDOF 6
ENDMDL
MODEL 4
REMARK VINA RESULT:      -8.1      7.660     11.850
REMARK  6 active torsions:
REMARK  status: ('A' for Active; 'I' for Inactive)
REMARK    1  A    between atoms: N_1  and  O_2 
REMARK       I    between atoms: N_1  and  C_4 
REMARK    2  A    between atoms: C_4  and  C_6 
REMARK    3  A    between atoms: C_9  and  C_11 
REMARK    4  A    between atoms: C_13  and  N_22 
REMARK    5  A    between atoms: C_15  and  C_17 
REMARK       I    between atoms: C_17  and  N_19 
REMARK       I    between atoms: N_22  and  C_23 
REMARK    6  A    between atoms: C_23  and  C_30 
ROOT
HETATM    1  C   UNK N   1      22.907  15.180   6.419  0.00  0.00    -0.023 A 
HETATM    2  C   UNK N   1      24.260  15.318   6.132  0.00  0.00     0.042 A 
HETATM    3  C   UNK N   1      24.704  15.992   5.002  0.00  0.00     0.036 A 
HETATM    4  C   UNK N   1      23.773  16.542   4.131  0.00  0.00     0.046 A 
HETATM    5  C   UNK N   1      22.394  16.424   4.370  0.00  0.00     0.035 A 
HETATM    6  C   UNK N   1      21.966  15.730   5.528  0.00  0.00     0.029 A 
ENDROOT
BRANCH   1   7
HETATM    7  C   UNK N   1      22.527  14.282   7.536  0.00  0.00    -0.026 A 
HETATM    8  C   UNK N   1      21.417  14.622   8.329  0.00  0.00     0.013 A 
HETATM    9  C   UNK N   1      21.136  13.928   9.500  0.00  0.00     0.018 A 
HETATM   10  C   UNK N   1      21.960  12.877   9.908  0.00  0.00     0.034 A 
HETATM   11  C   UNK N   1      23.043  12.495   9.097  0.00  0.00     0.018 A 
HETATM   12  C   UNK N   1      23.330  13.198   7.917  0.00  0.00     0.013 A 
BRANCH  10  13
HETATM   13  C   UNK N   1      21.724  12.233  11.216  0.00  0.00     0.275 C 
HETATM   14  N   UNK N   1      22.766  11.781  11.949  0.00  0.00    -0.233 N 
HETATM   15  H   UNK N   1      23.680  11.848  11.590  0.00  0.00     0.197 HD
HETATM   16  O   UNK N   1      20.586  12.150  11.659  0.00  0.00    -0.265 OA
BRANCH  14  17
HETATM   17  O   UNK N   1      22.569  11.243  13.161  0.00  0.00    -0.287 OA
HETATM   18  H   UNK N   1      23.222  11.324  13.875  0.00  0.00     0.244 HD
ENDBRANCH  14  17
ENDBRANCH  10  13
ENDBRANCH   1   7
BRANCH   3  19
HETATM   19  N   UNK N   1      26.081  15.999   4.652  0.00  0.00    -0.323 N 
HETATM   20  C   UNK N   1      26.893  17.085   4.803  0.00  0.00     0.256 C 
HETATM   21  O   UNK N   1      26.472  18.117   5.310  0.00  0.00    -0.267 OA
HETATM   22  H   UNK N   1      26.471  15.175   4.280  0.00  0.00     0.169 HD
BRANCH  20  23
HETATM   23  C   UNK N   1      28.309  17.009   4.416  0.00  0.00     0.032 A 
HETATM   24  C   UNK N   1      29.295  17.496   5.286  0.00  0.00     0.017 A 
HETATM   25  C   UNK N   1      30.643  17.424   4.931  0.00  0.00     0.007 A 
HETATM   26  C   UNK N   1      31.012  16.865   3.707  0.00  0.00    -0.062 A 
HETATM   27  C   UNK N   1      30.034  16.375   2.836  0.00  0.00     0.007 A 
HETATM   28  C   UNK N   1      32.445  16.794   3.329  0.00  0.00     0.048 C 
HETATM   29  C   UNK N   1      28.685  16.445   3.189  0.00  0.00     0.017 A 
ENDBRANCH  20  23
ENDBRANCH   3  19
BRANCH   5  30
HETATM   30  C   UNK N   1      21.379  16.901   3.372  0.00  0.00     0.253 C 
HETATM   31  O   UNK N   1      21.049  16.122   2.484  0.00  0.00    -0.267 OA
HETATM   32  N   UNK N   1      20.837  18.167   3.376  0.00  0.00    -0.357 N 
HETATM   33  C   UNK N   1      21.173  19.170   4.358  0.00  0.00     0.152 C 
HETATM   34  C   UNK N   1      19.910  18.555   2.344  0.00  0.00     0.152 C 
ENDBRANCH   5  30
TORSDOF 6
ENDMDL
MODEL 5
REMARK VINA RESULT:      -8.1      4.984     10.483
REMARK  6 active torsions:
REMARK  status: ('A' for Active; 'I' for Inactive)
REMARK    1  A    between atoms: N_1  and  O_2 
REMARK       I    between atoms: N_1  and  C_4 
REMARK    2  A    between atoms: C_4  and  C_6 
REMARK    3  A    between atoms: C_9  and  C_11 
REMARK    4  A    between atoms: C_13  and  N_22 
REMARK    5  A    between atoms: C_15  and  C_17 
REMARK       I    between atoms: C_17  and  N_19 
REMARK       I    between atoms: N_22  and  C_23 
REMARK    6  A    between atoms: C_23  and  C_30 
ROOT
HETATM    1  C   UNK N   1      30.155  16.874   4.737  0.00  0.00    -0.023 A 
HETATM    2  C   UNK N   1      30.236  15.923   3.726  0.00  0.00     0.042 A 
HETATM    3  C   UNK N   1      29.145  15.612   2.925  0.00  0.00     0.036 A 
HETATM    4  C   UNK N   1      27.937  16.263   3.140  0.00  0.00     0.046 A 
HETATM    5  C   UNK N   1      27.800  17.225   4.155  0.00  0.00     0.035 A 
HETATM    6  C   UNK N   1      28.926  17.525   4.959  0.00  0.00     0.029 A 
ENDROOT
BRANCH   1   7
HETATM    7  C   UNK N   1      31.308  16.997   5.660  0.00  0.00    -0.026 A 
HETATM    8  C   UNK N   1      31.066  17.010   7.046  0.00  0.00     0.013 A 
HETATM    9  C   UNK N   1      32.079  17.319   7.946  0.00  0.00     0.018 A 
HETATM   10  C   UNK N   1      33.360  17.624   7.482  0.00  0.00     0.034 A 
HETATM   11  C   UNK N   1      33.627  17.566   6.103  0.00  0.00     0.018 A 
HETATM   12  C   UNK N   1      32.604  17.258   5.193  0.00  0.00     0.013 A 
BRANCH  10  13
HETATM   13  C   UNK N   1      34.393  18.074   8.438  0.00  0.00     0.275 C 
HETATM   14  N   UNK N   1      34.714  17.306   9.503  0.00  0.00    -0.233 N 
HETATM   15  H   UNK N   1      34.229  16.464   9.660  0.00  0.00     0.197 HD
HETATM   16  O   UNK N   1      34.993  19.122   8.239  0.00  0.00    -0.265 OA
BRANCH  14  17
HETATM   17  O   UNK N   1      35.686  17.677  10.348  0.00  0.00    -0.287 OA
HETATM   18  H   UNK N   1      35.707  18.557  10.758  0.00  0.00     0.244 HD
ENDBRANCH  14  17
ENDBRANCH  10  13
ENDBRANCH   1   7
BRANCH   3  19
HETATM   19  N   UNK N   1      29.207  14.540   1.995  0.00  0.00    -0.323 N 
HETATM   20  C   UNK N   1      28.933  13.242   2.319  0.00  0.00     0.256 C 
HETATM   21  O   UNK N   1      28.561  12.944   3.447  0.00  0.00    -0.267 OA
HETATM   22  H   UNK N   1      29.461  14.743   1.066  0.00  0.00     0.169 HD
BRANCH  20  23
HETATM   23  C   UNK N   1      29.019  12.190   1.296  0.00  0.00     0.032 A 
HETATM   24  C   UNK N   1      28.235  11.035   1.419  0.00  0.00     0.017 A 
HETATM   25  C   UNK N   1      28.304  10.032   0.451  0.00  0.00     0.007 A 
HETATM   26  C   UNK N   1      29.158  10.179  -0.643  0.00  0.00    -0.062 A 
HETATM   27  C   UNK N   1      29.942  11.330  -0.773  0.00  0.00     0.007 A 
HETATM   28  C   UNK N   1      29.235   9.109  -1.669  0.00  0.00     0.048 C 
HETATM   29  C   UNK N   1      29.873  12.335   0.194  0.00  0.00     0.017 A 
ENDBRANCH  20  23
ENDBRANCH   3  19
BRANCH   5  30
HETATM   30  C   UNK N   1      26.470  17.840   4.479  0.00  0.00     0.253 C 
HETATM   31  O   UNK N   1      25.629  17.122   5.009  0.00  0.00    -0.267 OA
HETATM   32  N   UNK N   1      26.134  19.141   4.180  0.00  0.00    -0.357 N 
HETATM   33  C   UNK N   1      27.037  20.065   3.537  0.00  0.00     0.152 C 
HETATM   34  C   UNK N   1      24.812  19.629   4.480  0.00  0.00     0.152 C 
ENDBRANCH   5  30
TORSDOF 6
ENDMDL
MODEL 6
REMARK VINA RESULT:      -7.9      2.718      3.812
REMARK  6 active torsions:
REMARK  status: ('A' for Active; 'I' for Inactive)
REMARK    1  A    between atoms: N_1  and  O_2 
REMARK       I    between atoms: N_1  and  C_4 
REMARK    2  A    between atoms: C_4  and  C_6 
REMARK    3  A    between atoms: C_9  and  C_11 
REMARK    4  A    between atoms: C_13  and  N_22 
REMARK    5  A    between atoms: C_15  and  C_17 
REMARK       I    between atoms: C_17  and  N_19 
REMARK       I    between atoms: N_22  and  C_23 
REMARK    6  A    between atoms: C_23  and  C_30 
ROOT
HETATM    1  C   UNK N   1      35.253  15.042  10.292  0.00  0.00    -0.023 A 
HETATM    2  C   UNK N   1      35.286  14.862  11.670  0.00  0.00     0.042 A 
HETATM    3  C   UNK N   1      36.239  14.059  12.282  0.00  0.00     0.036 A 
HETATM    4  C   UNK N   1      37.185  13.411  11.497  0.00  0.00     0.046 A 
HETATM    5  C   UNK N   1      37.190  13.551  10.100  0.00  0.00     0.035 A 
HETATM    6  C   UNK N   1      36.208  14.375   9.499  0.00  0.00     0.029 A 
ENDROOT
BRANCH   1   7
HETATM    7  C   UNK N   1      34.088  15.756   9.718  0.00  0.00    -0.026 A 
HETATM    8  C   UNK N   1      32.856  15.083   9.637  0.00  0.00     0.013 A 
HETATM    9  C   UNK N   1      31.788  15.628   8.934  0.00  0.00     0.018 A 
HETATM   10  C   UNK N   1      31.928  16.860   8.292  0.00  0.00     0.034 A 
HETATM   11  C   UNK N   1      33.138  17.566   8.407  0.00  0.00     0.018 A 
HETATM   12  C   UNK N   1      34.217  17.014   9.114  0.00  0.00     0.013 A 
BRANCH  10  13
HETATM   13  C   UNK N   1      30.829  17.368   7.444  0.00  0.00     0.275 C 
HETATM   14  N   UNK N   1      29.753  17.959   8.008  0.00  0.00    -0.233 N 
HETATM   15  H   UNK N   1      29.685  18.015   8.988  0.00  0.00     0.197 HD
HETATM   16  O   UNK N   1      30.917  17.295   6.225  0.00  0.00    -0.265 OA
BRANCH  14  17
HETATM   17  O   UNK N   1      28.775  18.471   7.247  0.00  0.00    -0.287 OA
HETATM   18  H   UNK N   1      28.613  19.426   7.186  0.00  0.00     0.244 HD
ENDBRANCH  14  17
ENDBRANCH  10  13
ENDBRANCH   1   7
BRANCH   3  19
HETATM   19  N   UNK N   1      36.169  13.775  13.672  0.00  0.00    -0.323 N 
HETATM   20  C   UNK N   1      35.280  12.894  14.219  0.00  0.00     0.256 C 
HETATM   21  O   UNK N   1      34.516  12.253  13.508  0.00  0.00    -0.267 OA
HETATM   22  H   UNK N   1      36.795  14.237  14.274  0.00  0.00     0.169 HD
BRANCH  20  23
HETATM   23  C   UNK N   1      35.273  12.656  15.669  0.00  0.00     0.032 A 
HETATM   24  C   UNK N   1      35.269  13.745  16.553  0.00  0.00     0.017 A 
HETATM   25  C   UNK N   1      35.256  13.532  17.931  0.00  0.00     0.007 A 
HETATM   26  C   UNK N   1      35.248  12.230  18.434  0.00  0.00    -0.062 A 
HETATM   27  C   UNK N   1      35.250  11.139  17.558  0.00  0.00     0.007 A 
HETATM   28  C   UNK N   1      35.240  12.004  19.901  0.00  0.00     0.048 C 
HETATM   29  C   UNK N   1      35.261  11.351  16.178  0.00  0.00     0.017 A 
ENDBRANCH  20  23
ENDBRANCH   3  19
BRANCH   5  30
HETATM   30  C   UNK N   1      38.124  12.757   9.234  0.00  0.00     0.253 C 
HETATM   31  O   UNK N   1      39.173  13.292   8.893  0.00  0.00    -0.267 OA
HETATM   32  N   UNK N   1      37.850  11.488   8.774  0.00  0.00    -0.357 N 
HETATM   33  C   UNK N   1      36.637  10.774   9.093  0.00  0.00     0.152 C 
HETATM   34  C   UNK N   1      38.783  10.823   7.901  0.00  0.00     0.152 C 
ENDBRANCH   5  30
TORSDOF 6
ENDMDL
MODEL 7
REMARK VINA RESULT:      -7.8      4.244      8.839
REMARK  6 active torsions:
REMARK  status: ('A' for Active; 'I' for Inactive)
REMARK    1  A    between atoms: N_1  and  O_2 
REMARK       I    between atoms: N_1  and  C_4 
REMARK    2  A    between atoms: C_4  and  C_6 
REMARK    3  A    between atoms: C_9  and  C_11 
REMARK    4  A    between atoms: C_13  and  N_22 
REMARK    5  A    between atoms: C_15  and  C_17 
REMARK       I    between atoms: C_17  and  N_19 
REMARK       I    between atoms: N_22  and  C_23 
REMARK    6  A    between atoms: C_23  and  C_30 
ROOT
HETATM    1  C   UNK N   1      37.188  13.481  10.112  0.00  0.00    -0.023 A 
HETATM    2  C   UNK N   1      37.026  13.167  11.456  0.00  0.00     0.042 A 
HETATM    3  C   UNK N   1      36.161  13.881  12.276  0.00  0.00     0.036 A 
HETATM    4  C   UNK N   1      35.440  14.941  11.741  0.00  0.00     0.046 A 
HETATM    5  C   UNK N   1      35.575  15.305  10.392  0.00  0.00     0.035 A 
HETATM    6  C   UNK N   1      36.463  14.563   9.576  0.00  0.00     0.029 A 
ENDROOT
BRANCH   1   7
HETATM    7  C   UNK N   1      38.271  12.793   9.370  0.00  0.00    -0.026 A 
HETATM    8  C   UNK N   1      38.640  11.494   9.763  0.00  0.00     0.013 A 
HETATM    9  C   UNK N   1      39.771  10.882   9.236  0.00  0.00     0.018 A 
HETATM   10  C   UNK N   1      40.563  11.556   8.304  0.00  0.00     0.034 A 
HETATM   11  C   UNK N   1      40.177  12.835   7.866  0.00  0.00     0.018 A 
HETATM   12  C   UNK N   1      39.038  13.454   8.400  0.00  0.00     0.013 A 
BRANCH  10  13
HETATM   13  C   UNK N   1      41.830  10.946   7.848  0.00  0.00     0.275 C 
HETATM   14  N   UNK N   1      43.013  11.433   8.282  0.00  0.00    -0.233 N 
HETATM   15  H   UNK N   1      43.029  12.221   8.872  0.00  0.00     0.197 HD
HETATM   16  O   UNK N   1      41.805   9.966   7.114  0.00  0.00    -0.265 OA
BRANCH  14  17
HETATM   17  O   UNK N   1      44.167  10.855   7.919  0.00  0.00    -0.287 OA
HETATM   18  H   UNK N   1      44.729  10.379   8.551  0.00  0.00     0.244 HD
ENDBRANCH  14  17
ENDBRANCH  10  13
ENDBRANCH   1   7
BRANCH   3  19
HETATM   19  N   UNK N   1      36.116  13.637  13.675  0.00  0.00    -0.323 N 
HETATM   20  C   UNK N   1      35.191  12.830  14.271  0.00  0.00     0.256 C 
HETATM   21  O   UNK N   1      34.366  12.221  13.601  0.00  0.00    -0.267 OA
HETATM   22  H   UNK N   1      36.789  14.074  14.245  0.00  0.00     0.169 HD
BRANCH  20  23
HETATM   23  C   UNK N   1      35.214  12.630  15.727  0.00  0.00     0.032 A 
HETATM   24  C   UNK N   1      35.223  11.329  16.250  0.00  0.00     0.017 A 
HETATM   25  C   UNK N   1      35.251  11.127  17.631  0.00  0.00     0.007 A 
HETATM   26  C   UNK N   1      35.268  12.222  18.494  0.00  0.00    -0.062 A 
HETATM   27  C   UNK N   1      35.261  13.523  17.980  0.00  0.00     0.007 A 
HETATM   28  C   UNK N   1      35.292  12.006  19.963  0.00  0.00     0.048 C 
HETATM   29  C   UNK N   1      35.235  13.727  16.598  0.00  0.00     0.017 A 
ENDBRANCH  20  23
ENDBRANCH   3  19
BRANCH   5  30
HETATM   30  C   UNK N   1      34.900  16.526   9.836  0.00  0.00     0.253 C 
HETATM   31  O   UNK N   1      35.424  17.612  10.057  0.00  0.00    -0.267 OA
HETATM   32  N   UNK N   1      33.715  16.494   9.135  0.00  0.00    -0.357 N 
HETATM   33  C   UNK N   1      33.001  15.275   8.840  0.00  0.00     0.152 C 
HETATM   34  C   UNK N   1      33.112  17.724   8.687  0.00  0.00     0.152 C 
ENDBRANCH   5  30
TORSDOF 6
ENDMDL
MODEL 8
REMARK VINA RESULT:      -7.6      6.277      9.906
REMARK  6 active torsions:
REMARK  status: ('A' for Active; 'I' for Inactive)
REMARK    1  A    between atoms: N_1  and  O_2 
REMARK       I    between atoms: N_1  and  C_4 
REMARK    2  A    between atoms: C_4  and  C_6 
REMARK    3  A    between atoms: C_9  and  C_11 
REMARK    4  A    between atoms: C_13  and  N_22 
REMARK    5  A    between atoms: C_15  and  C_17 
REMARK       I    between atoms: C_17  and  N_19 
REMARK       I    between atoms: N_22  and  C_23 
REMARK    6  A    between atoms: C_23  and  C_30 
ROOT
HETATM    1  C   UNK N   1      23.305  15.588   5.738  0.00  0.00    -0.023 A 
HETATM    2  C   UNK N   1      24.564  15.960   6.195  0.00  0.00     0.042 A 
HETATM    3  C   UNK N   1      25.727  15.425   5.656  0.00  0.00     0.036 A 
HETATM    4  C   UNK N   1      25.632  14.488   4.634  0.00  0.00     0.046 A 
HETATM    5  C   UNK N   1      24.384  14.071   4.143  0.00  0.00     0.035 A 
HETATM    6  C   UNK N   1      23.214  14.630   4.709  0.00  0.00     0.029 A 
ENDROOT
BRANCH   1   7
HETATM    7  C   UNK N   1      22.127  16.063   6.502  0.00  0.00    -0.026 A 
HETATM    8  C   UNK N   1      21.667  17.374   6.288  0.00  0.00     0.013 A 
HETATM    9  C   UNK N   1      20.697  17.935   7.111  0.00  0.00     0.018 A 
HETATM   10  C   UNK N   1      20.165  17.197   8.170  0.00  0.00     0.034 A 
HETATM   11  C   UNK N   1      20.580  15.868   8.363  0.00  0.00     0.018 A 
HETATM   12  C   UNK N   1      21.562  15.303   7.535  0.00  0.00     0.013 A 
BRANCH  10  13
HETATM   13  C   UNK N   1      19.230  17.847   9.112  0.00  0.00     0.275 C 
HETATM   14  N   UNK N   1      19.562  19.019   9.699  0.00  0.00    -0.233 N 
HETATM   15  H   UNK N   1      20.445  19.417   9.527  0.00  0.00     0.197 HD
HETATM   16  O   UNK N   1      18.133  17.347   9.325  0.00  0.00    -0.265 OA
BRANCH  14  17
HETATM   17  O   UNK N   1      18.701  19.645  10.514  0.00  0.00    -0.287 OA
HETATM   18  H   UNK N   1      18.237  19.182  11.230  0.00  0.00     0.244 HD
ENDBRANCH  14  17
ENDBRANCH  10  13
ENDBRANCH   1   7
BRANCH   3  19
HETATM   19  N   UNK N   1      26.994  15.709   6.231  0.00  0.00    -0.323 N 
HETATM   20  C   UNK N   1      27.765  16.776   5.869  0.00  0.00     0.256 C 
HETATM   21  O   UNK N   1      27.364  17.588   5.045  0.00  0.00    -0.267 OA
HETATM   22  H   UNK N   1      27.335  15.104   6.929  0.00  0.00     0.169 HD
BRANCH  20  23
HETATM   23  C   UNK N   1      29.067  17.000   6.515  0.00  0.00     0.032 A 
HETATM   24  C   UNK N   1      29.117  17.519   7.816  0.00  0.00     0.017 A 
HETATM   25  C   UNK N   1      30.347  17.731   8.441  0.00  0.00     0.007 A 
HETATM   26  C   UNK N   1      31.531  17.424   7.769  0.00  0.00    -0.062 A 
HETATM   27  C   UNK N   1      31.488  16.904   6.472  0.00  0.00     0.007 A 
HETATM   28  C   UNK N   1      32.838  17.655   8.433  0.00  0.00     0.048 C 
HETATM   29  C   UNK N   1      30.258  16.690   5.846  0.00  0.00     0.017 A 
ENDBRANCH  20  23
ENDBRANCH   3  19
BRANCH   5  30
HETATM   30  C   UNK N   1      24.267  12.969   3.131  0.00  0.00     0.253 C 
HETATM   31  O   UNK N   1      24.166  11.822   3.553  0.00  0.00    -0.267 OA
HETATM   32  N   UNK N   1      24.309  13.170   1.770  0.00  0.00    -0.357 N 
HETATM   33  C   UNK N   1      24.450  14.473   1.165  0.00  0.00     0.152 C 
HETATM   34  C   UNK N   1      24.244  12.043   0.874  0.00  0.00     0.152 C 
ENDBRANCH   5  30
TORSDOF 6
ENDMDL
MODEL 9
REMARK VINA RESULT:      -7.5      4.782      7.168
REMARK  6 active torsions:
REMARK  status: ('A' for Active; 'I' for Inactive)
REMARK    1  A    between atoms: N_1  and  O_2 
REMARK       I    between atoms: N_1  and  C_4 
REMARK    2  A    between atoms: C_4  and  C_6 
REMARK    3  A    between atoms: C_9  and  C_11 
REMARK    4  A    between atoms: C_13  and  N_22 
REMARK    5  A    between atoms: C_15  and  C_17 
REMARK       I    between atoms: C_17  and  N_19 
REMARK       I    between atoms: N_22  and  C_23 
REMARK    6  A    between atoms: C_23  and  C_30 
ROOT
HETATM    1  C   UNK N   1      27.583  16.875   3.722  0.00  0.00    -0.023 A 
HETATM    2  C   UNK N   1      28.578  16.996   4.685  0.00  0.00     0.042 A 
HETATM    3  C   UNK N   1      29.585  16.050   4.821  0.00  0.00     0.036 A 
HETATM    4  C   UNK N   1      29.600  14.948   3.975  0.00  0.00     0.046 A 
HETATM    5  C   UNK N   1      28.613  14.774   2.991  0.00  0.00     0.035 A 
HETATM    6  C   UNK N   1      27.595  15.751   2.873  0.00  0.00     0.029 A 
ENDROOT
BRANCH   1   7
HETATM    7  C   UNK N   1      26.447  17.826   3.781  0.00  0.00    -0.026 A 
HETATM    8  C   UNK N   1      25.144  17.314   3.910  0.00  0.00     0.013 A 
HETATM    9  C   UNK N   1      24.034  18.140   3.774  0.00  0.00     0.018 A 
HETATM   10  C   UNK N   1      24.202  19.499   3.502  0.00  0.00     0.034 A 
HETATM   11  C   UNK N   1      25.500  20.032   3.420  0.00  0.00     0.018 A 
HETATM   12  C   UNK N   1      26.620  19.198   3.554  0.00  0.00     0.013 A 
BRANCH  10  13
HETATM   13  C   UNK N   1      23.016  20.339   3.233  0.00  0.00     0.275 C 
HETATM   14  N   UNK N   1      21.774  19.849   3.445  0.00  0.00    -0.233 N 
HETATM   15  H   UNK N   1      21.662  18.918   3.742  0.00  0.00     0.197 HD
HETATM   16  O   UNK N   1      23.160  21.497   2.864  0.00  0.00    -0.265 OA
BRANCH  14  17
HETATM   17  O   UNK N   1      20.693  20.619   3.257  0.00  0.00    -0.287 OA
HETATM   18  H   UNK N   1      20.564  21.455   3.732  0.00  0.00     0.244 HD
ENDBRANCH  14  17
ENDBRANCH  10  13
ENDBRANCH   1   7
BRANCH   3  19
HETATM   19  N   UNK N   1      30.507  16.117   5.900  0.00  0.00    -0.323 N 
HETATM   20  C   UNK N   1      31.716  16.745   5.823  0.00  0.00     0.256 C 
HETATM   21  O   UNK N   1      32.048  17.340   4.805  0.00  0.00    -0.267 OA
HETATM   22  H   UNK N   1      30.260  15.687   6.751  0.00  0.00     0.169 HD
BRANCH  20  23
HETATM   23  C   UNK N   1      32.612  16.769   6.987  0.00  0.00     0.032 A 
HETATM   24  C   UNK N   1      33.526  17.822   7.140  0.00  0.00     0.017 A 
HETATM   25  C   UNK N   1      34.378  17.859   8.244  0.00  0.00     0.007 A 
HETATM   26  C   UNK N   1      34.322  16.844   9.200  0.00  0.00    -0.062 A 
HETATM   27  C   UNK N   1      33.412  15.791   9.055  0.00  0.00     0.007 A 
HETATM   28  C   UNK N   1      35.233  16.881  10.372  0.00  0.00     0.048 C 
HETATM   29  C   UNK N   1      32.558  15.754   7.951  0.00  0.00     0.017 A 
ENDBRANCH  20  23
ENDBRANCH   3  19
BRANCH   5  30
HETATM   30  C   UNK N   1      28.545  13.527   2.159  0.00  0.00     0.253 C 
HETATM   31  O   UNK N   1      29.189  13.506   1.116  0.00  0.00    -0.267 OA
HETATM   32  N   UNK N   1      27.774  12.432   2.480  0.00  0.00    -0.357 N 
HETATM   33  C   UNK N   1      26.958  12.358   3.668  0.00  0.00     0.152 C 
HETATM   34  C   UNK N   1      27.728  11.299   1.591  0.00  0.00     0.152 C 
ENDBRANCH   5  30
TORSDOF 6
ENDMDL
