REMARK  10 active torsions:
REMARK  status: ('A' for Active; 'I' for Inactive)
REMARK    1  A    between atoms: C_3  and  C_7 
REMARK    2  A    between atoms: C_7  and  N_9 
REMARK    3  A    between atoms: C_7  and  C_10 
REMARK    4  A    between atoms: C_11  and  N_9 
REMARK    5  A    between atoms: C_11  and  C_12 
REMARK    6  A    between atoms: C_11  and  C_13 
REMARK       I    between atoms: C_12  and  N_16 
REMARK    7  A    between atoms: C_13  and  S_14 
REMARK    8  A    between atoms: S_14  and  C_15 
REMARK    9  A    between atoms: C_18  and  C_15 
REMARK   10  A    between atoms: N_16  and  C_24 
ROOT
HETATM    1  C   UNK N   1      -0.622   3.214  -0.091  0.00  0.00     0.122 A 
HETATM    2  C   UNK N   1       0.077   4.563  -0.043  0.00  0.00     0.050 A 
HETATM    3  C   UNK N   1       0.167   3.680   1.128  0.00  0.00     0.050 A 
HETATM    4  N   UNK N   1      -3.077   4.062  -0.491  0.00  0.00    -0.195 NA
HETATM    5  C   UNK N   1      -1.988   3.691  -0.313  0.00  0.00     0.091 C 
ENDROOT
BRANCH   1   6
HETATM    6  N   UNK N   1       0.043   2.575  -1.219  0.00  0.00    -0.337 N 
HETATM    7  C   UNK N   1       0.568   1.360  -1.646  0.00  0.00     0.242 C 
HETATM    8  O   UNK N   1       1.195   1.397  -2.690  0.00  0.00    -0.271 OA
HETATM    9  H   UNK N   1       0.165   3.241  -1.934  0.00  0.00     0.164 HD
BRANCH   7  10
HETATM   10  C   UNK N   1       0.436  -0.063  -1.022  0.00  0.00     0.184 C 
BRANCH  10  11
HETATM   11  N   UNK N   1       0.438  -0.232   0.439  0.00  0.00    -0.393 N 
HETATM   12  H   UNK N   1      -0.443  -0.262   0.951  0.00  0.00     0.155 HD
BRANCH  11  13
HETATM   13  C   UNK N   1       1.715  -0.357   1.161  0.00  0.00     0.219 C 
BRANCH  13  14
HETATM   14  C   UNK N   1       2.758  -1.311   0.587  0.00  0.00    -0.027 A 
HETATM   15  C   UNK N   1       4.011  -0.842   0.155  0.00  0.00     0.012 A 
HETATM   16  C   UNK N   1       5.035  -1.736  -0.173  0.00  0.00     0.043 A 
HETATM   17  C   UNK N   1       4.830  -3.111  -0.045  0.00  0.00     0.116 A 
HETATM   18  C   UNK N   1       3.586  -3.594   0.374  0.00  0.00     0.043 A 
HETATM   19  F   UNK N   1       5.841  -3.974  -0.312  0.00  0.00    -0.206 F 
HETATM   20  C   UNK N   1       2.554  -2.699   0.689  0.00  0.00     0.012 A 
ENDBRANCH  13  14
BRANCH  13  21
HETATM   21  C   UNK N   1       2.212   1.030   1.523  0.00  0.00     0.411 C 
HETATM   22  F   UNK N   1       2.517   1.762   0.390  0.00  0.00    -0.168 F 
HETATM   23  F   UNK N   1       1.204   1.634   2.241  0.00  0.00    -0.168 F 
HETATM   24  F   UNK N   1       3.321   0.957   2.341  0.00  0.00    -0.168 F 
ENDBRANCH  13  21
ENDBRANCH  11  13
ENDBRANCH  10  11
BRANCH  10  25
HETATM   25  C   UNK N   1      -0.721  -0.879  -1.625  0.00  0.00     0.174 C 
BRANCH  25  26
HETATM   26  S   UNK N   1      -2.202  -0.778  -0.584  0.00  0.00     0.148 S 
HETATM   27  O   UNK N   1      -1.945  -1.608   0.686  0.00  0.00    -0.228 OA
HETATM   28  O   UNK N   1      -3.361  -1.564  -1.218  0.00  0.00    -0.228 OA
BRANCH  26  29
HETATM   29  C   UNK N   1      -2.660   0.901  -0.102  0.00  0.00     0.165 C 
BRANCH  29  30
HETATM   30  C   UNK N   1      -4.033   1.120   0.480  0.00  0.00     0.098 A 
HETATM   31  C   UNK N   1      -4.325   0.153   1.636  0.00  0.00     0.035 A 
HETATM   32  C   UNK N   1      -5.521  -0.701   1.193  0.00  0.00     0.105 A 
HETATM   33  C   UNK N   1      -5.850  -0.110  -0.121  0.00  0.00     0.217 A 
HETATM   34  N   UNK N   1      -5.039   0.871  -0.501  0.00  0.00    -0.356 N 
HETATM   35  O   UNK N   1      -6.777  -0.487  -0.816  0.00  0.00    -0.274 OA
HETATM   36  H   UNK N   1      -5.122   1.362  -1.350  0.00  0.00     0.162 HD
ENDBRANCH  29  30
ENDBRANCH  26  29
ENDBRANCH  25  26
ENDBRANCH  10  25
ENDBRANCH   7  10
ENDBRANCH   1   6
TORSDOF 10
