MODEL 1
REMARK VINA RESULT:      -7.5      0.000      0.000
REMARK  10 active torsions:
REMARK  status: ('A' for Active; 'I' for Inactive)
REMARK    1  A    between atoms: C_3  and  C_7 
REMARK    2  A    between atoms: C_7  and  N_9 
REMARK    3  A    between atoms: C_7  and  C_10 
REMARK    4  A    between atoms: C_11  and  N_9 
REMARK    5  A    between atoms: C_11  and  C_12 
REMARK    6  A    between atoms: C_11  and  C_13 
REMARK       I    between atoms: C_12  and  N_16 
REMARK    7  A    between atoms: C_13  and  S_14 
REMARK    8  A    between atoms: S_14  and  C_15 
REMARK    9  A    between atoms: C_18  and  C_15 
REMARK   10  A    between atoms: N_16  and  C_24 
ROOT
HETATM    1  C   UNK N   1      21.310  19.010   3.480  0.00  0.00     0.122 A 
HETATM    2  C   UNK N   1      19.854  19.099   3.053  0.00  0.00     0.050 A 
HETATM    3  C   UNK N   1      20.654  17.954   2.598  0.00  0.00     0.050 A 
HETATM    4  N   UNK N   1      22.159  21.271   2.442  0.00  0.00    -0.195 NA
HETATM    5  C   UNK N   1      21.779  20.270   2.900  0.00  0.00     0.091 C 
ENDROOT
BRANCH   1   6
HETATM    6  N   UNK N   1      21.191  18.959   4.932  0.00  0.00    -0.337 N 
HETATM    7  C   UNK N   1      21.358  18.114   6.023  0.00  0.00     0.242 C 
HETATM    8  O   UNK N   1      20.946  18.542   7.087  0.00  0.00    -0.271 OA
HETATM    9  H   UNK N   1      20.881  19.836   5.255  0.00  0.00     0.164 HD
BRANCH   7  10
HETATM   10  C   UNK N   1      22.041  16.715   6.111  0.00  0.00     0.184 C 
BRANCH  10  11
HETATM   11  N   UNK N   1      23.488  16.583   5.881  0.00  0.00    -0.393 N 
HETATM   12  H   UNK N   1      24.085  16.176   6.601  0.00  0.00     0.155 HD
BRANCH  11  13
HETATM   13  C   UNK N   1      24.073  17.042   4.611  0.00  0.00     0.219 C 
BRANCH  13  14
HETATM   14  C   UNK N   1      25.210  18.057   4.685  0.00  0.00    -0.027 A 
HETATM   15  C   UNK N   1      25.040  19.373   4.220  0.00  0.00     0.012 A 
HETATM   16  C   UNK N   1      26.005  20.352   4.477  0.00  0.00     0.043 A 
HETATM   17  C   UNK N   1      27.139  20.036   5.228  0.00  0.00     0.116 A 
HETATM   18  C   UNK N   1      27.327  18.729   5.689  0.00  0.00     0.043 A 
HETATM   19  F   UNK N   1      28.046  21.000   5.522  0.00  0.00    -0.206 F 
HETATM   20  C   UNK N   1      26.368  17.743   5.419  0.00  0.00     0.012 A 
ENDBRANCH  13  14
BRANCH  13  21
HETATM   21  C   UNK N   1      24.315  15.839   3.719  0.00  0.00     0.411 C 
HETATM   22  F   UNK N   1      24.811  14.772   4.445  0.00  0.00    -0.168 F 
HETATM   23  F   UNK N   1      23.102  15.522   3.149  0.00  0.00    -0.168 F 
HETATM   24  F   UNK N   1      25.187  16.151   2.697  0.00  0.00    -0.168 F 
ENDBRANCH  13  21
ENDBRANCH  11  13
ENDBRANCH  10  11
BRANCH  10  25
HETATM   25  C   UNK N   1      21.657  15.937   7.382  0.00  0.00     0.174 C 
BRANCH  25  26
HETATM   26  S   UNK N   1      21.329  14.194   7.006  0.00  0.00     0.148 S 
HETATM   27  O   UNK N   1      22.209  13.795   5.808  0.00  0.00    -0.228 OA
HETATM   28  O   UNK N   1      19.924  14.028   6.405  0.00  0.00    -0.228 OA
BRANCH  26  29
HETATM   29  C   UNK N   1      21.656  13.062   8.374  0.00  0.00     0.165 C 
BRANCH  29  30
HETATM   30  C   UNK N   1      22.553  13.540   9.488  0.00  0.00     0.098 A 
HETATM   31  C   UNK N   1      24.017  13.142   9.254  0.00  0.00     0.035 A 
HETATM   32  C   UNK N   1      24.403  12.216  10.416  0.00  0.00     0.105 A 
HETATM   33  C   UNK N   1      23.174  12.224  11.237  0.00  0.00     0.217 A 
HETATM   34  N   UNK N   1      22.177  12.939  10.727  0.00  0.00    -0.356 N 
HETATM   35  O   UNK N   1      23.063  11.622  12.290  0.00  0.00    -0.274 OA
HETATM   36  H   UNK N   1      21.294  13.041  11.149  0.00  0.00     0.162 HD
ENDBRANCH  29  30
ENDBRANCH  26  29
ENDBRANCH  25  26
ENDBRANCH  10  25
ENDBRANCH   7  10
ENDBRANCH   1   6
TORSDOF 10
ENDMDL
MODEL 2
REMARK VINA RESULT:      -7.5      3.727      7.628
REMARK  10 active torsions:
REMARK  status: ('A' for Active; 'I' for Inactive)
REMARK    1  A    between atoms: C_3  and  C_7 
REMARK    2  A    between atoms: C_7  and  N_9 
REMARK    3  A    between atoms: C_7  and  C_10 
REMARK    4  A    between atoms: C_11  and  N_9 
REMARK    5  A    between atoms: C_11  and  C_12 
REMARK    6  A    between atoms: C_11  and  C_13 
REMARK       I    between atoms: C_12  and  N_16 
REMARK    7  A    between atoms: C_13  and  S_14 
REMARK    8  A    between atoms: S_14  and  C_15 
REMARK    9  A    between atoms: C_18  and  C_15 
REMARK   10  A    between atoms: N_16  and  C_24 
ROOT
HETATM    1  C   UNK N   1      18.898  16.862   8.411  0.00  0.00     0.122 A 
HETATM    2  C   UNK N   1      18.237  17.709   9.486  0.00  0.00     0.050 A 
HETATM    3  C   UNK N   1      17.415  17.218   8.372  0.00  0.00     0.050 A 
HETATM    4  N   UNK N   1      20.703  18.594   7.606  0.00  0.00    -0.195 NA
HETATM    5  C   UNK N   1      19.901  17.831   7.965  0.00  0.00     0.091 C 
ENDROOT
BRANCH   1   6
HETATM    6  N   UNK N   1      19.379  15.724   9.183  0.00  0.00    -0.337 N 
HETATM    7  C   UNK N   1      20.106  14.544   9.072  0.00  0.00     0.242 C 
HETATM    8  O   UNK N   1      20.090  13.823  10.054  0.00  0.00    -0.271 OA
HETATM    9  H   UNK N   1      19.084  15.827  10.117  0.00  0.00     0.164 HD
BRANCH   7  10
HETATM   10  C   UNK N   1      20.988  14.018   7.899  0.00  0.00     0.184 C 
BRANCH  10  11
HETATM   11  N   UNK N   1      21.422  12.612   7.874  0.00  0.00    -0.393 N 
HETATM   12  H   UNK N   1      20.766  11.880   7.603  0.00  0.00     0.155 HD
BRANCH  11  13
HETATM   13  C   UNK N   1      22.805  12.265   8.240  0.00  0.00     0.219 C 
BRANCH  13  14
HETATM   14  C   UNK N   1      23.098  12.002   9.714  0.00  0.00    -0.027 A 
HETATM   15  C   UNK N   1      24.386  12.196  10.244  0.00  0.00     0.012 A 
HETATM   16  C   UNK N   1      24.604  12.156  11.624  0.00  0.00     0.043 A 
HETATM   17  C   UNK N   1      23.533  11.952  12.496  0.00  0.00     0.116 A 
HETATM   18  C   UNK N   1      22.247  11.748  11.984  0.00  0.00     0.043 A 
HETATM   19  F   UNK N   1      23.738  11.968  13.836  0.00  0.00    -0.206 F 
HETATM   20  C   UNK N   1      22.030  11.772  10.600  0.00  0.00     0.012 A 
ENDBRANCH  13  14
BRANCH  13  21
HETATM   21  C   UNK N   1      23.325  11.227   7.264  0.00  0.00     0.411 C 
HETATM   22  F   UNK N   1      22.467  11.077   6.190  0.00  0.00    -0.168 F 
HETATM   23  F   UNK N   1      24.562  11.665   6.846  0.00  0.00    -0.168 F 
HETATM   24  F   UNK N   1      23.503  10.010   7.889  0.00  0.00    -0.168 F 
ENDBRANCH  13  21
ENDBRANCH  11  13
ENDBRANCH  10  11
BRANCH  10  25
HETATM   25  C   UNK N   1      20.440  14.404   6.514  0.00  0.00     0.174 C 
BRANCH  25  26
HETATM   26  S   UNK N   1      21.720  15.195   5.503  0.00  0.00     0.148 S 
HETATM   27  O   UNK N   1      22.737  14.114   5.097  0.00  0.00    -0.228 OA
HETATM   28  O   UNK N   1      22.598  16.114   6.367  0.00  0.00    -0.228 OA
BRANCH  26  29
HETATM   29  C   UNK N   1      21.098  16.001   4.012  0.00  0.00     0.165 C 
BRANCH  29  30
HETATM   30  C   UNK N   1      20.500  17.378   4.149  0.00  0.00     0.098 A 
HETATM   31  C   UNK N   1      19.799  17.829   2.860  0.00  0.00     0.035 A 
HETATM   32  C   UNK N   1      20.551  19.074   2.371  0.00  0.00     0.105 A 
HETATM   33  C   UNK N   1      21.552  19.268   3.442  0.00  0.00     0.217 A 
HETATM   34  N   UNK N   1      21.520  18.345   4.397  0.00  0.00    -0.356 N 
HETATM   35  O   UNK N   1      22.353  20.185   3.457  0.00  0.00    -0.274 OA
HETATM   36  H   UNK N   1      22.123  18.331   5.175  0.00  0.00     0.162 HD
ENDBRANCH  29  30
ENDBRANCH  26  29
ENDBRANCH  25  26
ENDBRANCH  10  25
ENDBRANCH   7  10
ENDBRANCH   1   6
TORSDOF 10
ENDMDL
MODEL 3
REMARK VINA RESULT:      -7.3      1.479      1.635
REMARK  10 active torsions:
REMARK  status: ('A' for Active; 'I' for Inactive)
REMARK    1  A    between atoms: C_3  and  C_7 
REMARK    2  A    between atoms: C_7  and  N_9 
REMARK    3  A    between atoms: C_7  and  C_10 
REMARK    4  A    between atoms: C_11  and  N_9 
REMARK    5  A    between atoms: C_11  and  C_12 
REMARK    6  A    between atoms: C_11  and  C_13 
REMARK       I    between atoms: C_12  and  N_16 
REMARK    7  A    between atoms: C_13  and  S_14 
REMARK    8  A    between atoms: S_14  and  C_15 
REMARK    9  A    between atoms: C_18  and  C_15 
REMARK   10  A    between atoms: N_16  and  C_24 
ROOT
HETATM    1  C   UNK N   1      21.202  18.844   3.289  0.00  0.00     0.122 A 
HETATM    2  C   UNK N   1      19.729  18.602   3.003  0.00  0.00     0.050 A 
HETATM    3  C   UNK N   1      20.711  17.621   2.521  0.00  0.00     0.050 A 
HETATM    4  N   UNK N   1      21.458  21.162   2.077  0.00  0.00    -0.195 NA
HETATM    5  C   UNK N   1      21.340  20.134   2.612  0.00  0.00     0.091 C 
ENDROOT
BRANCH   1   6
HETATM    6  N   UNK N   1      21.224  18.859   4.745  0.00  0.00    -0.337 N 
HETATM    7  C   UNK N   1      21.510  18.068   5.853  0.00  0.00     0.242 C 
HETATM    8  O   UNK N   1      21.195  18.540   6.931  0.00  0.00    -0.271 OA
HETATM    9  H   UNK N   1      20.931  19.746   5.057  0.00  0.00     0.164 HD
BRANCH   7  10
HETATM   10  C   UNK N   1      22.222  16.683   5.938  0.00  0.00     0.184 C 
BRANCH  10  11
HETATM   11  N   UNK N   1      23.682  16.593   5.782  0.00  0.00    -0.393 N 
HETATM   12  H   UNK N   1      24.249  16.174   6.519  0.00  0.00     0.155 HD
BRANCH  11  13
HETATM   13  C   UNK N   1      24.323  17.109   4.561  0.00  0.00     0.219 C 
BRANCH  13  14
HETATM   14  C   UNK N   1      25.397  18.179   4.729  0.00  0.00    -0.027 A 
HETATM   15  C   UNK N   1      25.141  19.522   4.402  0.00  0.00     0.012 A 
HETATM   16  C   UNK N   1      26.049  20.528   4.749  0.00  0.00     0.043 A 
HETATM   17  C   UNK N   1      27.210  20.208   5.454  0.00  0.00     0.116 A 
HETATM   18  C   UNK N   1      27.484  18.875   5.778  0.00  0.00     0.043 A 
HETATM   19  F   UNK N   1      28.062  21.191   5.836  0.00  0.00    -0.206 F 
HETATM   20  C   UNK N   1      26.583  17.864   5.417  0.00  0.00     0.012 A 
ENDBRANCH  13  14
BRANCH  13  21
HETATM   21  C   UNK N   1      24.684  15.939   3.665  0.00  0.00     0.411 C 
HETATM   22  F   UNK N   1      25.230  14.900   4.396  0.00  0.00    -0.168 F 
HETATM   23  F   UNK N   1      23.519  15.544   3.045  0.00  0.00    -0.168 F 
HETATM   24  F   UNK N   1      25.569  16.329   2.681  0.00  0.00    -0.168 F 
ENDBRANCH  13  21
ENDBRANCH  11  13
ENDBRANCH  10  11
BRANCH  10  25
HETATM   25  C   UNK N   1      21.791  15.859   7.164  0.00  0.00     0.174 C 
BRANCH  25  26
HETATM   26  S   UNK N   1      21.319  14.176   6.685  0.00  0.00     0.148 S 
HETATM   27  O   UNK N   1      21.946  13.881   5.311  0.00  0.00    -0.228 OA
HETATM   28  O   UNK N   1      19.822  14.112   6.342  0.00  0.00    -0.228 OA
BRANCH  26  29
HETATM   29  C   UNK N   1      21.837  12.897   7.850  0.00  0.00     0.165 C 
BRANCH  29  30
HETATM   30  C   UNK N   1      23.276  12.450   7.815  0.00  0.00     0.098 A 
HETATM   31  C   UNK N   1      23.892  12.393   9.220  0.00  0.00     0.035 A 
HETATM   32  C   UNK N   1      25.041  13.411   9.230  0.00  0.00     0.105 A 
HETATM   33  C   UNK N   1      25.031  13.898   7.835  0.00  0.00     0.217 A 
HETATM   34  N   UNK N   1      24.072  13.377   7.078  0.00  0.00    -0.356 N 
HETATM   35  O   UNK N   1      25.821  14.718   7.403  0.00  0.00    -0.274 OA
HETATM   36  H   UNK N   1      23.929  13.603   6.130  0.00  0.00     0.162 HD
ENDBRANCH  29  30
ENDBRANCH  26  29
ENDBRANCH  25  26
ENDBRANCH  10  25
ENDBRANCH   7  10
ENDBRANCH   1   6
TORSDOF 10
ENDMDL
MODEL 4
REMARK VINA RESULT:      -7.3      2.561      4.781
REMARK  10 active torsions:
REMARK  status: ('A' for Active; 'I' for Inactive)
REMARK    1  A    between atoms: C_3  and  C_7 
REMARK    2  A    between atoms: C_7  and  N_9 
REMARK    3  A    between atoms: C_7  and  C_10 
REMARK    4  A    between atoms: C_11  and  N_9 
REMARK    5  A    between atoms: C_11  and  C_12 
REMARK    6  A    between atoms: C_11  and  C_13 
REMARK       I    between atoms: C_12  and  N_16 
REMARK    7  A    between atoms: C_13  and  S_14 
REMARK    8  A    between atoms: S_14  and  C_15 
REMARK    9  A    between atoms: C_18  and  C_15 
REMARK   10  A    between atoms: N_16  and  C_24 
ROOT
HETATM    1  C   UNK N   1      24.056  17.927   4.789  0.00  0.00     0.122 A 
HETATM    2  C   UNK N   1      25.065  19.034   5.047  0.00  0.00     0.050 A 
HETATM    3  C   UNK N   1      24.485  18.908   3.703  0.00  0.00     0.050 A 
HETATM    4  N   UNK N   1      25.573  15.869   5.398  0.00  0.00    -0.195 NA
HETATM    5  C   UNK N   1      24.905  16.784   5.129  0.00  0.00     0.091 C 
ENDROOT
BRANCH   1   6
HETATM    6  N   UNK N   1      22.998  18.263   5.732  0.00  0.00    -0.337 N 
HETATM    7  C   UNK N   1      21.761  17.834   6.202  0.00  0.00     0.242 C 
HETATM    8  O   UNK N   1      21.180  18.611   6.938  0.00  0.00    -0.271 OA
HETATM    9  H   UNK N   1      23.246  19.090   6.206  0.00  0.00     0.164 HD
BRANCH   7  10
HETATM   10  C   UNK N   1      21.018  16.482   5.974  0.00  0.00     0.184 C 
BRANCH  10  11
HETATM   11  N   UNK N   1      20.475  16.151   4.648  0.00  0.00    -0.393 N 
HETATM   12  H   UNK N   1      19.562  15.705   4.566  0.00  0.00     0.155 HD
BRANCH  11  13
HETATM   13  C   UNK N   1      21.253  16.465   3.438  0.00  0.00     0.219 C 
BRANCH  13  14
HETATM   14  C   UNK N   1      21.704  15.296   2.568  0.00  0.00    -0.027 A 
HETATM   15  C   UNK N   1      20.777  14.368   2.062  0.00  0.00     0.012 A 
HETATM   16  C   UNK N   1      21.160  13.426   1.102  0.00  0.00     0.043 A 
HETATM   17  C   UNK N   1      22.467  13.418   0.612  0.00  0.00     0.116 A 
HETATM   18  C   UNK N   1      23.404  14.329   1.112  0.00  0.00     0.043 A 
HETATM   19  F   UNK N   1      22.822  12.540  -0.357  0.00  0.00    -0.206 F 
HETATM   20  C   UNK N   1      23.025  15.264   2.086  0.00  0.00     0.012 A 
ENDBRANCH  13  14
BRANCH  13  21
HETATM   21  C   UNK N   1      20.585  17.616   2.709  0.00  0.00     0.411 C 
HETATM   22  F   UNK N   1      20.526  17.377   1.348  0.00  0.00    -0.168 F 
HETATM   23  F   UNK N   1      19.321  17.738   3.242  0.00  0.00    -0.168 F 
HETATM   24  F   UNK N   1      21.253  18.801   2.944  0.00  0.00    -0.168 F 
ENDBRANCH  13  21
ENDBRANCH  11  13
ENDBRANCH  10  11
BRANCH  10  25
HETATM   25  C   UNK N   1      21.792  15.270   6.521  0.00  0.00     0.174 C 
BRANCH  25  26
HETATM   26  S   UNK N   1      20.856  14.434   7.830  0.00  0.00     0.148 S 
HETATM   27  O   UNK N   1      20.379  13.079   7.279  0.00  0.00    -0.228 OA
HETATM   28  O   UNK N   1      19.513  15.143   8.068  0.00  0.00    -0.228 OA
BRANCH  26  29
HETATM   29  C   UNK N   1      21.791  14.151   9.349  0.00  0.00     0.165 C 
BRANCH  29  30
HETATM   30  C   UNK N   1      22.109  12.728   9.728  0.00  0.00     0.098 A 
HETATM   31  C   UNK N   1      21.389  12.304  11.016  0.00  0.00     0.035 A 
HETATM   32  C   UNK N   1      22.486  11.981  12.039  0.00  0.00     0.105 A 
HETATM   33  C   UNK N   1      23.716  12.172  11.241  0.00  0.00     0.217 A 
HETATM   34  N   UNK N   1      23.504  12.580   9.994  0.00  0.00    -0.356 N 
HETATM   35  O   UNK N   1      24.838  11.988  11.678  0.00  0.00    -0.274 OA
HETATM   36  H   UNK N   1      24.217  12.756   9.339  0.00  0.00     0.162 HD
ENDBRANCH  29  30
ENDBRANCH  26  29
ENDBRANCH  25  26
ENDBRANCH  10  25
ENDBRANCH   7  10
ENDBRANCH   1   6
TORSDOF 10
ENDMDL
MODEL 5
REMARK VINA RESULT:      -7.3      2.618      3.300
REMARK  10 active torsions:
REMARK  status: ('A' for Active; 'I' for Inactive)
REMARK    1  A    between atoms: C_3  and  C_7 
REMARK    2  A    between atoms: C_7  and  N_9 
REMARK    3  A    between atoms: C_7  and  C_10 
REMARK    4  A    between atoms: C_11  and  N_9 
REMARK    5  A    between atoms: C_11  and  C_12 
REMARK    6  A    between atoms: C_11  and  C_13 
REMARK       I    between atoms: C_12  and  N_16 
REMARK    7  A    between atoms: C_13  and  S_14 
REMARK    8  A    between atoms: S_14  and  C_15 
REMARK    9  A    between atoms: C_18  and  C_15 
REMARK   10  A    between atoms: N_16  and  C_24 
ROOT
HETATM    1  C   UNK N   1      21.065  18.883   2.845  0.00  0.00     0.122 A 
HETATM    2  C   UNK N   1      19.563  18.647   2.864  0.00  0.00     0.050 A 
HETATM    3  C   UNK N   1      20.420  17.680   2.165  0.00  0.00     0.050 A 
HETATM    4  N   UNK N   1      21.074  21.231   1.665  0.00  0.00    -0.195 NA
HETATM    5  C   UNK N   1      21.065  20.191   2.187  0.00  0.00     0.091 C 
ENDROOT
BRANCH   1   6
HETATM    6  N   UNK N   1      21.387  18.862   4.266  0.00  0.00    -0.337 N 
HETATM    7  C   UNK N   1      21.837  18.026   5.283  0.00  0.00     0.242 C 
HETATM    8  O   UNK N   1      21.785  18.493   6.407  0.00  0.00    -0.271 OA
HETATM    9  H   UNK N   1      21.229  19.759   4.640  0.00  0.00     0.164 HD
BRANCH   7  10
HETATM   10  C   UNK N   1      22.450  16.595   5.205  0.00  0.00     0.184 C 
BRANCH  10  11
HETATM   11  N   UNK N   1      23.907  16.420   5.109  0.00  0.00    -0.393 N 
HETATM   12  H   UNK N   1      24.406  15.890   5.823  0.00  0.00     0.155 HD
BRANCH  11  13
HETATM   13  C   UNK N   1      24.644  17.013   3.981  0.00  0.00     0.219 C 
BRANCH  13  14
HETATM   14  C   UNK N   1      25.531  18.219   4.275  0.00  0.00    -0.027 A 
HETATM   15  C   UNK N   1      25.215  19.492   3.769  0.00  0.00     0.012 A 
HETATM   16  C   UNK N   1      25.905  20.627   4.207  0.00  0.00     0.043 A 
HETATM   17  C   UNK N   1      26.900  20.508   5.179  0.00  0.00     0.116 A 
HETATM   18  C   UNK N   1      27.233  19.247   5.684  0.00  0.00     0.043 A 
HETATM   19  F   UNK N   1      27.531  21.616   5.641  0.00  0.00    -0.206 F 
HETATM   20  C   UNK N   1      26.552  18.107   5.235  0.00  0.00     0.012 A 
ENDBRANCH  13  14
BRANCH  13  21
HETATM   21  C   UNK N   1      25.285  15.899   3.174  0.00  0.00     0.411 C 
HETATM   22  F   UNK N   1      25.993  15.036   3.990  0.00  0.00    -0.168 F 
HETATM   23  F   UNK N   1      24.261  15.239   2.532  0.00  0.00    -0.168 F 
HETATM   24  F   UNK N   1      26.122  16.413   2.204  0.00  0.00    -0.168 F 
ENDBRANCH  13  21
ENDBRANCH  11  13
ENDBRANCH  10  11
BRANCH  10  25
HETATM   25  C   UNK N   1      21.895  15.644   6.280  0.00  0.00     0.174 C 
BRANCH  25  26
HETATM   26  S   UNK N   1      20.142  15.284   5.990  0.00  0.00     0.148 S 
HETATM   27  O   UNK N   1      19.895  13.810   6.356  0.00  0.00    -0.228 OA
HETATM   28  O   UNK N   1      19.837  15.267   4.483  0.00  0.00    -0.228 OA
BRANCH  26  29
HETATM   29  C   UNK N   1      19.004  16.320   6.935  0.00  0.00     0.165 C 
BRANCH  29  30
HETATM   30  C   UNK N   1      19.220  16.434   8.422  0.00  0.00     0.098 A 
HETATM   31  C   UNK N   1      17.906  16.696   9.172  0.00  0.00     0.035 A 
HETATM   32  C   UNK N   1      18.062  18.065   9.850  0.00  0.00     0.105 A 
HETATM   33  C   UNK N   1      19.451  18.426   9.497  0.00  0.00     0.217 A 
HETATM   34  N   UNK N   1      20.069  17.541   8.722  0.00  0.00    -0.356 N 
HETATM   35  O   UNK N   1      19.995  19.451   9.867  0.00  0.00    -0.274 OA
HETATM   36  H   UNK N   1      20.993  17.638   8.397  0.00  0.00     0.162 HD
ENDBRANCH  29  30
ENDBRANCH  26  29
ENDBRANCH  25  26
ENDBRANCH  10  25
ENDBRANCH   7  10
ENDBRANCH   1   6
TORSDOF 10
ENDMDL
MODEL 6
REMARK VINA RESULT:      -7.1      6.384      8.730
REMARK  10 active torsions:
REMARK  status: ('A' for Active; 'I' for Inactive)
REMARK    1  A    between atoms: C_3  and  C_7 
REMARK    2  A    between atoms: C_7  and  N_9 
REMARK    3  A    between atoms: C_7  and  C_10 
REMARK    4  A    between atoms: C_11  and  N_9 
REMARK    5  A    between atoms: C_11  and  C_12 
REMARK    6  A    between atoms: C_11  and  C_13 
REMARK       I    between atoms: C_12  and  N_16 
REMARK    7  A    between atoms: C_13  and  S_14 
REMARK    8  A    between atoms: S_14  and  C_15 
REMARK    9  A    between atoms: C_18  and  C_15 
REMARK   10  A    between atoms: N_16  and  C_24 
ROOT
HETATM    1  C   UNK N   1      26.659  19.938   5.268  0.00  0.00     0.122 A 
HETATM    2  C   UNK N   1      25.450  20.196   4.384  0.00  0.00     0.050 A 
HETATM    3  C   UNK N   1      26.792  20.314   3.796  0.00  0.00     0.050 A 
HETATM    4  N   UNK N   1      26.219  21.789   7.080  0.00  0.00    -0.195 NA
HETATM    5  C   UNK N   1      26.410  20.971   6.275  0.00  0.00     0.091 C 
ENDROOT
BRANCH   1   6
HETATM    6  N   UNK N   1      26.439  18.556   5.675  0.00  0.00    -0.337 N 
HETATM    7  C   UNK N   1      27.080  17.328   5.803  0.00  0.00     0.242 C 
HETATM    8  O   UNK N   1      26.356  16.383   6.063  0.00  0.00    -0.271 OA
HETATM    9  H   UNK N   1      25.502  18.455   5.961  0.00  0.00     0.164 HD
BRANCH   7  10
HETATM   10  C   UNK N   1      28.596  16.976   5.717  0.00  0.00     0.184 C 
BRANCH  10  11
HETATM   11  N   UNK N   1      29.569  17.688   6.560  0.00  0.00    -0.393 N 
HETATM   12  H   UNK N   1      30.094  18.475   6.180  0.00  0.00     0.155 HD
BRANCH  11  13
HETATM   13  C   UNK N   1      29.784  17.261   7.952  0.00  0.00     0.219 C 
BRANCH  13  14
HETATM   14  C   UNK N   1      31.223  17.037   8.406  0.00  0.00    -0.027 A 
HETATM   15  C   UNK N   1      31.637  15.797   8.922  0.00  0.00     0.012 A 
HETATM   16  C   UNK N   1      32.992  15.529   9.140  0.00  0.00     0.043 A 
HETATM   17  C   UNK N   1      33.955  16.487   8.817  0.00  0.00     0.116 A 
HETATM   18  C   UNK N   1      33.559  17.730   8.312  0.00  0.00     0.043 A 
HETATM   19  F   UNK N   1      35.271  16.206   8.979  0.00  0.00    -0.206 F 
HETATM   20  C   UNK N   1      32.200  18.005   8.107  0.00  0.00     0.012 A 
ENDBRANCH  13  14
BRANCH  13  21
HETATM   21  C   UNK N   1      28.925  18.115   8.866  0.00  0.00     0.411 C 
HETATM   22  F   UNK N   1      29.595  18.423  10.036  0.00  0.00    -0.168 F 
HETATM   23  F   UNK N   1      28.618  19.258   8.161  0.00  0.00    -0.168 F 
HETATM   24  F   UNK N   1      27.739  17.477   9.164  0.00  0.00    -0.168 F 
ENDBRANCH  13  21
ENDBRANCH  11  13
ENDBRANCH  10  11
BRANCH  10  25
HETATM   25  C   UNK N   1      28.868  15.463   5.797  0.00  0.00     0.174 C 
BRANCH  25  26
HETATM   26  S   UNK N   1      30.368  15.021   4.881  0.00  0.00     0.148 S 
HETATM   27  O   UNK N   1      31.095  16.324   4.505  0.00  0.00    -0.228 OA
HETATM   28  O   UNK N   1      30.009  14.474   3.490  0.00  0.00    -0.228 OA
BRANCH  26  29
HETATM   29  C   UNK N   1      31.510  13.958   5.791  0.00  0.00     0.165 C 
BRANCH  29  30
HETATM   30  C   UNK N   1      32.799  13.564   5.117  0.00  0.00     0.098 A 
HETATM   31  C   UNK N   1      34.008  14.287   5.728  0.00  0.00     0.035 A 
HETATM   32  C   UNK N   1      34.611  15.143   4.605  0.00  0.00     0.105 A 
HETATM   33  C   UNK N   1      33.757  14.785   3.454  0.00  0.00     0.217 A 
HETATM   34  N   UNK N   1      32.778  13.934   3.739  0.00  0.00    -0.356 N 
HETATM   35  O   UNK N   1      33.917  15.233   2.332  0.00  0.00    -0.274 OA
HETATM   36  H   UNK N   1      32.123  13.603   3.083  0.00  0.00     0.162 HD
ENDBRANCH  29  30
ENDBRANCH  26  29
ENDBRANCH  25  26
ENDBRANCH  10  25
ENDBRANCH   7  10
ENDBRANCH   1   6
TORSDOF 10
ENDMDL
MODEL 7
REMARK VINA RESULT:      -6.9     10.329     12.712
REMARK  10 active torsions:
REMARK  status: ('A' for Active; 'I' for Inactive)
REMARK    1  A    between atoms: C_3  and  C_7 
REMARK    2  A    between atoms: C_7  and  N_9 
REMARK    3  A    between atoms: C_7  and  C_10 
REMARK    4  A    between atoms: C_11  and  N_9 
REMARK    5  A    between atoms: C_11  and  C_12 
REMARK    6  A    between atoms: C_11  and  C_13 
REMARK       I    between atoms: C_12  and  N_16 
REMARK    7  A    between atoms: C_13  and  S_14 
REMARK    8  A    between atoms: S_14  and  C_15 
REMARK    9  A    between atoms: C_18  and  C_15 
REMARK   10  A    between atoms: N_16  and  C_24 
ROOT
HETATM    1  C   UNK N   1      34.003  13.842   4.351  0.00  0.00     0.122 A 
HETATM    2  C   UNK N   1      34.263  13.040   3.086  0.00  0.00     0.050 A 
HETATM    3  C   UNK N   1      33.459  14.266   2.991  0.00  0.00     0.050 A 
HETATM    4  N   UNK N   1      32.786  11.980   5.750  0.00  0.00    -0.195 NA
HETATM    5  C   UNK N   1      33.325  12.802   5.126  0.00  0.00     0.091 C 
ENDROOT
BRANCH   1   6
HETATM    6  N   UNK N   1      35.356  14.193   4.763  0.00  0.00    -0.337 N 
HETATM    7  C   UNK N   1      36.104  14.599   5.863  0.00  0.00     0.242 C 
HETATM    8  O   UNK N   1      37.253  14.928   5.624  0.00  0.00    -0.271 OA
HETATM    9  H   UNK N   1      35.955  14.114   3.985  0.00  0.00     0.164 HD
BRANCH   7  10
HETATM   10  C   UNK N   1      35.718  14.651   7.373  0.00  0.00     0.184 C 
BRANCH  10  11
HETATM   11  N   UNK N   1      34.524  15.395   7.804  0.00  0.00    -0.393 N 
HETATM   12  H   UNK N   1      33.874  14.977   8.469  0.00  0.00     0.155 HD
BRANCH  11  13
HETATM   13  C   UNK N   1      34.270  16.745   7.274  0.00  0.00     0.219 C 
BRANCH  13  14
HETATM   14  C   UNK N   1      33.130  16.905   6.273  0.00  0.00    -0.027 A 
HETATM   15  C   UNK N   1      33.304  17.640   5.087  0.00  0.00     0.012 A 
HETATM   16  C   UNK N   1      32.334  17.612   4.080  0.00  0.00     0.043 A 
HETATM   17  C   UNK N   1      31.192  16.824   4.231  0.00  0.00     0.116 A 
HETATM   18  C   UNK N   1      31.000  16.094   5.409  0.00  0.00     0.043 A 
HETATM   19  F   UNK N   1      30.279  16.756   3.231  0.00  0.00    -0.206 F 
HETATM   20  C   UNK N   1      31.964  16.134   6.426  0.00  0.00     0.012 A 
ENDBRANCH  13  14
BRANCH  13  21
HETATM   21  C   UNK N   1      34.287  17.735   8.424  0.00  0.00     0.411 C 
HETATM   22  F   UNK N   1      33.004  18.092   8.794  0.00  0.00    -0.168 F 
HETATM   23  F   UNK N   1      34.945  17.118   9.464  0.00  0.00    -0.168 F 
HETATM   24  F   UNK N   1      35.005  18.865   8.088  0.00  0.00    -0.168 F 
ENDBRANCH  13  21
ENDBRANCH  11  13
ENDBRANCH  10  11
BRANCH  10  25
HETATM   25  C   UNK N   1      35.721  13.266   8.043  0.00  0.00     0.174 C 
BRANCH  25  26
HETATM   26  S   UNK N   1      36.579  13.316   9.639  0.00  0.00     0.148 S 
HETATM   27  O   UNK N   1      37.007  14.771   9.901  0.00  0.00    -0.228 OA
HETATM   28  O   UNK N   1      37.947  12.623   9.537  0.00  0.00    -0.228 OA
BRANCH  26  29
HETATM   29  C   UNK N   1      35.590  12.737  11.034  0.00  0.00     0.165 C 
BRANCH  29  30
HETATM   30  C   UNK N   1      36.285  12.526  12.355  0.00  0.00     0.098 A 
HETATM   31  C   UNK N   1      35.299  12.136  13.465  0.00  0.00     0.035 A 
HETATM   32  C   UNK N   1      35.367  13.253  14.515  0.00  0.00     0.105 A 
HETATM   33  C   UNK N   1      36.420  14.130  13.962  0.00  0.00     0.217 A 
HETATM   34  N   UNK N   1      36.909  13.732  12.792  0.00  0.00    -0.356 N 
HETATM   35  O   UNK N   1      36.811  15.144  14.513  0.00  0.00    -0.274 OA
HETATM   36  H   UNK N   1      37.610  14.209  12.293  0.00  0.00     0.162 HD
ENDBRANCH  29  30
ENDBRANCH  26  29
ENDBRANCH  25  26
ENDBRANCH  10  25
ENDBRANCH   7  10
ENDBRANCH   1   6
TORSDOF 10
ENDMDL
MODEL 8
REMARK VINA RESULT:      -6.9      3.064      7.013
REMARK  10 active torsions:
REMARK  status: ('A' for Active; 'I' for Inactive)
REMARK    1  A    between atoms: C_3  and  C_7 
REMARK    2  A    between atoms: C_7  and  N_9 
REMARK    3  A    between atoms: C_7  and  C_10 
REMARK    4  A    between atoms: C_11  and  N_9 
REMARK    5  A    between atoms: C_11  and  C_12 
REMARK    6  A    between atoms: C_11  and  C_13 
REMARK       I    between atoms: C_12  and  N_16 
REMARK    7  A    between atoms: C_13  and  S_14 
REMARK    8  A    between atoms: S_14  and  C_15 
REMARK    9  A    between atoms: C_18  and  C_15 
REMARK   10  A    between atoms: N_16  and  C_24 
ROOT
HETATM    1  C   UNK N   1      21.460  18.148   3.919  0.00  0.00     0.122 A 
HETATM    2  C   UNK N   1      20.046  18.399   3.419  0.00  0.00     0.050 A 
HETATM    3  C   UNK N   1      20.764  17.210   2.939  0.00  0.00     0.050 A 
HETATM    4  N   UNK N   1      22.573  20.372   3.070  0.00  0.00    -0.195 NA
HETATM    5  C   UNK N   1      22.076  19.388   3.444  0.00  0.00     0.091 C 
ENDROOT
BRANCH   1   6
HETATM    6  N   UNK N   1      21.250  18.027   5.356  0.00  0.00    -0.337 N 
HETATM    7  C   UNK N   1      21.399  17.146   6.421  0.00  0.00     0.242 C 
HETATM    8  O   UNK N   1      20.892  17.502   7.471  0.00  0.00    -0.271 OA
HETATM    9  H   UNK N   1      20.864  18.868   5.692  0.00  0.00     0.164 HD
BRANCH   7  10
HETATM   10  C   UNK N   1      22.162  15.789   6.500  0.00  0.00     0.184 C 
BRANCH  10  11
HETATM   11  N   UNK N   1      21.465  14.574   6.950  0.00  0.00    -0.393 N 
HETATM   12  H   UNK N   1      20.448  14.562   7.011  0.00  0.00     0.155 HD
BRANCH  11  13
HETATM   13  C   UNK N   1      22.240  13.376   7.312  0.00  0.00     0.219 C 
BRANCH  13  14
HETATM   14  C   UNK N   1      22.438  13.087   8.797  0.00  0.00    -0.027 A 
HETATM   15  C   UNK N   1      21.342  12.826   9.638  0.00  0.00     0.012 A 
HETATM   16  C   UNK N   1      21.536  12.360  10.942  0.00  0.00     0.043 A 
HETATM   17  C   UNK N   1      22.828  12.120  11.414  0.00  0.00     0.116 A 
HETATM   18  C   UNK N   1      23.929  12.384  10.593  0.00  0.00     0.043 A 
HETATM   19  F   UNK N   1      23.011  11.618  12.659  0.00  0.00    -0.206 F 
HETATM   20  C   UNK N   1      23.736  12.866   9.290  0.00  0.00     0.012 A 
ENDBRANCH  13  14
BRANCH  13  21
HETATM   21  C   UNK N   1      21.764  12.209   6.467  0.00  0.00     0.411 C 
HETATM   22  F   UNK N   1      20.383  12.177   6.394  0.00  0.00    -0.168 F 
HETATM   23  F   UNK N   1      22.318  12.376   5.218  0.00  0.00    -0.168 F 
HETATM   24  F   UNK N   1      22.229  11.013   6.974  0.00  0.00    -0.168 F 
ENDBRANCH  13  21
ENDBRANCH  11  13
ENDBRANCH  10  11
BRANCH  10  25
HETATM   25  C   UNK N   1      22.959  15.472   5.223  0.00  0.00     0.174 C 
BRANCH  25  26
HETATM   26  S   UNK N   1      24.694  15.971   5.396  0.00  0.00     0.148 S 
HETATM   27  O   UNK N   1      25.527  15.138   4.406  0.00  0.00    -0.228 OA
HETATM   28  O   UNK N   1      25.263  15.486   6.739  0.00  0.00    -0.228 OA
BRANCH  26  29
HETATM   29  C   UNK N   1      24.998  17.724   5.085  0.00  0.00     0.165 C 
BRANCH  29  30
HETATM   30  C   UNK N   1      26.050  18.090   4.069  0.00  0.00     0.098 A 
HETATM   31  C   UNK N   1      27.267  18.761   4.721  0.00  0.00     0.035 A 
HETATM   32  C   UNK N   1      27.345  20.177   4.134  0.00  0.00     0.105 A 
HETATM   33  C   UNK N   1      26.233  20.167   3.160  0.00  0.00     0.217 A 
HETATM   34  N   UNK N   1      25.536  19.037   3.134  0.00  0.00    -0.356 N 
HETATM   35  O   UNK N   1      25.958  21.113   2.443  0.00  0.00    -0.274 OA
HETATM   36  H   UNK N   1      24.764  18.876   2.545  0.00  0.00     0.162 HD
ENDBRANCH  29  30
ENDBRANCH  26  29
ENDBRANCH  25  26
ENDBRANCH  10  25
ENDBRANCH   7  10
ENDBRANCH   1   6
TORSDOF 10
ENDMDL
MODEL 9
REMARK VINA RESULT:      -6.9     11.433     13.796
REMARK  10 active torsions:
REMARK  status: ('A' for Active; 'I' for Inactive)
REMARK    1  A    between atoms: C_3  and  C_7 
REMARK    2  A    between atoms: C_7  and  N_9 
REMARK    3  A    between atoms: C_7  and  C_10 
REMARK    4  A    between atoms: C_11  and  N_9 
REMARK    5  A    between atoms: C_11  and  C_12 
REMARK    6  A    between atoms: C_11  and  C_13 
REMARK       I    between atoms: C_12  and  N_16 
REMARK    7  A    between atoms: C_13  and  S_14 
REMARK    8  A    between atoms: S_14  and  C_15 
REMARK    9  A    between atoms: C_18  and  C_15 
REMARK   10  A    between atoms: N_16  and  C_24 
ROOT
HETATM    1  C   UNK N   1      33.194  17.024   8.302  0.00  0.00     0.122 A 
HETATM    2  C   UNK N   1      32.333  18.260   8.505  0.00  0.00     0.050 A 
HETATM    3  C   UNK N   1      31.685  16.941   8.509  0.00  0.00     0.050 A 
HETATM    4  N   UNK N   1      34.182  17.622   5.942  0.00  0.00    -0.195 NA
HETATM    5  C   UNK N   1      33.741  17.361   6.987  0.00  0.00     0.091 C 
ENDROOT
BRANCH   1   6
HETATM    6  N   UNK N   1      34.106  17.108   9.435  0.00  0.00    -0.337 N 
HETATM    7  C   UNK N   1      34.735  16.333  10.405  0.00  0.00     0.242 C 
HETATM    8  O   UNK N   1      35.319  16.955  11.274  0.00  0.00    -0.271 OA
HETATM    9  H   UNK N   1      34.372  18.048   9.560  0.00  0.00     0.164 HD
BRANCH   7  10
HETATM   10  C   UNK N   1      34.854  14.783  10.526  0.00  0.00     0.184 C 
BRANCH  10  11
HETATM   11  N   UNK N   1      34.846  14.144  11.851  0.00  0.00    -0.393 N 
HETATM   12  H   UNK N   1      33.966  13.842  12.267  0.00  0.00     0.155 HD
BRANCH  11  13
HETATM   13  C   UNK N   1      36.112  13.940  12.575  0.00  0.00     0.219 C 
BRANCH  13  14
HETATM   14  C   UNK N   1      36.031  13.688  14.077  0.00  0.00    -0.027 A 
HETATM   15  C   UNK N   1      36.803  14.437  14.982  0.00  0.00     0.012 A 
HETATM   16  C   UNK N   1      36.576  14.351  16.359  0.00  0.00     0.043 A 
HETATM   17  C   UNK N   1      35.554  13.536  16.849  0.00  0.00     0.116 A 
HETATM   18  C   UNK N   1      34.783  12.777  15.963  0.00  0.00     0.043 A 
HETATM   19  F   UNK N   1      35.300  13.494  18.180  0.00  0.00    -0.206 F 
HETATM   20  C   UNK N   1      35.019  12.852  14.583  0.00  0.00     0.012 A 
ENDBRANCH  13  14
BRANCH  13  21
HETATM   21  C   UNK N   1      36.980  12.978  11.786  0.00  0.00     0.411 C 
HETATM   22  F   UNK N   1      36.208  12.058  11.100  0.00  0.00    -0.168 F 
HETATM   23  F   UNK N   1      37.723  13.742  10.914  0.00  0.00    -0.168 F 
HETATM   24  F   UNK N   1      37.861  12.317  12.617  0.00  0.00    -0.168 F 
ENDBRANCH  13  21
ENDBRANCH  11  13
ENDBRANCH  10  11
BRANCH  10  25
HETATM   25  C   UNK N   1      33.889  14.031   9.594  0.00  0.00     0.174 C 
BRANCH  25  26
HETATM   26  S   UNK N   1      34.774  13.307   8.187  0.00  0.00     0.148 S 
HETATM   27  O   UNK N   1      36.206  13.870   8.187  0.00  0.00    -0.228 OA
HETATM   28  O   UNK N   1      34.237  13.873   6.863  0.00  0.00    -0.228 OA
BRANCH  26  29
HETATM   29  C   UNK N   1      34.856  11.503   8.207  0.00  0.00     0.165 C 
BRANCH  29  30
HETATM   30  C   UNK N   1      34.093  10.772   9.283  0.00  0.00     0.098 A 
HETATM   31  C   UNK N   1      34.510   9.298   9.379  0.00  0.00     0.035 A 
HETATM   32  C   UNK N   1      33.260   8.473   9.045  0.00  0.00     0.105 A 
HETATM   33  C   UNK N   1      32.238   9.524   8.863  0.00  0.00     0.217 A 
HETATM   34  N   UNK N   1      32.697  10.764   8.989  0.00  0.00    -0.356 N 
HETATM   35  O   UNK N   1      31.070   9.291   8.606  0.00  0.00    -0.274 OA
HETATM   36  H   UNK N   1      32.144  11.573   8.892  0.00  0.00     0.162 HD
ENDBRANCH  29  30
ENDBRANCH  26  29
ENDBRANCH  25  26
ENDBRANCH  10  25
ENDBRANCH   7  10
ENDBRANCH   1   6
TORSDOF 10
ENDMDL
