MODEL 1
REMARK VINA RESULT:      -8.4      0.000      0.000
REMARK  6 active torsions:
REMARK  status: ('A' for Active; 'I' for Inactive)
REMARK    1  A    between atoms: C_9  and  C_10 
REMARK    2  A    between atoms: C_11  and  C_12 
REMARK    3  A    between atoms: C_12  and  O_14 
REMARK    4  A    between atoms: C_16  and  C_17 
REMARK    5  A    between atoms: C_17  and  O_19 
REMARK    6  A    between atoms: C_20  and  C_21 
ROOT
HETATM    1  C   UNK N   1      29.798  17.277   7.077  0.00  0.00     0.024 A 
HETATM    2  C   UNK N   1      29.682  17.529   8.446  0.00  0.00     0.119 A 
HETATM    3  N   UNK N   1      30.900  17.736   8.980  0.00  0.00    -0.344 N 
HETATM    4  C   UNK N   1      31.809  17.634   7.993  0.00  0.00     0.119 A 
HETATM    5  C   UNK N   1      31.167  17.348   6.775  0.00  0.00     0.024 A 
HETATM    6  H   UNK N   1      31.093  17.929   9.926  0.00  0.00     0.166 HD
ENDROOT
BRANCH   1   7
HETATM    7  C   UNK N   1      28.701  17.028   6.096  0.00  0.00     0.005 A 
HETATM    8  C   UNK N   1      27.985  17.927   5.326  0.00  0.00     0.003 A 
HETATM    9  C   UNK N   1      27.093  17.191   4.593  0.00  0.00     0.043 A 
HETATM   10  C   UNK N   1      28.013  19.319   5.245  0.00  0.00     0.014 A 
HETATM   11  C   UNK N   1      26.194  17.782   3.709  0.00  0.00     0.030 A 
HETATM   12  N   UNK N   1      27.203  15.881   4.862  0.00  0.00    -0.364 N 
HETATM   13  C   UNK N   1      26.218  19.183   3.589  0.00  0.00     0.002 A 
HETATM   14  C   UNK N   1      27.121  19.949   4.358  0.00  0.00     0.001 A 
HETATM   15  C   UNK N   1      28.183  15.768   5.791  0.00  0.00     0.101 A 
HETATM   16  H   UNK N   1      26.677  15.150   4.466  0.00  0.00     0.165 HD
ENDBRANCH   1   7
BRANCH   2  17
HETATM   17  C   UNK N   1      28.467  17.666   9.277  0.00  0.00     0.194 C 
HETATM   18  O   UNK N   1      28.283  16.897  10.206  0.00  0.00    -0.645 OA
BRANCH  17  19
HETATM   19  O   UNK N   1      27.604  18.680   9.092  0.00  0.00    -0.772 OA
HETATM   20  H   UNK N   1      26.878  18.867   9.654  0.00  0.00     0.167 HD
ENDBRANCH  17  19
ENDBRANCH   2  17
BRANCH   5  21
HETATM   21  C   UNK N   1      31.757  17.055   5.427  0.00  0.00     0.005 A 
HETATM   22  C   UNK N   1      32.614  16.057   4.983  0.00  0.00     0.003 A 
HETATM   23  C   UNK N   1      33.277  15.017   5.638  0.00  0.00     0.014 A 
HETATM   24  C   UNK N   1      32.795  16.263   3.639  0.00  0.00     0.043 A 
HETATM   25  C   UNK N   1      34.103  14.168   4.877  0.00  0.00     0.001 A 
HETATM   26  C   UNK N   1      34.263  14.380   3.490  0.00  0.00     0.002 A 
HETATM   27  C   UNK N   1      33.607  15.447   2.858  0.00  0.00     0.030 A 
HETATM   28  N   UNK N   1      32.110  17.334   3.214  0.00  0.00    -0.364 N 
HETATM   29  C   UNK N   1      31.474  17.830   4.300  0.00  0.00     0.101 A 
HETATM   30  H   UNK N   1      32.075  17.689   2.296  0.00  0.00     0.165 HD
ENDBRANCH   5  21
BRANCH   4  31
HETATM   31  C   UNK N   1      33.250  17.729   8.317  0.00  0.00     0.194 C 
HETATM   32  O   UNK N   1      34.026  18.326   7.599  0.00  0.00    -0.645 OA
BRANCH  31  33
HETATM   33  O   UNK N   1      33.723  17.073   9.394  0.00  0.00    -0.772 OA
HETATM   34  H   UNK N   1      33.407  17.286  10.251  0.00  0.00     0.167 HD
ENDBRANCH  31  33
ENDBRANCH   4  31
TORSDOF 6
ENDMDL
MODEL 2
REMARK VINA RESULT:      -8.3      0.090      5.910
REMARK  6 active torsions:
REMARK  status: ('A' for Active; 'I' for Inactive)
REMARK    1  A    between atoms: C_9  and  C_10 
REMARK    2  A    between atoms: C_11  and  C_12 
REMARK    3  A    between atoms: C_12  and  O_14 
REMARK    4  A    between atoms: C_16  and  C_17 
REMARK    5  A    between atoms: C_17  and  O_19 
REMARK    6  A    between atoms: C_20  and  C_21 
ROOT
HETATM    1  C   UNK N   1      31.119  17.292   6.772  0.00  0.00     0.024 A 
HETATM    2  C   UNK N   1      31.790  17.578   7.963  0.00  0.00     0.119 A 
HETATM    3  N   UNK N   1      30.906  17.698   8.972  0.00  0.00    -0.344 N 
HETATM    4  C   UNK N   1      29.675  17.490   8.471  0.00  0.00     0.119 A 
HETATM    5  C   UNK N   1      29.754  17.228   7.092  0.00  0.00     0.024 A 
HETATM    6  H   UNK N   1      31.122  17.901   9.910  0.00  0.00     0.166 HD
ENDROOT
BRANCH   1   7
HETATM    7  C   UNK N   1      31.711  17.049   5.424  0.00  0.00     0.005 A 
HETATM    8  C   UNK N   1      32.537  16.026   4.995  0.00  0.00     0.003 A 
HETATM    9  C   UNK N   1      32.798  16.262   3.671  0.00  0.00     0.043 A 
HETATM   10  C   UNK N   1      33.111  14.943   5.663  0.00  0.00     0.014 A 
HETATM   11  C   UNK N   1      33.616  15.425   2.917  0.00  0.00     0.030 A 
HETATM   12  N   UNK N   1      32.188  17.378   3.246  0.00  0.00    -0.364 N 
HETATM   13  C   UNK N   1      34.188  14.313   3.559  0.00  0.00     0.002 A 
HETATM   14  C   UNK N   1      33.940  14.076   4.929  0.00  0.00     0.001 A 
HETATM   15  C   UNK N   1      31.523  17.876   4.316  0.00  0.00     0.101 A 
HETATM   16  H   UNK N   1      32.218  17.760   2.339  0.00  0.00     0.165 HD
ENDBRANCH   1   7
BRANCH   2  17
HETATM   17  C   UNK N   1      33.243  17.667   8.227  0.00  0.00     0.194 C 
HETATM   18  O   UNK N   1      33.954  18.301   7.465  0.00  0.00    -0.645 OA
BRANCH  17  19
HETATM   19  O   UNK N   1      33.785  17.143   9.340  0.00  0.00    -0.772 OA
HETATM   20  H   UNK N   1      34.687  17.225   9.579  0.00  0.00     0.167 HD
ENDBRANCH  17  19
ENDBRANCH   2  17
BRANCH   5  21
HETATM   21  C   UNK N   1      28.655  17.030   6.090  0.00  0.00     0.005 A 
HETATM   22  C   UNK N   1      27.927  17.925   5.316  0.00  0.00     0.003 A 
HETATM   23  C   UNK N   1      27.914  19.319   5.241  0.00  0.00     0.014 A 
HETATM   24  C   UNK N   1      27.068  17.176   4.553  0.00  0.00     0.043 A 
HETATM   25  C   UNK N   1      27.025  19.930   4.336  0.00  0.00     0.001 A 
HETATM   26  C   UNK N   1      26.161  19.146   3.541  0.00  0.00     0.002 A 
HETATM   27  C   UNK N   1      26.174  17.747   3.653  0.00  0.00     0.030 A 
HETATM   28  N   UNK N   1      27.206  15.867   4.806  0.00  0.00    -0.364 N 
HETATM   29  C   UNK N   1      28.171  15.765   5.748  0.00  0.00     0.101 A 
HETATM   30  H   UNK N   1      26.706  15.128   4.389  0.00  0.00     0.165 HD
ENDBRANCH   5  21
BRANCH   4  31
HETATM   31  C   UNK N   1      28.495  17.652   9.349  0.00  0.00     0.194 C 
HETATM   32  O   UNK N   1      28.256  16.869  10.247  0.00  0.00    -0.645 OA
BRANCH  31  33
HETATM   33  O   UNK N   1      27.624  18.649   9.099  0.00  0.00    -0.772 OA
HETATM   34  H   UNK N   1      27.661  19.442   9.597  0.00  0.00     0.167 HD
ENDBRANCH  31  33
ENDBRANCH   4  31
TORSDOF 6
ENDMDL
MODEL 3
REMARK VINA RESULT:      -7.8     12.281     14.696
REMARK  6 active torsions:
REMARK  status: ('A' for Active; 'I' for Inactive)
REMARK    1  A    between atoms: C_9  and  C_10 
REMARK    2  A    between atoms: C_11  and  C_12 
REMARK    3  A    between atoms: C_12  and  O_14 
REMARK    4  A    between atoms: C_16  and  C_17 
REMARK    5  A    between atoms: C_17  and  O_19 
REMARK    6  A    between atoms: C_20  and  C_21 
ROOT
HETATM    1  C   UNK N   1      27.739  23.312  -6.066  0.00  0.00     0.024 A 
HETATM    2  C   UNK N   1      26.575  23.705  -5.401  0.00  0.00     0.119 A 
HETATM    3  N   UNK N   1      25.495  23.199  -6.025  0.00  0.00    -0.344 N 
HETATM    4  C   UNK N   1      25.924  22.479  -7.078  0.00  0.00     0.119 A 
HETATM    5  C   UNK N   1      27.328  22.516  -7.147  0.00  0.00     0.024 A 
HETATM    6  H   UNK N   1      24.557  23.332  -5.759  0.00  0.00     0.166 HD
ENDROOT
BRANCH   1   7
HETATM    7  C   UNK N   1      29.152  23.620  -5.697  0.00  0.00     0.005 A 
HETATM    8  C   UNK N   1      30.103  22.813  -5.100  0.00  0.00     0.003 A 
HETATM    9  C   UNK N   1      31.238  23.569  -4.980  0.00  0.00     0.043 A 
HETATM   10  C   UNK N   1      30.051  21.505  -4.617  0.00  0.00     0.014 A 
HETATM   11  C   UNK N   1      32.404  23.070  -4.404  0.00  0.00     0.030 A 
HETATM   12  N   UNK N   1      31.053  24.807  -5.462  0.00  0.00    -0.364 N 
HETATM   13  C   UNK N   1      32.386  21.746  -3.931  0.00  0.00     0.002 A 
HETATM   14  C   UNK N   1      31.213  20.968  -4.033  0.00  0.00     0.001 A 
HETATM   15  C   UNK N   1      29.772  24.854  -5.899  0.00  0.00     0.101 A 
HETATM   16  H   UNK N   1      31.715  25.536  -5.492  0.00  0.00     0.165 HD
ENDBRANCH   1   7
BRANCH   2  17
HETATM   17  C   UNK N   1      26.423  24.475  -4.146  0.00  0.00     0.194 C 
HETATM   18  O   UNK N   1      26.086  25.646  -4.197  0.00  0.00    -0.645 OA
BRANCH  17  19
HETATM   19  O   UNK N   1      26.555  23.886  -2.945  0.00  0.00    -0.772 OA
HETATM   20  H   UNK N   1      26.889  24.312  -2.181  0.00  0.00     0.167 HD
ENDBRANCH  17  19
ENDBRANCH   2  17
BRANCH   5  21
HETATM   21  C   UNK N   1      28.251  21.950  -8.185  0.00  0.00     0.005 A 
HETATM   22  C   UNK N   1      28.833  20.698  -8.329  0.00  0.00     0.003 A 
HETATM   23  C   UNK N   1      28.819  19.549  -7.536  0.00  0.00     0.014 A 
HETATM   24  C   UNK N   1      29.565  20.736  -9.489  0.00  0.00     0.043 A 
HETATM   25  C   UNK N   1      29.542  18.425  -7.976  0.00  0.00     0.001 A 
HETATM   26  C   UNK N   1      30.274  18.472  -9.183  0.00  0.00     0.002 A 
HETATM   27  C   UNK N   1      30.295  19.646  -9.951  0.00  0.00     0.030 A 
HETATM   28  N   UNK N   1      29.484  21.938 -10.077  0.00  0.00    -0.364 N 
HETATM   29  C   UNK N   1      28.687  22.691  -9.286  0.00  0.00     0.101 A 
HETATM   30  H   UNK N   1      29.917  22.217 -10.916  0.00  0.00     0.165 HD
ENDBRANCH   5  21
BRANCH   4  31
HETATM   31  C   UNK N   1      24.935  21.880  -8.001  0.00  0.00     0.194 C 
HETATM   32  O   UNK N   1      23.872  22.419  -8.234  0.00  0.00    -0.645 OA
BRANCH  31  33
HETATM   33  O   UNK N   1      25.190  20.671  -8.538  0.00  0.00    -0.772 OA
HETATM   34  H   UNK N   1      24.926  20.481  -9.417  0.00  0.00     0.167 HD
ENDBRANCH  31  33
ENDBRANCH   4  31
TORSDOF 6
ENDMDL
MODEL 4
REMARK VINA RESULT:      -7.8     12.257     14.578
REMARK  6 active torsions:
REMARK  status: ('A' for Active; 'I' for Inactive)
REMARK    1  A    between atoms: C_9  and  C_10 
REMARK    2  A    between atoms: C_11  and  C_12 
REMARK    3  A    between atoms: C_12  and  O_14 
REMARK    4  A    between atoms: C_16  and  C_17 
REMARK    5  A    between atoms: C_17  and  O_19 
REMARK    6  A    between atoms: C_20  and  C_21 
ROOT
HETATM    1  C   UNK N   1      27.428  22.717  -7.098  0.00  0.00     0.024 A 
HETATM    2  C   UNK N   1      26.032  22.720  -7.049  0.00  0.00     0.119 A 
HETATM    3  N   UNK N   1      25.611  23.363  -5.944  0.00  0.00    -0.344 N 
HETATM    4  C   UNK N   1      26.697  23.787  -5.272  0.00  0.00     0.119 A 
HETATM    5  C   UNK N   1      27.865  23.409  -5.957  0.00  0.00     0.024 A 
HETATM    6  H   UNK N   1      24.675  23.499  -5.674  0.00  0.00     0.166 HD
ENDROOT
BRANCH   1   7
HETATM    7  C   UNK N   1      28.305  22.145  -8.160  0.00  0.00     0.005 A 
HETATM    8  C   UNK N   1      28.805  20.863  -8.296  0.00  0.00     0.003 A 
HETATM    9  C   UNK N   1      29.555  20.853  -9.441  0.00  0.00     0.043 A 
HETATM   10  C   UNK N   1      28.699  19.727  -7.492  0.00  0.00     0.014 A 
HETATM   11  C   UNK N   1      30.222  19.713  -9.881  0.00  0.00     0.030 A 
HETATM   12  N   UNK N   1      29.562  22.059 -10.030  0.00  0.00    -0.364 N 
HETATM   13  C   UNK N   1      30.112  18.547  -9.102  0.00  0.00     0.002 A 
HETATM   14  C   UNK N   1      29.357  18.556  -7.909  0.00  0.00     0.001 A 
HETATM   15  C   UNK N   1      28.803  22.864  -9.248  0.00  0.00     0.101 A 
HETATM   16  H   UNK N   1      30.024  22.308 -10.862  0.00  0.00     0.165 HD
ENDBRANCH   1   7
BRANCH   2  17
HETATM   17  C   UNK N   1      25.055  22.214  -8.038  0.00  0.00     0.194 C 
HETATM   18  O   UNK N   1      24.306  22.997  -8.598  0.00  0.00    -0.645 OA
BRANCH  17  19
HETATM   19  O   UNK N   1      25.038  20.921  -8.405  0.00  0.00    -0.772 OA
HETATM   20  H   UNK N   1      25.068  20.201  -7.807  0.00  0.00     0.167 HD
ENDBRANCH  17  19
ENDBRANCH   2  17
BRANCH   5  21
HETATM   21  C   UNK N   1      29.303  23.570  -5.560  0.00  0.00     0.005 A 
HETATM   22  C   UNK N   1      30.233  22.676  -5.044  0.00  0.00     0.003 A 
HETATM   23  C   UNK N   1      30.146  21.339  -4.655  0.00  0.00     0.014 A 
HETATM   24  C   UNK N   1      31.407  23.371  -4.901  0.00  0.00     0.043 A 
HETATM   25  C   UNK N   1      31.302  20.715  -4.149  0.00  0.00     0.001 A 
HETATM   26  C   UNK N   1      32.509  21.436  -4.027  0.00  0.00     0.002 A 
HETATM   27  C   UNK N   1      32.566  22.787  -4.400  0.00  0.00     0.030 A 
HETATM   28  N   UNK N   1      31.270  24.647  -5.288  0.00  0.00    -0.364 N 
HETATM   29  C   UNK N   1      29.985  24.782  -5.689  0.00  0.00     0.101 A 
HETATM   30  H   UNK N   1      31.964  25.346  -5.282  0.00  0.00     0.165 HD
ENDBRANCH   5  21
BRANCH   4  31
HETATM   31  C   UNK N   1      26.528  24.452  -3.961  0.00  0.00     0.194 C 
HETATM   32  O   UNK N   1      26.621  23.836  -2.918  0.00  0.00    -0.645 OA
BRANCH  31  33
HETATM   33  O   UNK N   1      26.191  25.755  -3.925  0.00  0.00    -0.772 OA
HETATM   34  H   UNK N   1      25.316  26.008  -3.703  0.00  0.00     0.167 HD
ENDBRANCH  31  33
ENDBRANCH   4  31
TORSDOF 6
ENDMDL
MODEL 5
REMARK VINA RESULT:      -7.7      1.286      2.020
REMARK  6 active torsions:
REMARK  status: ('A' for Active; 'I' for Inactive)
REMARK    1  A    between atoms: C_9  and  C_10 
REMARK    2  A    between atoms: C_11  and  C_12 
REMARK    3  A    between atoms: C_12  and  O_14 
REMARK    4  A    between atoms: C_16  and  C_17 
REMARK    5  A    between atoms: C_17  and  O_19 
REMARK    6  A    between atoms: C_20  and  C_21 
ROOT
HETATM    1  C   UNK N   1      29.794  17.215   6.930  0.00  0.00     0.024 A 
HETATM    2  C   UNK N   1      29.513  17.362   8.291  0.00  0.00     0.119 A 
HETATM    3  N   UNK N   1      30.632  17.173   9.015  0.00  0.00    -0.344 N 
HETATM    4  C   UNK N   1      31.639  16.914   8.161  0.00  0.00     0.119 A 
HETATM    5  C   UNK N   1      31.166  16.931   6.838  0.00  0.00     0.024 A 
HETATM    6  H   UNK N   1      30.702  17.218   9.995  0.00  0.00     0.166 HD
ENDROOT
BRANCH   1   7
HETATM    7  C   UNK N   1      28.857  17.371   5.780  0.00  0.00     0.005 A 
HETATM    8  C   UNK N   1      28.206  16.403   5.035  0.00  0.00     0.003 A 
HETATM    9  C   UNK N   1      27.462  17.066   4.097  0.00  0.00     0.043 A 
HETATM   10  C   UNK N   1      28.243  15.009   5.076  0.00  0.00     0.014 A 
HETATM   11  C   UNK N   1      26.681  16.394   3.160  0.00  0.00     0.030 A 
HETATM   12  N   UNK N   1      27.612  18.395   4.205  0.00  0.00    -0.364 N 
HETATM   13  C   UNK N   1      26.680  14.988   3.195  0.00  0.00     0.002 A 
HETATM   14  C   UNK N   1      27.462  14.298   4.147  0.00  0.00     0.001 A 
HETATM   15  C   UNK N   1      28.473  18.595   5.231  0.00  0.00     0.101 A 
HETATM   16  H   UNK N   1      27.183  19.086   3.650  0.00  0.00     0.165 HD
ENDBRANCH   1   7
BRANCH   2  17
HETATM   17  C   UNK N   1      28.250  17.754   8.953  0.00  0.00     0.194 C 
HETATM   18  O   UNK N   1      27.741  17.004   9.769  0.00  0.00    -0.645 OA
BRANCH  17  19
HETATM   19  O   UNK N   1      27.698  18.962   8.746  0.00  0.00    -0.772 OA
HETATM   20  H   UNK N   1      27.185  19.425   9.378  0.00  0.00     0.167 HD
ENDBRANCH  17  19
ENDBRANCH   2  17
BRANCH   5  21
HETATM   21  C   UNK N   1      31.883  16.610   5.559  0.00  0.00     0.005 A 
HETATM   22  C   UNK N   1      32.107  15.413   4.892  0.00  0.00     0.003 A 
HETATM   23  C   UNK N   1      31.804  14.085   5.201  0.00  0.00     0.014 A 
HETATM   24  C   UNK N   1      32.798  15.723   3.749  0.00  0.00     0.043 A 
HETATM   25  C   UNK N   1      32.192  13.083   4.292  0.00  0.00     0.001 A 
HETATM   26  C   UNK N   1      32.884  13.420   3.108  0.00  0.00     0.002 A 
HETATM   27  C   UNK N   1      33.201  14.759   2.831  0.00  0.00     0.030 A 
HETATM   28  N   UNK N   1      33.028  17.041   3.661  0.00  0.00    -0.364 N 
HETATM   29  C   UNK N   1      32.477  17.594   4.765  0.00  0.00     0.101 A 
HETATM   30  H   UNK N   1      33.502  17.513   2.938  0.00  0.00     0.165 HD
ENDBRANCH   5  21
BRANCH   4  31
HETATM   31  C   UNK N   1      32.978  16.575   8.695  0.00  0.00     0.194 C 
HETATM   32  O   UNK N   1      33.474  15.480   8.522  0.00  0.00    -0.645 OA
BRANCH  31  33
HETATM   33  O   UNK N   1      33.627  17.478   9.455  0.00  0.00    -0.772 OA
HETATM   34  H   UNK N   1      34.175  18.123   9.054  0.00  0.00     0.167 HD
ENDBRANCH  31  33
ENDBRANCH   4  31
TORSDOF 6
ENDMDL
MODEL 6
REMARK VINA RESULT:      -7.6      2.272      5.282
REMARK  6 active torsions:
REMARK  status: ('A' for Active; 'I' for Inactive)
REMARK    1  A    between atoms: C_9  and  C_10 
REMARK    2  A    between atoms: C_11  and  C_12 
REMARK    3  A    between atoms: C_12  and  O_14 
REMARK    4  A    between atoms: C_16  and  C_17 
REMARK    5  A    between atoms: C_17  and  O_19 
REMARK    6  A    between atoms: C_20  and  C_21 
ROOT
HETATM    1  C   UNK N   1      30.699  17.257   7.390  0.00  0.00     0.024 A 
HETATM    2  C   UNK N   1      29.487  17.589   7.999  0.00  0.00     0.119 A 
HETATM    3  N   UNK N   1      28.498  17.590   7.086  0.00  0.00    -0.344 N 
HETATM    4  C   UNK N   1      29.032  17.258   5.896  0.00  0.00     0.119 A 
HETATM    5  C   UNK N   1      30.413  17.037   6.033  0.00  0.00     0.024 A 
HETATM    6  H   UNK N   1      27.551  17.795   7.258  0.00  0.00     0.166 HD
ENDROOT
BRANCH   1   7
HETATM    7  C   UNK N   1      32.037  17.109   8.033  0.00  0.00     0.005 A 
HETATM    8  C   UNK N   1      32.680  15.969   8.480  0.00  0.00     0.003 A 
HETATM    9  C   UNK N   1      33.885  16.373   8.990  0.00  0.00     0.043 A 
HETATM   10  C   UNK N   1      32.291  14.630   8.520  0.00  0.00     0.014 A 
HETATM   11  C   UNK N   1      34.794  15.475   9.543  0.00  0.00     0.030 A 
HETATM   12  N   UNK N   1      34.033  17.703   8.896  0.00  0.00    -0.364 N 
HETATM   13  C   UNK N   1      34.437  14.115   9.574  0.00  0.00     0.002 A 
HETATM   14  C   UNK N   1      33.188  13.695   9.068  0.00  0.00     0.001 A 
HETATM   15  C   UNK N   1      32.901  18.169   8.316  0.00  0.00     0.101 A 
HETATM   16  H   UNK N   1      34.809  18.234   9.189  0.00  0.00     0.165 HD
ENDBRANCH   1   7
BRANCH   2  17
HETATM   17  C   UNK N   1      29.188  17.832   9.427  0.00  0.00     0.194 C 
HETATM   18  O   UNK N   1      28.342  17.156   9.988  0.00  0.00    -0.645 OA
BRANCH  17  19
HETATM   19  O   UNK N   1      29.895  18.720  10.148  0.00  0.00    -0.772 OA
HETATM   20  H   UNK N   1      30.169  19.559   9.833  0.00  0.00     0.167 HD
ENDBRANCH  17  19
ENDBRANCH   2  17
BRANCH   5  21
HETATM   21  C   UNK N   1      31.444  16.739   4.984  0.00  0.00     0.005 A 
HETATM   22  C   UNK N   1      32.015  15.550   4.551  0.00  0.00     0.003 A 
HETATM   23  C   UNK N   1      31.883  14.226   4.975  0.00  0.00     0.014 A 
HETATM   24  C   UNK N   1      32.882  15.876   3.539  0.00  0.00     0.043 A 
HETATM   25  C   UNK N   1      32.633  13.236   4.312  0.00  0.00     0.001 A 
HETATM   26  C   UNK N   1      33.505  13.583   3.258  0.00  0.00     0.002 A 
HETATM   27  C   UNK N   1      33.641  14.924   2.867  0.00  0.00     0.030 A 
HETATM   28  N   UNK N   1      32.896  17.198   3.316  0.00  0.00    -0.364 N 
HETATM   29  C   UNK N   1      32.023  17.737   4.197  0.00  0.00     0.101 A 
HETATM   30  H   UNK N   1      33.432  17.679   2.645  0.00  0.00     0.165 HD
ENDBRANCH   5  21
BRANCH   4  31
HETATM   31  C   UNK N   1      28.179  17.271   4.687  0.00  0.00     0.194 C 
HETATM   32  O   UNK N   1      27.325  16.427   4.501  0.00  0.00    -0.645 OA
BRANCH  31  33
HETATM   33  O   UNK N   1      28.405  18.197   3.735  0.00  0.00    -0.772 OA
HETATM   34  H   UNK N   1      28.213  18.005   2.838  0.00  0.00     0.167 HD
ENDBRANCH  31  33
ENDBRANCH   4  31
TORSDOF 6
ENDMDL
MODEL 7
REMARK VINA RESULT:      -7.5     13.575     16.398
REMARK  6 active torsions:
REMARK  status: ('A' for Active; 'I' for Inactive)
REMARK    1  A    between atoms: C_9  and  C_10 
REMARK    2  A    between atoms: C_11  and  C_12 
REMARK    3  A    between atoms: C_12  and  O_14 
REMARK    4  A    between atoms: C_16  and  C_17 
REMARK    5  A    between atoms: C_17  and  O_19 
REMARK    6  A    between atoms: C_20  and  C_21 
ROOT
HETATM    1  C   UNK N   1      26.404  25.507  -7.837  0.00  0.00     0.024 A 
HETATM    2  C   UNK N   1      25.788  25.220  -9.057  0.00  0.00     0.119 A 
HETATM    3  N   UNK N   1      25.292  23.968  -9.039  0.00  0.00    -0.344 N 
HETATM    4  C   UNK N   1      25.563  23.433  -7.835  0.00  0.00     0.119 A 
HETATM    5  C   UNK N   1      26.260  24.360  -7.041  0.00  0.00     0.024 A 
HETATM    6  H   UNK N   1      24.815  23.523  -9.776  0.00  0.00     0.166 HD
ENDROOT
BRANCH   1   7
HETATM    7  C   UNK N   1      27.053  26.784  -7.418  0.00  0.00     0.005 A 
HETATM    8  C   UNK N   1      26.771  27.603  -6.339  0.00  0.00     0.003 A 
HETATM    9  C   UNK N   1      27.653  28.649  -6.401  0.00  0.00     0.043 A 
HETATM   10  C   UNK N   1      25.794  27.539  -5.346  0.00  0.00     0.014 A 
HETATM   11  C   UNK N   1      27.646  29.681  -5.467  0.00  0.00     0.030 A 
HETATM   12  N   UNK N   1      28.469  28.537  -7.461  0.00  0.00    -0.364 N 
HETATM   13  C   UNK N   1      26.687  29.629  -4.440  0.00  0.00     0.002 A 
HETATM   14  C   UNK N   1      25.761  28.564  -4.382  0.00  0.00     0.001 A 
HETATM   15  C   UNK N   1      28.105  27.399  -8.098  0.00  0.00     0.101 A 
HETATM   16  H   UNK N   1      29.187  29.158  -7.723  0.00  0.00     0.165 HD
ENDBRANCH   1   7
BRANCH   2  17
HETATM   17  C   UNK N   1      25.564  26.097 -10.228  0.00  0.00     0.194 C 
HETATM   18  O   UNK N   1      26.482  26.314 -11.000  0.00  0.00    -0.645 OA
BRANCH  17  19
HETATM   19  O   UNK N   1      24.344  26.585 -10.512  0.00  0.00    -0.772 OA
HETATM   20  H   UNK N   1      23.727  26.168 -11.080  0.00  0.00     0.167 HD
ENDBRANCH  17  19
ENDBRANCH   2  17
BRANCH   5  21
HETATM   21  C   UNK N   1      26.854  24.195  -5.673  0.00  0.00     0.005 A 
HETATM   22  C   UNK N   1      28.163  24.027  -5.241  0.00  0.00     0.003 A 
HETATM   23  C   UNK N   1      29.375  23.890  -5.920  0.00  0.00     0.014 A 
HETATM   24  C   UNK N   1      28.119  23.960  -3.871  0.00  0.00     0.043 A 
HETATM   25  C   UNK N   1      30.549  23.719  -5.163  0.00  0.00     0.001 A 
HETATM   26  C   UNK N   1      30.491  23.673  -3.753  0.00  0.00     0.002 A 
HETATM   27  C   UNK N   1      29.258  23.787  -3.092  0.00  0.00     0.030 A 
HETATM   28  N   UNK N   1      26.862  24.068  -3.418  0.00  0.00    -0.364 N 
HETATM   29  C   UNK N   1      26.079  24.208  -4.511  0.00  0.00     0.101 A 
HETATM   30  H   UNK N   1      26.568  24.050  -2.478  0.00  0.00     0.165 HD
ENDBRANCH   5  21
BRANCH   4  31
HETATM   31  C   UNK N   1      25.209  22.020  -7.570  0.00  0.00     0.194 C 
HETATM   32  O   UNK N   1      24.305  21.721  -6.816  0.00  0.00    -0.645 OA
BRANCH  31  33
HETATM   33  O   UNK N   1      25.955  21.043  -8.120  0.00  0.00    -0.772 OA
HETATM   34  H   UNK N   1      26.849  20.931  -7.861  0.00  0.00     0.167 HD
ENDBRANCH  31  33
ENDBRANCH   4  31
TORSDOF 6
ENDMDL
MODEL 8
REMARK VINA RESULT:      -7.3      2.805      5.386
REMARK  6 active torsions:
REMARK  status: ('A' for Active; 'I' for Inactive)
REMARK    1  A    between atoms: C_9  and  C_10 
REMARK    2  A    between atoms: C_11  and  C_12 
REMARK    3  A    between atoms: C_12  and  O_14 
REMARK    4  A    between atoms: C_16  and  C_17 
REMARK    5  A    between atoms: C_17  and  O_19 
REMARK    6  A    between atoms: C_20  and  C_21 
ROOT
HETATM    1  C   UNK N   1      29.532  16.653   6.578  0.00  0.00     0.024 A 
HETATM    2  C   UNK N   1      30.832  16.329   6.974  0.00  0.00     0.119 A 
HETATM    3  N   UNK N   1      31.254  15.233   6.317  0.00  0.00    -0.344 N 
HETATM    4  C   UNK N   1      30.265  14.837   5.495  0.00  0.00     0.119 A 
HETATM    5  C   UNK N   1      29.161  15.697   5.620  0.00  0.00     0.024 A 
HETATM    6  H   UNK N   1      32.131  14.799   6.419  0.00  0.00     0.166 HD
ENDROOT
BRANCH   1   7
HETATM    7  C   UNK N   1      28.698  17.805   7.029  0.00  0.00     0.005 A 
HETATM    8  C   UNK N   1      28.173  18.854   6.295  0.00  0.00     0.003 A 
HETATM    9  C   UNK N   1      27.484  19.643   7.177  0.00  0.00     0.043 A 
HETATM   10  C   UNK N   1      28.281  19.201   4.948  0.00  0.00     0.014 A 
HETATM   11  C   UNK N   1      26.831  20.806   6.778  0.00  0.00     0.030 A 
HETATM   12  N   UNK N   1      27.551  19.153   8.425  0.00  0.00    -0.364 N 
HETATM   13  C   UNK N   1      26.903  21.166   5.421  0.00  0.00     0.002 A 
HETATM   14  C   UNK N   1      27.630  20.368   4.510  0.00  0.00     0.001 A 
HETATM   15  C   UNK N   1      28.301  18.027   8.348  0.00  0.00     0.101 A 
HETATM   16  H   UNK N   1      27.138  19.534   9.233  0.00  0.00     0.165 HD
ENDBRANCH   1   7
BRANCH   2  17
HETATM   17  C   UNK N   1      31.742  17.050   7.891  0.00  0.00     0.194 C 
HETATM   18  O   UNK N   1      32.681  17.680   7.433  0.00  0.00    -0.645 OA
BRANCH  17  19
HETATM   19  O   UNK N   1      31.504  17.104   9.213  0.00  0.00    -0.772 OA
HETATM   20  H   UNK N   1      31.146  17.847   9.656  0.00  0.00     0.167 HD
ENDBRANCH  17  19
ENDBRANCH   2  17
BRANCH   5  21
HETATM   21  C   UNK N   1      27.803  15.612   4.986  0.00  0.00     0.005 A 
HETATM   22  C   UNK N   1      26.544  15.356   5.514  0.00  0.00     0.003 A 
HETATM   23  C   UNK N   1      26.104  15.028   6.797  0.00  0.00     0.014 A 
HETATM   24  C   UNK N   1      25.658  15.432   4.470  0.00  0.00     0.043 A 
HETATM   25  C   UNK N   1      24.726  14.816   6.996  0.00  0.00     0.001 A 
HETATM   26  C   UNK N   1      23.823  14.919   5.916  0.00  0.00     0.002 A 
HETATM   27  C   UNK N   1      24.292  15.224   4.629  0.00  0.00     0.030 A 
HETATM   28  N   UNK N   1      26.284  15.713   3.318  0.00  0.00    -0.364 N 
HETATM   29  C   UNK N   1      27.598  15.820   3.620  0.00  0.00     0.101 A 
HETATM   30  H   UNK N   1      25.872  15.819   2.430  0.00  0.00     0.165 HD
ENDBRANCH   5  21
BRANCH   4  31
HETATM   31  C   UNK N   1      30.426  13.591   4.712  0.00  0.00     0.194 C 
HETATM   32  O   UNK N   1      29.788  12.590   4.969  0.00  0.00    -0.645 OA
BRANCH  31  33
HETATM   33  O   UNK N   1      31.355  13.545   3.737  0.00  0.00    -0.772 OA
HETATM   34  H   UNK N   1      32.212  13.214   3.920  0.00  0.00     0.167 HD
ENDBRANCH  31  33
ENDBRANCH   4  31
TORSDOF 6
ENDMDL
MODEL 9
REMARK VINA RESULT:      -7.2      6.187      9.038
REMARK  6 active torsions:
REMARK  status: ('A' for Active; 'I' for Inactive)
REMARK    1  A    between atoms: C_9  and  C_10 
REMARK    2  A    between atoms: C_11  and  C_12 
REMARK    3  A    between atoms: C_12  and  O_14 
REMARK    4  A    between atoms: C_16  and  C_17 
REMARK    5  A    between atoms: C_17  and  O_19 
REMARK    6  A    between atoms: C_20  and  C_21 
ROOT
HETATM    1  C   UNK N   1      22.529  18.343   3.574  0.00  0.00     0.024 A 
HETATM    2  C   UNK N   1      22.660  19.672   3.166  0.00  0.00     0.119 A 
HETATM    3  N   UNK N   1      23.866  20.148   3.527  0.00  0.00    -0.344 N 
HETATM    4  C   UNK N   1      24.530  19.160   4.155  0.00  0.00     0.119 A 
HETATM    5  C   UNK N   1      23.734  18.003   4.209  0.00  0.00     0.024 A 
HETATM    6  H   UNK N   1      24.204  21.057   3.361  0.00  0.00     0.166 HD
ENDROOT
BRANCH   1   7
HETATM    7  C   UNK N   1      21.372  17.427   3.352  0.00  0.00     0.005 A 
HETATM    8  C   UNK N   1      21.304  16.252   2.624  0.00  0.00     0.003 A 
HETATM    9  C   UNK N   1      20.018  15.796   2.736  0.00  0.00     0.043 A 
HETATM   10  C   UNK N   1      22.244  15.579   1.844  0.00  0.00     0.014 A 
HETATM   11  C   UNK N   1      19.589  14.628   2.111  0.00  0.00     0.030 A 
HETATM   12  N   UNK N   1      19.271  16.620   3.488  0.00  0.00    -0.364 N 
HETATM   13  C   UNK N   1      20.523  13.916   1.338  0.00  0.00     0.002 A 
HETATM   14  C   UNK N   1      21.845  14.393   1.202  0.00  0.00     0.001 A 
HETATM   15  C   UNK N   1      20.090  17.630   3.866  0.00  0.00     0.101 A 
HETATM   16  H   UNK N   1      18.321  16.512   3.718  0.00  0.00     0.165 HD
ENDBRANCH   1   7
BRANCH   2  17
HETATM   17  C   UNK N   1      21.732  20.508   2.374  0.00  0.00     0.194 C 
HETATM   18  O   UNK N   1      21.726  20.413   1.158  0.00  0.00    -0.645 OA
BRANCH  17  19
HETATM   19  O   UNK N   1      20.827  21.305   2.970  0.00  0.00    -0.772 OA
HETATM   20  H   UNK N   1      20.978  22.202   3.194  0.00  0.00     0.167 HD
ENDBRANCH  17  19
ENDBRANCH   2  17
BRANCH   5  21
HETATM   21  C   UNK N   1      23.999  16.688   4.882  0.00  0.00     0.005 A 
HETATM   22  C   UNK N   1      23.308  15.989   5.864  0.00  0.00     0.003 A 
HETATM   23  C   UNK N   1      22.169  16.286   6.614  0.00  0.00     0.014 A 
HETATM   24  C   UNK N   1      23.998  14.823   6.074  0.00  0.00     0.043 A 
HETATM   25  C   UNK N   1      21.728  15.342   7.560  0.00  0.00     0.001 A 
HETATM   26  C   UNK N   1      22.436  14.135   7.751  0.00  0.00     0.002 A 
HETATM   27  C   UNK N   1      23.595  13.870   7.004  0.00  0.00     0.030 A 
HETATM   28  N   UNK N   1      25.083  14.749   5.290  0.00  0.00    -0.364 N 
HETATM   29  C   UNK N   1      25.096  15.887   4.559  0.00  0.00     0.101 A 
HETATM   30  H   UNK N   1      25.738  14.015   5.252  0.00  0.00     0.165 HD
ENDBRANCH   5  21
BRANCH   4  31
HETATM   31  C   UNK N   1      25.860  19.436   4.743  0.00  0.00     0.194 C 
HETATM   32  O   UNK N   1      26.856  19.524   4.053  0.00  0.00    -0.645 OA
BRANCH  31  33
HETATM   33  O   UNK N   1      25.980  19.516   6.082  0.00  0.00    -0.772 OA
HETATM   34  H   UNK N   1      26.798  19.763   6.467  0.00  0.00     0.167 HD
ENDBRANCH  31  33
ENDBRANCH   4  31
TORSDOF 6
ENDMDL
