MODEL 1
REMARK VINA RESULT:     -12.3      0.000      0.000
REMARK  2 active torsions:
REMARK  status: ('A' for Active; 'I' for Inactive)
REMARK    1  A    between atoms: C_22  and  C_23 
REMARK    2  A    between atoms: C_29  and  C_30 
ROOT
HETATM    1  C   UNK N   1      20.465  16.016   8.043  0.00  0.00     0.411 A 
HETATM    2  C   UNK N   1      19.961  15.884   8.683  0.00  0.00     0.219 A 
HETATM    3  N   UNK N   1      20.142  15.301   9.237  0.00  0.00    -0.393 N 
HETATM    4  C   UNK N   1      19.275  16.335   8.767  0.00  0.00    -0.027 A 
HETATM    5  F   UNK N   1      20.966  15.419   8.315  0.00  0.00    -0.168 F 
HETATM    6  F   UNK N   1      19.965  16.613   7.772  0.00  0.00    -0.168 F 
HETATM    7  F   UNK N   1      20.970  16.148   7.404  0.00  0.00    -0.168 F 
HETATM    8  C   UNK N   1      20.827  14.850   9.153  0.00  0.00     0.184 A 
HETATM    9  C   UNK N   1      21.332  14.982   8.514  0.00  0.00     0.241 A 
HETATM   10  C   UNK N   1      21.008  14.267   9.708  0.00  0.00     0.175 A 
HETATM   11  S   UNK N   1      21.694  13.816   9.624  0.00  0.00     0.150 SA
HETATM   12  C   UNK N   1      22.380  13.365   9.539  0.00  0.00     0.178 A 
HETATM   13  N   UNK N   1      21.151  15.565   7.959  0.00  0.00    -0.348 N 
HETATM   14  O   UNK N   1      22.018  14.531   8.429  0.00  0.00    -0.271 OA
HETATM   15  C   UNK N   1      21.655  15.697   7.320  0.00  0.00     0.048 A 
HETATM   16  N   UNK N   1      21.553  16.637   6.248  0.00  0.00    -0.428 N 
HETATM   17  C   UNK N   1      22.301  15.618   6.812  0.00  0.00     0.035 A 
HETATM   18  C   UNK N   1      22.236  15.132   7.476  0.00  0.00     0.035 A 
HETATM   19  C   UNK N   1      18.770  16.203   9.406  0.00  0.00     0.012 A 
HETATM   20  C   UNK N   1      18.085  16.653   9.491  0.00  0.00     0.037 A 
HETATM   21  C   UNK N   1      17.904  17.236   8.936  0.00  0.00     0.065 A 
HETATM   22  C   UNK N   1      18.408  17.369   8.296  0.00  0.00     0.037 A 
HETATM   23  C   UNK N   1      19.093  16.918   8.212  0.00  0.00     0.012 A 
HETATM   24  O   UNK N   1      17.217  17.687   9.020  0.00  0.00    -0.361 OA
HETATM   25  C   UNK N   1      22.561  12.782  10.094  0.00  0.00    -0.044 A 
HETATM   26  C   UNK N   1      23.247  12.331  10.010  0.00  0.00     0.008 A 
HETATM   27  C   UNK N   1      23.428  11.748  10.565  0.00  0.00     0.001 A 
HETATM   28  C   UNK N   1      22.924  11.616  11.204  0.00  0.00     0.000 A 
HETATM   29  C   UNK N   1      22.238  12.067  11.288  0.00  0.00     0.001 A 
HETATM   30  C   UNK N   1      22.057  12.650  10.733  0.00  0.00     0.008 A 
HETATM   31  O   UNK N   1      21.508  13.403  10.313  0.00  0.00    -0.228 OA
HETATM   32  O   UNK N   1      21.881  14.229   8.934  0.00  0.00    -0.228 OA
HETATM   33  C   UNK N   1      21.250  16.308   6.942  0.00  0.00     0.142 A 
HETATM   34  H   UNK N   1      19.518  15.137  10.028  0.00  0.00     0.155 HD
HETATM   35  H   UNK N   1      20.333  16.103   8.060  0.00  0.00     0.163 HD
HETATM   36  H   UNK N   1      22.429  16.287   5.858  0.00  0.00     0.150 HD
HETATM   37  H   UNK N   1      21.052  17.392   5.780  0.00  0.00     0.150 HD
HETATM   38  H   UNK N   1      17.012  18.350   8.390  0.00  0.00     0.217 HD
ENDROOT
TORSDOF 2
ENDMDL
MODEL 2
REMARK VINA RESULT:     -12.2     15.208     16.121
REMARK  2 active torsions:
REMARK  status: ('A' for Active; 'I' for Inactive)
REMARK    1  A    between atoms: C_22  and  C_23 
REMARK    2  A    between atoms: C_29  and  C_30 
ROOT
HETATM    1  C   UNK N   1      36.633  13.886  11.833  0.00  0.00     0.411 A 
HETATM    2  C   UNK N   1      36.160  14.503  12.112  0.00  0.00     0.219 A 
HETATM    3  N   UNK N   1      35.853  14.474  12.877  0.00  0.00    -0.393 N 
HETATM    4  C   UNK N   1      35.994  15.147  11.623  0.00  0.00    -0.027 A 
HETATM    5  F   UNK N   1      36.552  13.497  12.557  0.00  0.00    -0.168 F 
HETATM    6  F   UNK N   1      36.714  14.275  11.111  0.00  0.00    -0.168 F 
HETATM    7  F   UNK N   1      37.106  13.269  11.556  0.00  0.00    -0.168 F 
HETATM    8  C   UNK N   1      36.019  13.830  13.364  0.00  0.00     0.184 A 
HETATM    9  C   UNK N   1      36.492  13.213  13.086  0.00  0.00     0.241 A 
HETATM   10  C   UNK N   1      35.712  13.802  14.129  0.00  0.00     0.175 A 
HETATM   11  S   UNK N   1      35.878  13.157  14.617  0.00  0.00     0.150 SA
HETATM   12  C   UNK N   1      36.044  12.512  15.104  0.00  0.00     0.178 A 
HETATM   13  N   UNK N   1      36.799  13.241  12.321  0.00  0.00    -0.348 N 
HETATM   14  O   UNK N   1      36.658  12.568  13.573  0.00  0.00    -0.271 OA
HETATM   15  C   UNK N   1      37.271  12.625  12.043  0.00  0.00     0.048 A 
HETATM   16  N   UNK N   1      37.906  12.454  10.774  0.00  0.00    -0.428 N 
HETATM   17  C   UNK N   1      37.688  11.913  12.029  0.00  0.00     0.035 A 
HETATM   18  C   UNK N   1      37.274  12.135  12.707  0.00  0.00     0.035 A 
HETATM   19  C   UNK N   1      35.521  15.763  11.902  0.00  0.00     0.012 A 
HETATM   20  C   UNK N   1      35.355  16.408  11.415  0.00  0.00     0.037 A 
HETATM   21  C   UNK N   1      35.662  16.436  10.649  0.00  0.00     0.065 A 
HETATM   22  C   UNK N   1      36.135  15.819  10.371  0.00  0.00     0.037 A 
HETATM   23  C   UNK N   1      36.300  15.176  10.858  0.00  0.00     0.012 A 
HETATM   24  O   UNK N   1      35.496  17.081  10.162  0.00  0.00    -0.361 OA
HETATM   25  C   UNK N   1      35.737  12.484  15.869  0.00  0.00    -0.044 A 
HETATM   26  C   UNK N   1      35.903  11.839  16.357  0.00  0.00     0.008 A 
HETATM   27  C   UNK N   1      35.597  11.811  17.122  0.00  0.00     0.001 A 
HETATM   28  C   UNK N   1      35.123  12.428  17.401  0.00  0.00     0.000 A 
HETATM   29  C   UNK N   1      34.958  13.072  16.913  0.00  0.00     0.001 A 
HETATM   30  C   UNK N   1      35.265  13.100  16.147  0.00  0.00     0.008 A 
HETATM   31  O   UNK N   1      35.428  13.496  15.219  0.00  0.00    -0.228 OA
HETATM   32  O   UNK N   1      36.329  12.817  14.014  0.00  0.00    -0.228 OA
HETATM   33  C   UNK N   1      37.433  12.901  11.283  0.00  0.00     0.142 A 
HETATM   34  H   UNK N   1      35.268  15.236  13.220  0.00  0.00     0.155 HD
HETATM   35  H   UNK N   1      36.601  14.011  11.739  0.00  0.00     0.163 HD
HETATM   36  H   UNK N   1      38.289  11.561  11.086  0.00  0.00     0.150 HD
HETATM   37  H   UNK N   1      38.106  12.795   9.834  0.00  0.00     0.150 HD
HETATM   38  H   UNK N   1      35.844  17.113   9.292  0.00  0.00     0.217 HD
ENDROOT
TORSDOF 2
ENDMDL
MODEL 3
REMARK VINA RESULT:     -12.1      1.443      2.810
REMARK  2 active torsions:
REMARK  status: ('A' for Active; 'I' for Inactive)
REMARK    1  A    between atoms: C_22  and  C_23 
REMARK    2  A    between atoms: C_29  and  C_30 
ROOT
HETATM    1  C   UNK N   1      20.231  16.752   7.878  0.00  0.00     0.411 A 
HETATM    2  C   UNK N   1      20.954  16.541   7.540  0.00  0.00     0.219 A 
HETATM    3  N   UNK N   1      21.361  15.878   7.816  0.00  0.00    -0.393 N 
HETATM    4  C   UNK N   1      21.269  16.994   6.926  0.00  0.00    -0.027 A 
HETATM    5  F   UNK N   1      20.284  16.108   8.392  0.00  0.00    -0.168 F 
HETATM    6  F   UNK N   1      20.179  17.395   7.365  0.00  0.00    -0.168 F 
HETATM    7  F   UNK N   1      19.508  16.961   8.217  0.00  0.00    -0.168 F 
HETATM    8  C   UNK N   1      21.046  15.427   8.429  0.00  0.00     0.184 A 
HETATM    9  C   UNK N   1      20.323  15.636   8.768  0.00  0.00     0.241 A 
HETATM   10  C   UNK N   1      21.453  14.764   8.705  0.00  0.00     0.175 A 
HETATM   11  S   UNK N   1      21.137  14.311   9.319  0.00  0.00     0.150 SA
HETATM   12  C   UNK N   1      20.821  13.860   9.932  0.00  0.00     0.178 A 
HETATM   13  N   UNK N   1      19.916  16.299   8.492  0.00  0.00    -0.348 N 
HETATM   14  O   UNK N   1      20.007  15.185   9.381  0.00  0.00    -0.271 OA
HETATM   15  C   UNK N   1      19.193  16.510   8.830  0.00  0.00     0.048 A 
HETATM   16  N   UNK N   1      18.319  17.598   8.525  0.00  0.00    -0.428 N 
HETATM   17  C   UNK N   1      18.532  16.487   9.323  0.00  0.00     0.035 A 
HETATM   18  C   UNK N   1      19.120  15.912   9.395  0.00  0.00     0.035 A 
HETATM   19  C   UNK N   1      21.992  16.783   6.588  0.00  0.00     0.012 A 
HETATM   20  C   UNK N   1      22.308  17.235   5.975  0.00  0.00     0.037 A 
HETATM   21  C   UNK N   1      21.901  17.897   5.699  0.00  0.00     0.065 A 
HETATM   22  C   UNK N   1      21.178  18.108   6.037  0.00  0.00     0.037 A 
HETATM   23  C   UNK N   1      20.863  17.656   6.650  0.00  0.00     0.012 A 
HETATM   24  O   UNK N   1      22.217  18.350   5.085  0.00  0.00    -0.361 OA
HETATM   25  C   UNK N   1      21.229  13.197  10.208  0.00  0.00    -0.044 A 
HETATM   26  C   UNK N   1      20.913  12.745  10.822  0.00  0.00     0.008 A 
HETATM   27  C   UNK N   1      21.320  12.082  11.098  0.00  0.00     0.001 A 
HETATM   28  C   UNK N   1      22.043  11.871  10.760  0.00  0.00     0.000 A 
HETATM   29  C   UNK N   1      22.358  12.324  10.146  0.00  0.00     0.001 A 
HETATM   30  C   UNK N   1      21.951  12.987   9.870  0.00  0.00     0.008 A 
HETATM   31  O   UNK N   1      21.789  13.807   9.283  0.00  0.00    -0.228 OA
HETATM   32  O   UNK N   1      20.484  14.816   9.355  0.00  0.00    -0.228 OA
HETATM   33  C   UNK N   1      19.016  17.179   8.383  0.00  0.00     0.142 A 
HETATM   34  H   UNK N   1      22.255  15.618   7.398  0.00  0.00     0.155 HD
HETATM   35  H   UNK N   1      20.292  16.839   7.760  0.00  0.00     0.163 HD
HETATM   36  H   UNK N   1      17.676  17.285   9.253  0.00  0.00     0.150 HD
HETATM   37  H   UNK N   1      18.099  18.426   7.972  0.00  0.00     0.150 HD
HETATM   38  H   UNK N   1      21.754  19.102   4.772  0.00  0.00     0.217 HD
ENDROOT
TORSDOF 2
ENDMDL
MODEL 4
REMARK VINA RESULT:     -12.1      9.498     11.055
REMARK  2 active torsions:
REMARK  status: ('A' for Active; 'I' for Inactive)
REMARK    1  A    between atoms: C_22  and  C_23 
REMARK    2  A    between atoms: C_29  and  C_30 
ROOT
HETATM    1  C   UNK N   1      30.709  16.754   8.340  0.00  0.00     0.411 A 
HETATM    2  C   UNK N   1      30.153  17.184   7.907  0.00  0.00     0.219 A 
HETATM    3  N   UNK N   1      30.264  17.306   7.099  0.00  0.00    -0.393 N 
HETATM    4  C   UNK N   1      29.487  17.492   8.285  0.00  0.00    -0.027 A 
HETATM    5  F   UNK N   1      31.158  16.647   7.656  0.00  0.00    -0.168 F 
HETATM    6  F   UNK N   1      30.260  16.862   9.023  0.00  0.00    -0.168 F 
HETATM    7  F   UNK N   1      31.266  16.324   8.772  0.00  0.00    -0.168 F 
HETATM    8  C   UNK N   1      30.929  16.998   6.723  0.00  0.00     0.184 A 
HETATM    9  C   UNK N   1      31.486  16.568   7.155  0.00  0.00     0.241 A 
HETATM   10  C   UNK N   1      31.039  17.120   5.915  0.00  0.00     0.175 A 
HETATM   11  S   UNK N   1      31.706  16.812   5.538  0.00  0.00     0.150 SA
HETATM   12  C   UNK N   1      32.373  16.504   5.162  0.00  0.00     0.178 A 
HETATM   13  N   UNK N   1      31.376  16.446   7.963  0.00  0.00    -0.348 N 
HETATM   14  O   UNK N   1      32.152  16.260   6.779  0.00  0.00    -0.271 OA
HETATM   15  C   UNK N   1      31.931  16.017   8.395  0.00  0.00     0.048 A 
HETATM   16  N   UNK N   1      31.955  15.681   9.784  0.00  0.00    -0.428 N 
HETATM   17  C   UNK N   1      32.607  15.576   8.568  0.00  0.00     0.035 A 
HETATM   18  C   UNK N   1      32.470  15.836   7.797  0.00  0.00     0.035 A 
HETATM   19  C   UNK N   1      28.930  17.922   7.852  0.00  0.00     0.012 A 
HETATM   20  C   UNK N   1      28.264  18.230   8.228  0.00  0.00     0.037 A 
HETATM   21  C   UNK N   1      28.154  18.108   9.036  0.00  0.00     0.065 A 
HETATM   22  C   UNK N   1      28.710  17.678   9.469  0.00  0.00     0.037 A 
HETATM   23  C   UNK N   1      29.376  17.371   9.093  0.00  0.00     0.012 A 
HETATM   24  O   UNK N   1      27.487  18.416   9.413  0.00  0.00    -0.361 OA
HETATM   25  C   UNK N   1      32.483  16.626   4.353  0.00  0.00    -0.044 A 
HETATM   26  C   UNK N   1      33.150  16.318   3.977  0.00  0.00     0.008 A 
HETATM   27  C   UNK N   1      33.260  16.440   3.168  0.00  0.00     0.001 A 
HETATM   28  C   UNK N   1      32.704  16.870   2.736  0.00  0.00     0.000 A 
HETATM   29  C   UNK N   1      32.038  17.178   3.113  0.00  0.00     0.001 A 
HETATM   30  C   UNK N   1      31.928  17.056   3.921  0.00  0.00     0.008 A 
HETATM   31  O   UNK N   1      31.450  17.131   4.822  0.00  0.00    -0.228 OA
HETATM   32  O   UNK N   1      31.964  16.493   6.254  0.00  0.00    -0.228 OA
HETATM   33  C   UNK N   1      31.586  16.048   9.143  0.00  0.00     0.142 A 
HETATM   34  H   UNK N   1      29.576  17.838   6.565  0.00  0.00     0.155 HD
HETATM   35  H   UNK N   1      30.580  16.814   8.413  0.00  0.00     0.163 HD
HETATM   36  H   UNK N   1      32.839  15.188   9.650  0.00  0.00     0.150 HD
HETATM   37  H   UNK N   1      31.529  15.719  10.710  0.00  0.00     0.150 HD
HETATM   38  H   UNK N   1      27.362  18.278  10.332  0.00  0.00     0.217 HD
ENDROOT
TORSDOF 2
ENDMDL
MODEL 5
REMARK VINA RESULT:     -12.0     16.373     17.358
REMARK  2 active torsions:
REMARK  status: ('A' for Active; 'I' for Inactive)
REMARK    1  A    between atoms: C_22  and  C_23 
REMARK    2  A    between atoms: C_29  and  C_30 
ROOT
HETATM    1  C   UNK N   1      35.178  11.929  18.041  0.00  0.00     0.411 A 
HETATM    2  C   UNK N   1      35.210  11.249  17.574  0.00  0.00     0.219 A 
HETATM    3  N   UNK N   1      35.364  11.311  16.766  0.00  0.00    -0.393 N 
HETATM    4  C   UNK N   1      35.088  10.509  17.916  0.00  0.00    -0.027 A 
HETATM    5  F   UNK N   1      35.338  12.393  17.377  0.00  0.00    -0.168 F 
HETATM    6  F   UNK N   1      35.019  11.466  18.704  0.00  0.00    -0.168 F 
HETATM    7  F   UNK N   1      35.147  12.610  18.507  0.00  0.00    -0.168 F 
HETATM    8  C   UNK N   1      35.486  12.051  16.424  0.00  0.00     0.184 A 
HETATM    9  C   UNK N   1      35.454  12.732  16.891  0.00  0.00     0.241 A 
HETATM   10  C   UNK N   1      35.640  12.112  15.616  0.00  0.00     0.175 A 
HETATM   11  S   UNK N   1      35.762  12.854  15.274  0.00  0.00     0.150 SA
HETATM   12  C   UNK N   1      35.884  13.595  14.933  0.00  0.00     0.178 A 
HETATM   13  N   UNK N   1      35.301  12.671  17.699  0.00  0.00    -0.348 N 
HETATM   14  O   UNK N   1      35.577  13.473  16.549  0.00  0.00    -0.271 OA
HETATM   15  C   UNK N   1      35.269  13.350  18.165  0.00  0.00     0.048 A 
HETATM   16  N   UNK N   1      35.022  13.492  19.566  0.00  0.00    -0.428 N 
HETATM   17  C   UNK N   1      35.294  14.147  18.377  0.00  0.00     0.035 A 
HETATM   18  C   UNK N   1      35.421  13.924  17.593  0.00  0.00     0.035 A 
HETATM   19  C   UNK N   1      35.119   9.829  17.449  0.00  0.00     0.012 A 
HETATM   20  C   UNK N   1      34.997   9.088  17.791  0.00  0.00     0.037 A 
HETATM   21  C   UNK N   1      34.844   9.027  18.599  0.00  0.00     0.065 A 
HETATM   22  C   UNK N   1      34.812   9.707  19.066  0.00  0.00     0.037 A 
HETATM   23  C   UNK N   1      34.934  10.447  18.724  0.00  0.00     0.012 A 
HETATM   24  O   UNK N   1      34.721   8.286  18.941  0.00  0.00    -0.361 OA
HETATM   25  C   UNK N   1      36.038  13.656  14.125  0.00  0.00    -0.044 A 
HETATM   26  C   UNK N   1      36.160  14.397  13.783  0.00  0.00     0.008 A 
HETATM   27  C   UNK N   1      36.314  14.458  12.974  0.00  0.00     0.001 A 
HETATM   28  C   UNK N   1      36.346  13.778  12.507  0.00  0.00     0.000 A 
HETATM   29  C   UNK N   1      36.223  13.038  12.850  0.00  0.00     0.001 A 
HETATM   30  C   UNK N   1      36.070  12.977  13.658  0.00  0.00     0.008 A 
HETATM   31  O   UNK N   1      35.869  12.497  14.538  0.00  0.00    -0.228 OA
HETATM   32  O   UNK N   1      35.655  13.211  16.011  0.00  0.00    -0.228 OA
HETATM   33  C   UNK N   1      35.107  13.012  18.900  0.00  0.00     0.142 A 
HETATM   34  H   UNK N   1      35.403  10.470  16.189  0.00  0.00     0.155 HD
HETATM   35  H   UNK N   1      35.155  11.786  18.107  0.00  0.00     0.163 HD
HETATM   36  H   UNK N   1      35.119  14.505  19.480  0.00  0.00     0.150 HD
HETATM   37  H   UNK N   1      34.822  13.074  20.474  0.00  0.00     0.150 HD
HETATM   38  H   UNK N   1      34.547   8.217  19.859  0.00  0.00     0.217 HD
ENDROOT
TORSDOF 2
ENDMDL
MODEL 6
REMARK VINA RESULT:     -11.9     17.362     17.732
REMARK  2 active torsions:
REMARK  status: ('A' for Active; 'I' for Inactive)
REMARK    1  A    between atoms: C_22  and  C_23 
REMARK    2  A    between atoms: C_29  and  C_30 
ROOT
HETATM    1  C   UNK N   1      26.445  25.499  -4.718  0.00  0.00     0.411 A 
HETATM    2  C   UNK N   1      26.821  25.974  -4.157  0.00  0.00     0.219 A 
HETATM    3  N   UNK N   1      27.498  25.701  -3.774  0.00  0.00    -0.393 N 
HETATM    4  C   UNK N   1      26.518  26.721  -3.981  0.00  0.00    -0.027 A 
HETATM    5  F   UNK N   1      27.010  24.910  -4.598  0.00  0.00    -0.168 F 
HETATM    6  F   UNK N   1      25.879  26.088  -4.837  0.00  0.00    -0.168 F 
HETATM    7  F   UNK N   1      26.069  25.023  -5.278  0.00  0.00    -0.168 F 
HETATM    8  C   UNK N   1      27.800  24.955  -3.950  0.00  0.00     0.184 A 
HETATM    9  C   UNK N   1      27.424  24.479  -4.511  0.00  0.00     0.241 A 
HETATM   10  C   UNK N   1      28.478  24.683  -3.567  0.00  0.00     0.175 A 
HETATM   11  S   UNK N   1      28.780  23.935  -3.744  0.00  0.00     0.150 SA
HETATM   12  C   UNK N   1      29.082  23.188  -3.920  0.00  0.00     0.178 A 
HETATM   13  N   UNK N   1      26.747  24.751  -4.894  0.00  0.00    -0.348 N 
HETATM   14  O   UNK N   1      27.726  23.732  -4.688  0.00  0.00    -0.271 OA
HETATM   15  C   UNK N   1      26.371  24.277  -5.454  0.00  0.00     0.048 A 
HETATM   16  N   UNK N   1      25.201  24.529  -6.236  0.00  0.00    -0.428 N 
HETATM   17  C   UNK N   1      26.210  23.629  -5.940  0.00  0.00     0.035 A 
HETATM   18  C   UNK N   1      26.862  23.614  -5.434  0.00  0.00     0.035 A 
HETATM   19  C   UNK N   1      26.895  27.196  -3.421  0.00  0.00     0.012 A 
HETATM   20  C   UNK N   1      26.593  27.943  -3.244  0.00  0.00     0.037 A 
HETATM   21  C   UNK N   1      25.916  28.215  -3.627  0.00  0.00     0.065 A 
HETATM   22  C   UNK N   1      25.539  27.740  -4.188  0.00  0.00     0.037 A 
HETATM   23  C   UNK N   1      25.841  26.994  -4.364  0.00  0.00     0.012 A 
HETATM   24  O   UNK N   1      25.614  28.963  -3.451  0.00  0.00    -0.361 OA
HETATM   25  C   UNK N   1      29.759  22.916  -3.537  0.00  0.00    -0.044 A 
HETATM   26  C   UNK N   1      30.061  22.168  -3.714  0.00  0.00     0.008 A 
HETATM   27  C   UNK N   1      30.739  21.896  -3.330  0.00  0.00     0.001 A 
HETATM   28  C   UNK N   1      31.116  22.371  -2.770  0.00  0.00     0.000 A 
HETATM   29  C   UNK N   1      30.813  23.118  -2.594  0.00  0.00     0.001 A 
HETATM   30  C   UNK N   1      30.135  23.390  -2.977  0.00  0.00     0.008 A 
HETATM   31  O   UNK N   1      29.389  24.051  -3.199  0.00  0.00    -0.228 OA
HETATM   32  O   UNK N   1      28.171  23.818  -4.289  0.00  0.00    -0.228 OA
HETATM   33  C   UNK N   1      25.749  24.774  -5.669  0.00  0.00     0.142 A 
HETATM   34  H   UNK N   1      27.964  26.289  -3.081  0.00  0.00     0.155 HD
HETATM   35  H   UNK N   1      26.386  25.643  -4.684  0.00  0.00     0.163 HD
HETATM   36  H   UNK N   1      25.295  23.611  -6.672  0.00  0.00     0.150 HD
HETATM   37  H   UNK N   1      24.432  25.144  -6.502  0.00  0.00     0.150 HD
HETATM   38  H   UNK N   1      24.843  29.272  -3.887  0.00  0.00     0.217 HD
ENDROOT
TORSDOF 2
ENDMDL
MODEL 7
REMARK VINA RESULT:     -11.8     16.909     17.326
REMARK  2 active torsions:
REMARK  status: ('A' for Active; 'I' for Inactive)
REMARK    1  A    between atoms: C_22  and  C_23 
REMARK    2  A    between atoms: C_29  and  C_30 
ROOT
HETATM    1  C   UNK N   1      35.694  13.188  16.933  0.00  0.00     0.411 A 
HETATM    2  C   UNK N   1      35.851  12.685  16.297  0.00  0.00     0.219 A 
HETATM    3  N   UNK N   1      35.735  11.873  16.376  0.00  0.00    -0.393 N 
HETATM    4  C   UNK N   1      36.122  12.997  15.583  0.00  0.00    -0.027 A 
HETATM    5  F   UNK N   1      35.471  12.539  17.391  0.00  0.00    -0.168 F 
HETATM    6  F   UNK N   1      35.917  13.836  16.475  0.00  0.00    -0.168 F 
HETATM    7  F   UNK N   1      35.538  13.690  17.569  0.00  0.00    -0.168 F 
HETATM    8  C   UNK N   1      35.464  11.562  17.090  0.00  0.00     0.184 A 
HETATM    9  C   UNK N   1      35.308  12.063  17.726  0.00  0.00     0.241 A 
HETATM   10  C   UNK N   1      35.349  10.748  17.168  0.00  0.00     0.175 A 
HETATM   11  S   UNK N   1      35.077  10.437  17.883  0.00  0.00     0.150 SA
HETATM   12  C   UNK N   1      34.806  10.127  18.597  0.00  0.00     0.178 A 
HETATM   13  N   UNK N   1      35.423  12.877  17.647  0.00  0.00    -0.348 N 
HETATM   14  O   UNK N   1      35.036  11.753  18.440  0.00  0.00    -0.271 OA
HETATM   15  C   UNK N   1      35.267  13.379  18.283  0.00  0.00     0.048 A 
HETATM   16  N   UNK N   1      35.389  14.799  18.383  0.00  0.00    -0.428 N 
HETATM   17  C   UNK N   1      35.043  13.629  19.037  0.00  0.00     0.035 A 
HETATM   18  C   UNK N   1      35.019  12.827  18.844  0.00  0.00     0.035 A 
HETATM   19  C   UNK N   1      36.278  12.495  14.947  0.00  0.00     0.012 A 
HETATM   20  C   UNK N   1      36.550  12.805  14.233  0.00  0.00     0.037 A 
HETATM   21  C   UNK N   1      36.665  13.618  14.154  0.00  0.00     0.065 A 
HETATM   22  C   UNK N   1      36.508  14.121  14.790  0.00  0.00     0.037 A 
HETATM   23  C   UNK N   1      36.237  13.810  15.504  0.00  0.00     0.012 A 
HETATM   24  O   UNK N   1      36.936  13.930  13.440  0.00  0.00    -0.361 OA
HETATM   25  C   UNK N   1      34.691   9.313  18.676  0.00  0.00    -0.044 A 
HETATM   26  C   UNK N   1      34.419   9.002  19.390  0.00  0.00     0.008 A 
HETATM   27  C   UNK N   1      34.304   8.189  19.469  0.00  0.00     0.001 A 
HETATM   28  C   UNK N   1      34.461   7.686  18.833  0.00  0.00     0.000 A 
HETATM   29  C   UNK N   1      34.732   7.998  18.119  0.00  0.00     0.001 A 
HETATM   30  C   UNK N   1      34.847   8.811  18.041  0.00  0.00     0.008 A 
HETATM   31  O   UNK N   1      35.101   9.678  17.562  0.00  0.00    -0.228 OA
HETATM   32  O   UNK N   1      35.054  11.197  18.205  0.00  0.00    -0.228 OA
HETATM   33  C   UNK N   1      35.459  14.105  17.942  0.00  0.00     0.142 A 
HETATM   34  H   UNK N   1      35.929  11.251  15.590  0.00  0.00     0.155 HD
HETATM   35  H   UNK N   1      35.747  13.248  16.795  0.00  0.00     0.163 HD
HETATM   36  H   UNK N   1      35.063  14.759  19.349  0.00  0.00     0.150 HD
HETATM   37  H   UNK N   1      35.627  15.697  17.962  0.00  0.00     0.150 HD
HETATM   38  H   UNK N   1      37.067  14.854  13.351  0.00  0.00     0.217 HD
ENDROOT
TORSDOF 2
ENDMDL
MODEL 8
REMARK VINA RESULT:     -11.8      8.557      9.987
REMARK  2 active torsions:
REMARK  status: ('A' for Active; 'I' for Inactive)
REMARK    1  A    between atoms: C_22  and  C_23 
REMARK    2  A    between atoms: C_29  and  C_30 
ROOT
HETATM    1  C   UNK N   1      28.602  17.274   7.608  0.00  0.00     0.411 A 
HETATM    2  C   UNK N   1      28.845  16.859   6.937  0.00  0.00     0.219 A 
HETATM    3  N   UNK N   1      29.647  16.807   6.752  0.00  0.00    -0.393 N 
HETATM    4  C   UNK N   1      28.284  16.497   6.452  0.00  0.00    -0.027 A 
HETATM    5  F   UNK N   1      29.389  17.453   7.781  0.00  0.00    -0.168 F 
HETATM    6  F   UNK N   1      27.817  17.095   7.434  0.00  0.00    -0.168 F 
HETATM    7  F   UNK N   1      28.361  17.689   8.279  0.00  0.00    -0.168 F 
HETATM    8  C   UNK N   1      30.207  17.169   7.237  0.00  0.00     0.184 A 
HETATM    9  C   UNK N   1      29.965  17.584   7.908  0.00  0.00     0.241 A 
HETATM   10  C   UNK N   1      31.009  17.117   7.051  0.00  0.00     0.175 A 
HETATM   11  S   UNK N   1      31.569  17.480   7.537  0.00  0.00     0.150 SA
HETATM   12  C   UNK N   1      32.129  17.842   8.022  0.00  0.00     0.178 A 
HETATM   13  N   UNK N   1      29.163  17.637   8.093  0.00  0.00    -0.348 N 
HETATM   14  O   UNK N   1      30.525  17.947   8.393  0.00  0.00    -0.271 OA
HETATM   15  C   UNK N   1      28.920  18.051   8.764  0.00  0.00     0.048 A 
HETATM   16  N   UNK N   1      27.607  18.275   9.281  0.00  0.00    -0.428 N 
HETATM   17  C   UNK N   1      28.961  18.502   9.454  0.00  0.00     0.035 A 
HETATM   18  C   UNK N   1      29.653  18.300   9.051  0.00  0.00     0.035 A 
HETATM   19  C   UNK N   1      28.527  16.082   5.781  0.00  0.00     0.012 A 
HETATM   20  C   UNK N   1      27.968  15.720   5.295  0.00  0.00     0.037 A 
HETATM   21  C   UNK N   1      27.165  15.772   5.480  0.00  0.00     0.065 A 
HETATM   22  C   UNK N   1      26.923  16.187   6.152  0.00  0.00     0.037 A 
HETATM   23  C   UNK N   1      27.482  16.549   6.636  0.00  0.00     0.012 A 
HETATM   24  O   UNK N   1      26.605  15.409   4.995  0.00  0.00    -0.361 OA
HETATM   25  C   UNK N   1      32.931  17.790   7.837  0.00  0.00    -0.044 A 
HETATM   26  C   UNK N   1      33.492  18.153   8.323  0.00  0.00     0.008 A 
HETATM   27  C   UNK N   1      34.294  18.100   8.137  0.00  0.00     0.001 A 
HETATM   28  C   UNK N   1      34.536  17.686   7.466  0.00  0.00     0.000 A 
HETATM   29  C   UNK N   1      33.976  17.323   6.981  0.00  0.00     0.001 A 
HETATM   30  C   UNK N   1      33.174  17.376   7.167  0.00  0.00     0.008 A 
HETATM   31  O   UNK N   1      32.173  17.211   7.043  0.00  0.00    -0.228 OA
HETATM   32  O   UNK N   1      30.966  17.750   8.032  0.00  0.00    -0.228 OA
HETATM   33  C   UNK N   1      28.104  17.947   8.709  0.00  0.00     0.142 A 
HETATM   34  H   UNK N   1      29.947  16.294   5.922  0.00  0.00     0.155 HD
HETATM   35  H   UNK N   1      28.494  17.204   7.514  0.00  0.00     0.163 HD
HETATM   36  H   UNK N   1      28.003  18.811  10.054  0.00  0.00     0.150 HD
HETATM   37  H   UNK N   1      26.598  18.146   9.214  0.00  0.00     0.150 HD
HETATM   38  H   UNK N   1      25.694  15.469   5.206  0.00  0.00     0.217 HD
ENDROOT
TORSDOF 2
ENDMDL
MODEL 9
REMARK VINA RESULT:     -11.7     10.070     11.778
REMARK  2 active torsions:
REMARK  status: ('A' for Active; 'I' for Inactive)
REMARK    1  A    between atoms: C_22  and  C_23 
REMARK    2  A    between atoms: C_29  and  C_30 
ROOT
HETATM    1  C   UNK N   1      32.766  17.384   6.118  0.00  0.00     0.411 A 
HETATM    2  C   UNK N   1      32.162  17.208   5.584  0.00  0.00     0.219 A 
HETATM    3  N   UNK N   1      31.380  17.168   5.844  0.00  0.00    -0.393 N 
HETATM    4  C   UNK N   1      32.341  17.074   4.790  0.00  0.00    -0.027 A 
HETATM    5  F   UNK N   1      32.211  17.438   6.728  0.00  0.00    -0.168 F 
HETATM    6  F   UNK N   1      33.320  17.329   5.510  0.00  0.00    -0.168 F 
HETATM    7  F   UNK N   1      33.369  17.559   6.654  0.00  0.00    -0.168 F 
HETATM    8  C   UNK N   1      31.202  17.302   6.638  0.00  0.00     0.184 A 
HETATM    9  C   UNK N   1      31.805  17.477   7.173  0.00  0.00     0.241 A 
HETATM   10  C   UNK N   1      30.420  17.261   6.897  0.00  0.00     0.175 A 
HETATM   11  S   UNK N   1      30.241  17.396   7.692  0.00  0.00     0.150 SA
HETATM   12  C   UNK N   1      30.063  17.531   8.486  0.00  0.00     0.178 A 
HETATM   13  N   UNK N   1      32.587  17.518   6.913  0.00  0.00    -0.348 N 
HETATM   14  O   UNK N   1      31.627  17.612   7.967  0.00  0.00    -0.271 OA
HETATM   15  C   UNK N   1      33.191  17.693   7.447  0.00  0.00     0.048 A 
HETATM   16  N   UNK N   1      34.599  17.817   7.234  0.00  0.00    -0.428 N 
HETATM   17  C   UNK N   1      33.569  17.877   8.157  0.00  0.00     0.035 A 
HETATM   18  C   UNK N   1      32.750  17.777   8.140  0.00  0.00     0.035 A 
HETATM   19  C   UNK N   1      31.737  16.898   4.256  0.00  0.00     0.012 A 
HETATM   20  C   UNK N   1      31.915  16.764   3.461  0.00  0.00     0.037 A 
HETATM   21  C   UNK N   1      32.697  16.805   3.202  0.00  0.00     0.065 A 
HETATM   22  C   UNK N   1      33.301  16.980   3.736  0.00  0.00     0.037 A 
HETATM   23  C   UNK N   1      33.122  17.114   4.530  0.00  0.00     0.012 A 
HETATM   24  O   UNK N   1      32.875  16.670   2.407  0.00  0.00    -0.361 OA
HETATM   25  C   UNK N   1      29.281  17.490   8.746  0.00  0.00    -0.044 A 
HETATM   26  C   UNK N   1      29.103  17.625   9.541  0.00  0.00     0.008 A 
HETATM   27  C   UNK N   1      28.321  17.584   9.800  0.00  0.00     0.001 A 
HETATM   28  C   UNK N   1      27.717  17.408   9.266  0.00  0.00     0.000 A 
HETATM   29  C   UNK N   1      27.896  17.274   8.472  0.00  0.00     0.001 A 
HETATM   30  C   UNK N   1      28.678  17.315   8.212  0.00  0.00     0.008 A 
HETATM   31  O   UNK N   1      29.441  17.271   7.534  0.00  0.00    -0.228 OA
HETATM   32  O   UNK N   1      31.042  17.521   7.851  0.00  0.00    -0.228 OA
HETATM   33  C   UNK N   1      33.841  17.670   6.941  0.00  0.00     0.142 A 
HETATM   34  H   UNK N   1      30.634  16.951   5.183  0.00  0.00     0.155 HD
HETATM   35  H   UNK N   1      32.800  17.358   5.965  0.00  0.00     0.163 HD
HETATM   36  H   UNK N   1      34.730  18.026   8.225  0.00  0.00     0.150 HD
HETATM   37  H   UNK N   1      35.403  17.788   6.609  0.00  0.00     0.150 HD
HETATM   38  H   UNK N   1      33.764  16.716   2.112  0.00  0.00     0.217 HD
ENDROOT
TORSDOF 2
ENDMDL
