MODEL 1
REMARK VINA RESULT:      -5.9      0.000      0.000
REMARK  9 active torsions:
REMARK  status: ('A' for Active; 'I' for Inactive)
REMARK    1  A    between atoms: O_1  and  C_2 
REMARK    2  A    between atoms: C_2  and  C_3 
REMARK    3  A    between atoms: C_3  and  C_5 
REMARK    4  A    between atoms: C_3  and  N_4 
REMARK    5  A    between atoms: C_5  and  S_6 
REMARK    6  A    between atoms: S_6  and  C_7 
REMARK    7  A    between atoms: C_7  and  C_8 
REMARK    8  A    between atoms: C_8  and  C_9 
REMARK    9  A    between atoms: C_9  and  C_11 
ROOT
HETATM    1  C   UNK N   1      34.467  14.599   7.302  0.00  0.00     0.081 C 
ENDROOT
BRANCH   1   2
HETATM    2  S   UNK N   1      35.929  14.451   8.362  0.00  0.00    -0.166 SA
BRANCH   2   3
HETATM    3  C   UNK N   1      34.961  13.858   9.794  0.00  0.00     0.109 C 
BRANCH   3   4
HETATM    4  C   UNK N   1      34.579  14.938  10.812  0.00  0.00     0.182 C 
BRANCH   4   5
HETATM    5  C   UNK N   1      35.358  16.216  10.618  0.00  0.00     0.163 C 
HETATM    6  O   UNK N   1      36.549  16.256  10.883  0.00  0.00    -0.648 OA
BRANCH   5   7
HETATM    7  O   UNK N   1      34.740  17.331  10.185  0.00  0.00    -0.775 OA
HETATM    8  H   UNK N   1      33.804  17.380  10.187  0.00  0.00     0.167 HD
ENDBRANCH   5   7
ENDBRANCH   4   5
BRANCH   4   9
HETATM    9  N   UNK N   1      33.155  15.195  10.678  0.00  0.00    -0.417 N 
HETATM   10  H   UNK N   1      32.793  16.147  10.628  0.00  0.00     0.150 HD
HETATM   11  H   UNK N   1      32.507  14.409  10.634  0.00  0.00     0.150 HD
ENDBRANCH   4   9
ENDBRANCH   3   4
ENDBRANCH   2   3
ENDBRANCH   1   2
BRANCH   1  12
HETATM   12  C   UNK N   1      34.597  15.832   6.433  0.00  0.00     0.094 C 
BRANCH  12  13
HETATM   13  C   UNK N   1      33.896  17.076   6.933  0.00  0.00     0.160 C 
HETATM   14  O   UNK N   1      34.595  18.049   7.168  0.00  0.00    -0.292 OA
BRANCH  13  15
HETATM   15  C   UNK N   1      32.415  17.200   7.121  0.00  0.00     0.011 A 
HETATM   16  C   UNK N   1      31.553  16.676   6.146  0.00  0.00     0.017 A 
HETATM   17  C   UNK N   1      30.166  16.758   6.304  0.00  0.00     0.026 A 
HETATM   18  C   UNK N   1      29.621  17.366   7.438  0.00  0.00     0.055 A 
HETATM   19 Cl   UNK N   1      27.875  17.446   7.608  0.00  0.00    -0.083 Cl
HETATM   20  C   UNK N   1      30.472  17.899   8.417  0.00  0.00     0.056 A 
HETATM   21  C   UNK N   1      31.853  17.808   8.253  0.00  0.00     0.040 A 
HETATM   22 Cl   UNK N   1      29.840  18.681   9.858  0.00  0.00    -0.083 Cl
ENDBRANCH  13  15
ENDBRANCH  12  13
ENDBRANCH   1  12
TORSDOF 9
ENDMDL
MODEL 2
REMARK VINA RESULT:      -5.8      2.802      3.410
REMARK  9 active torsions:
REMARK  status: ('A' for Active; 'I' for Inactive)
REMARK    1  A    between atoms: O_1  and  C_2 
REMARK    2  A    between atoms: C_2  and  C_3 
REMARK    3  A    between atoms: C_3  and  C_5 
REMARK    4  A    between atoms: C_3  and  N_4 
REMARK    5  A    between atoms: C_5  and  S_6 
REMARK    6  A    between atoms: S_6  and  C_7 
REMARK    7  A    between atoms: C_7  and  C_8 
REMARK    8  A    between atoms: C_8  and  C_9 
REMARK    9  A    between atoms: C_9  and  C_11 
ROOT
HETATM    1  C   UNK N   1      35.073  15.668   9.177  0.00  0.00     0.081 C 
ENDROOT
BRANCH   1   2
HETATM    2  S   UNK N   1      36.301  14.961  10.306  0.00  0.00    -0.166 SA
BRANCH   2   3
HETATM    3  C   UNK N   1      35.033  14.316  11.452  0.00  0.00     0.109 C 
BRANCH   3   4
HETATM    4  C   UNK N   1      35.514  13.210  12.397  0.00  0.00     0.182 C 
BRANCH   4   5
HETATM    5  C   UNK N   1      35.788  13.719  13.791  0.00  0.00     0.163 C 
HETATM    6  O   UNK N   1      35.019  13.458  14.703  0.00  0.00    -0.648 OA
BRANCH   5   7
HETATM    7  O   UNK N   1      36.862  14.495  14.034  0.00  0.00    -0.775 OA
HETATM    8  H   UNK N   1      37.705  14.103  14.158  0.00  0.00     0.167 HD
ENDBRANCH   5   7
ENDBRANCH   4   5
BRANCH   4   9
HETATM    9  N   UNK N   1      34.491  12.178  12.435  0.00  0.00    -0.417 N 
HETATM   10  H   UNK N   1      34.329  11.565  11.636  0.00  0.00     0.150 HD
HETATM   11  H   UNK N   1      33.924  12.067  13.276  0.00  0.00     0.150 HD
ENDBRANCH   4   9
ENDBRANCH   3   4
ENDBRANCH   2   3
ENDBRANCH   1   2
BRANCH   1  12
HETATM   12  C   UNK N   1      34.837  17.120   9.534  0.00  0.00     0.094 C 
BRANCH  12  13
HETATM   13  C   UNK N   1      34.405  18.022   8.398  0.00  0.00     0.160 C 
HETATM   14  O   UNK N   1      35.014  19.072   8.263  0.00  0.00    -0.292 OA
BRANCH  13  15
HETATM   15  C   UNK N   1      33.318  17.698   7.420  0.00  0.00     0.011 A 
HETATM   16  C   UNK N   1      32.002  17.542   7.882  0.00  0.00     0.017 A 
HETATM   17  C   UNK N   1      30.964  17.261   6.989  0.00  0.00     0.026 A 
HETATM   18  C   UNK N   1      31.225  17.129   5.623  0.00  0.00     0.055 A 
HETATM   19 Cl   UNK N   1      29.896  16.782   4.529  0.00  0.00    -0.083 Cl
HETATM   20  C   UNK N   1      32.537  17.277   5.149  0.00  0.00     0.056 A 
HETATM   21  C   UNK N   1      33.565  17.563   6.046  0.00  0.00     0.040 A 
HETATM   22 Cl   UNK N   1      32.922  17.114   3.443  0.00  0.00    -0.083 Cl
ENDBRANCH  13  15
ENDBRANCH  12  13
ENDBRANCH   1  12
TORSDOF 9
ENDMDL
MODEL 3
REMARK VINA RESULT:      -5.7      5.524      8.333
REMARK  9 active torsions:
REMARK  status: ('A' for Active; 'I' for Inactive)
REMARK    1  A    between atoms: O_1  and  C_2 
REMARK    2  A    between atoms: C_2  and  C_3 
REMARK    3  A    between atoms: C_3  and  C_5 
REMARK    4  A    between atoms: C_3  and  N_4 
REMARK    5  A    between atoms: C_5  and  S_6 
REMARK    6  A    between atoms: S_6  and  C_7 
REMARK    7  A    between atoms: C_7  and  C_8 
REMARK    8  A    between atoms: C_8  and  C_9 
REMARK    9  A    between atoms: C_9  and  C_11 
ROOT
HETATM    1  C   UNK N   1      35.065  14.701  11.638  0.00  0.00     0.081 C 
ENDROOT
BRANCH   1   2
HETATM    2  S   UNK N   1      35.663  16.242  10.898  0.00  0.00    -0.166 SA
BRANCH   2   3
HETATM    3  C   UNK N   1      34.608  16.067   9.417  0.00  0.00     0.109 C 
BRANCH   3   4
HETATM    4  C   UNK N   1      33.820  17.322   9.028  0.00  0.00     0.182 C 
BRANCH   4   5
HETATM    5  C   UNK N   1      34.577  18.206   8.069  0.00  0.00     0.163 C 
HETATM    6  O   UNK N   1      35.236  19.145   8.487  0.00  0.00    -0.648 OA
BRANCH   5   7
HETATM    7  O   UNK N   1      34.507  17.988   6.741  0.00  0.00    -0.775 OA
HETATM    8  H   UNK N   1      34.149  17.186   6.416  0.00  0.00     0.167 HD
ENDBRANCH   5   7
ENDBRANCH   4   5
BRANCH   4   9
HETATM    9  N   UNK N   1      32.565  16.895   8.430  0.00  0.00    -0.417 N 
HETATM   10  H   UNK N   1      31.731  16.752   8.999  0.00  0.00     0.150 HD
HETATM   11  H   UNK N   1      32.520  16.735   7.424  0.00  0.00     0.150 HD
ENDBRANCH   4   9
ENDBRANCH   3   4
ENDBRANCH   2   3
ENDBRANCH   1   2
BRANCH   1  12
HETATM   12  C   UNK N   1      36.215  13.989  12.318  0.00  0.00     0.094 C 
BRANCH  12  13
HETATM   13  C   UNK N   1      36.270  14.105  13.826  0.00  0.00     0.160 C 
HETATM   14  O   UNK N   1      36.680  15.160  14.285  0.00  0.00    -0.292 OA
BRANCH  13  15
HETATM   15  C   UNK N   1      35.824  13.039  14.779  0.00  0.00     0.011 A 
HETATM   16  C   UNK N   1      35.499  11.767  14.283  0.00  0.00     0.017 A 
HETATM   17  C   UNK N   1      35.102  10.746  15.151  0.00  0.00     0.026 A 
HETATM   18  C   UNK N   1      35.021  10.981  16.526  0.00  0.00     0.055 A 
HETATM   19 Cl   UNK N   1      34.523   9.674  17.588  0.00  0.00    -0.083 Cl
HETATM   20  C   UNK N   1      35.338  12.249  17.033  0.00  0.00     0.056 A 
HETATM   21  C   UNK N   1      35.739  13.260  16.161  0.00  0.00     0.040 A 
HETATM   22 Cl   UNK N   1      35.246  12.601  18.752  0.00  0.00    -0.083 Cl
ENDBRANCH  13  15
ENDBRANCH  12  13
ENDBRANCH   1  12
TORSDOF 9
ENDMDL
MODEL 4
REMARK VINA RESULT:      -5.7      2.404      2.978
REMARK  9 active torsions:
REMARK  status: ('A' for Active; 'I' for Inactive)
REMARK    1  A    between atoms: O_1  and  C_2 
REMARK    2  A    between atoms: C_2  and  C_3 
REMARK    3  A    between atoms: C_3  and  C_5 
REMARK    4  A    between atoms: C_3  and  N_4 
REMARK    5  A    between atoms: C_5  and  S_6 
REMARK    6  A    between atoms: S_6  and  C_7 
REMARK    7  A    between atoms: C_7  and  C_8 
REMARK    8  A    between atoms: C_8  and  C_9 
REMARK    9  A    between atoms: C_9  and  C_11 
ROOT
HETATM    1  C   UNK N   1      34.954  15.626   9.010  0.00  0.00     0.081 C 
ENDROOT
BRANCH   1   2
HETATM    2  S   UNK N   1      33.865  14.654  10.083  0.00  0.00    -0.166 SA
BRANCH   2   3
HETATM    3  C   UNK N   1      34.882  14.960  11.571  0.00  0.00     0.109 C 
BRANCH   3   4
HETATM    4  C   UNK N   1      35.518  13.712  12.191  0.00  0.00     0.182 C 
BRANCH   4   5
HETATM    5  C   UNK N   1      35.793  13.876  13.665  0.00  0.00     0.163 C 
HETATM    6  O   UNK N   1      34.977  13.494  14.490  0.00  0.00    -0.648 OA
BRANCH   5   7
HETATM    7  O   UNK N   1      36.924  14.476  14.085  0.00  0.00    -0.775 OA
HETATM    8  H   UNK N   1      37.037  15.399  13.966  0.00  0.00     0.167 HD
ENDBRANCH   5   7
ENDBRANCH   4   5
BRANCH   4   9
HETATM    9  N   UNK N   1      34.613  12.595  11.974  0.00  0.00    -0.417 N 
HETATM   10  H   UNK N   1      34.879  11.643  12.227  0.00  0.00     0.150 HD
HETATM   11  H   UNK N   1      33.697  12.766  11.560  0.00  0.00     0.150 HD
ENDBRANCH   4   9
ENDBRANCH   3   4
ENDBRANCH   2   3
ENDBRANCH   1   2
BRANCH   1  12
HETATM   12  C   UNK N   1      34.885  17.085   9.410  0.00  0.00     0.094 C 
BRANCH  12  13
HETATM   13  C   UNK N   1      34.423  18.047   8.338  0.00  0.00     0.160 C 
HETATM   14  O   UNK N   1      34.982  19.131   8.289  0.00  0.00    -0.292 OA
BRANCH  13  15
HETATM   15  C   UNK N   1      33.364  17.746   7.323  0.00  0.00     0.011 A 
HETATM   16  C   UNK N   1      33.719  17.643   5.969  0.00  0.00     0.017 A 
HETATM   17  C   UNK N   1      32.756  17.341   5.002  0.00  0.00     0.026 A 
HETATM   18  C   UNK N   1      31.424  17.139   5.372  0.00  0.00     0.055 A 
HETATM   19 Cl   UNK N   1      30.242  16.755   4.132  0.00  0.00    -0.083 Cl
HETATM   20  C   UNK N   1      31.055  17.244   6.721  0.00  0.00     0.056 A 
HETATM   21  C   UNK N   1      32.023  17.540   7.679  0.00  0.00     0.040 A 
HETATM   22 Cl   UNK N   1      29.393  17.008   7.241  0.00  0.00    -0.083 Cl
ENDBRANCH  13  15
ENDBRANCH  12  13
ENDBRANCH   1  12
TORSDOF 9
ENDMDL
MODEL 5
REMARK VINA RESULT:      -5.5     11.688     13.481
REMARK  9 active torsions:
REMARK  status: ('A' for Active; 'I' for Inactive)
REMARK    1  A    between atoms: O_1  and  C_2 
REMARK    2  A    between atoms: C_2  and  C_3 
REMARK    3  A    between atoms: C_3  and  C_5 
REMARK    4  A    between atoms: C_3  and  N_4 
REMARK    5  A    between atoms: C_5  and  S_6 
REMARK    6  A    between atoms: S_6  and  C_7 
REMARK    7  A    between atoms: C_7  and  C_8 
REMARK    8  A    between atoms: C_8  and  C_9 
REMARK    9  A    between atoms: C_9  and  C_11 
ROOT
HETATM    1  C   UNK N   1      20.503  16.556   4.809  0.00  0.00     0.081 C 
ENDROOT
BRANCH   1   2
HETATM    2  S   UNK N   1      21.352  17.357   3.423  0.00  0.00    -0.166 SA
BRANCH   2   3
HETATM    3  C   UNK N   1      21.083  19.037   4.092  0.00  0.00     0.109 C 
BRANCH   3   4
HETATM    4  C   UNK N   1      20.297  19.982   3.177  0.00  0.00     0.182 C 
BRANCH   4   5
HETATM    5  C   UNK N   1      21.197  20.822   2.305  0.00  0.00     0.163 C 
HETATM    6  O   UNK N   1      21.127  20.739   1.088  0.00  0.00    -0.648 OA
BRANCH   5   7
HETATM    7  O   UNK N   1      22.109  21.645   2.858  0.00  0.00    -0.775 OA
HETATM    8  H   UNK N   1      22.621  22.211   2.315  0.00  0.00     0.167 HD
ENDBRANCH   5   7
ENDBRANCH   4   5
BRANCH   4   9
HETATM    9  N   UNK N   1      19.415  19.174   2.351  0.00  0.00    -0.417 N 
HETATM   10  H   UNK N   1      19.768  18.372   1.829  0.00  0.00     0.150 HD
HETATM   11  H   UNK N   1      18.425  19.414   2.294  0.00  0.00     0.150 HD
ENDBRANCH   4   9
ENDBRANCH   3   4
ENDBRANCH   2   3
ENDBRANCH   1   2
BRANCH   1  12
HETATM   12  C   UNK N   1      21.163  16.963   6.109  0.00  0.00     0.094 C 
BRANCH  12  13
HETATM   13  C   UNK N   1      22.082  15.939   6.738  0.00  0.00     0.160 C 
HETATM   14  O   UNK N   1      23.222  15.878   6.305  0.00  0.00    -0.292 OA
BRANCH  13  15
HETATM   15  C   UNK N   1      21.700  15.033   7.868  0.00  0.00     0.011 A 
HETATM   16  C   UNK N   1      20.547  15.317   8.615  0.00  0.00     0.017 A 
HETATM   17  C   UNK N   1      20.153  14.478   9.661  0.00  0.00     0.026 A 
HETATM   18  C   UNK N   1      20.906  13.344   9.977  0.00  0.00     0.055 A 
HETATM   19 Cl   UNK N   1      20.379  12.309  11.294  0.00  0.00    -0.083 Cl
HETATM   20  C   UNK N   1      22.063  13.052   9.242  0.00  0.00     0.056 A 
HETATM   21  C   UNK N   1      22.445  13.892   8.197  0.00  0.00     0.040 A 
HETATM   22 Cl   UNK N   1      23.052  11.645   9.601  0.00  0.00    -0.083 Cl
ENDBRANCH  13  15
ENDBRANCH  12  13
ENDBRANCH   1  12
TORSDOF 9
ENDMDL
MODEL 6
REMARK VINA RESULT:      -5.5      5.876      8.615
REMARK  9 active torsions:
REMARK  status: ('A' for Active; 'I' for Inactive)
REMARK    1  A    between atoms: O_1  and  C_2 
REMARK    2  A    between atoms: C_2  and  C_3 
REMARK    3  A    between atoms: C_3  and  C_5 
REMARK    4  A    between atoms: C_3  and  N_4 
REMARK    5  A    between atoms: C_5  and  S_6 
REMARK    6  A    between atoms: S_6  and  C_7 
REMARK    7  A    between atoms: C_7  and  C_8 
REMARK    8  A    between atoms: C_8  and  C_9 
REMARK    9  A    between atoms: C_9  and  C_11 
ROOT
HETATM    1  C   UNK N   1      37.272  13.027  11.823  0.00  0.00     0.081 C 
ENDROOT
BRANCH   1   2
HETATM    2  S   UNK N   1      36.763  13.473  10.143  0.00  0.00    -0.166 SA
BRANCH   2   3
HETATM    3  C   UNK N   1      36.381  15.199  10.602  0.00  0.00     0.109 C 
BRANCH   3   4
HETATM    4  C   UNK N   1      35.176  15.812   9.880  0.00  0.00     0.182 C 
BRANCH   4   5
HETATM    5  C   UNK N   1      33.938  14.958   9.997  0.00  0.00     0.163 C 
HETATM    6  O   UNK N   1      33.570  14.277   9.052  0.00  0.00    -0.648 OA
BRANCH   5   7
HETATM    7  O   UNK N   1      33.208  14.965  11.129  0.00  0.00    -0.775 OA
HETATM    8  H   UNK N   1      33.312  15.660  11.749  0.00  0.00     0.167 HD
ENDBRANCH   5   7
ENDBRANCH   4   5
BRANCH   4   9
HETATM    9  N   UNK N   1      34.932  17.126  10.453  0.00  0.00    -0.417 N 
HETATM   10  H   UNK N   1      34.758  17.937   9.860  0.00  0.00     0.150 HD
HETATM   11  H   UNK N   1      34.936  17.238  11.467  0.00  0.00     0.150 HD
ENDBRANCH   4   9
ENDBRANCH   3   4
ENDBRANCH   2   3
ENDBRANCH   1   2
BRANCH   1  12
HETATM   12  C   UNK N   1      36.288  12.033  12.402  0.00  0.00     0.094 C 
BRANCH  12  13
HETATM   13  C   UNK N   1      35.343  12.569  13.455  0.00  0.00     0.160 C 
HETATM   14  O   UNK N   1      34.553  13.431  13.102  0.00  0.00    -0.292 OA
BRANCH  13  15
HETATM   15  C   UNK N   1      35.289  12.091  14.873  0.00  0.00     0.011 A 
HETATM   16  C   UNK N   1      35.282  10.712  15.133  0.00  0.00     0.017 A 
HETATM   17  C   UNK N   1      35.255  10.237  16.447  0.00  0.00     0.026 A 
HETATM   18  C   UNK N   1      35.233  11.131  17.520  0.00  0.00     0.055 A 
HETATM   19 Cl   UNK N   1      35.205  10.499  19.158  0.00  0.00    -0.083 Cl
HETATM   20  C   UNK N   1      35.235  12.512  17.274  0.00  0.00     0.056 A 
HETATM   21  C   UNK N   1      35.267  12.977  15.960  0.00  0.00     0.040 A 
HETATM   22 Cl   UNK N   1      35.200  13.681  18.585  0.00  0.00    -0.083 Cl
ENDBRANCH  13  15
ENDBRANCH  12  13
ENDBRANCH   1  12
TORSDOF 9
ENDMDL
MODEL 7
REMARK VINA RESULT:      -5.3     11.299     13.364
REMARK  9 active torsions:
REMARK  status: ('A' for Active; 'I' for Inactive)
REMARK    1  A    between atoms: O_1  and  C_2 
REMARK    2  A    between atoms: C_2  and  C_3 
REMARK    3  A    between atoms: C_3  and  C_5 
REMARK    4  A    between atoms: C_3  and  N_4 
REMARK    5  A    between atoms: C_5  and  S_6 
REMARK    6  A    between atoms: S_6  and  C_7 
REMARK    7  A    between atoms: C_7  and  C_8 
REMARK    8  A    between atoms: C_8  and  C_9 
REMARK    9  A    between atoms: C_9  and  C_11 
ROOT
HETATM    1  C   UNK N   1      22.085  16.401   5.046  0.00  0.00     0.081 C 
ENDROOT
BRANCH   1   2
HETATM    2  S   UNK N   1      21.555  18.132   4.968  0.00  0.00    -0.166 SA
BRANCH   2   3
HETATM    3  C   UNK N   1      20.767  17.928   3.332  0.00  0.00     0.109 C 
BRANCH   3   4
HETATM    4  C   UNK N   1      20.040  19.169   2.802  0.00  0.00     0.182 C 
BRANCH   4   5
HETATM    5  C   UNK N   1      20.831  19.891   1.739  0.00  0.00     0.163 C 
HETATM    6  O   UNK N   1      21.672  20.718   2.054  0.00  0.00    -0.648 OA
BRANCH   5   7
HETATM    7  O   UNK N   1      20.591  19.657   0.435  0.00  0.00    -0.775 OA
HETATM    8  H   UNK N   1      20.387  18.790   0.143  0.00  0.00     0.167 HD
ENDBRANCH   5   7
ENDBRANCH   4   5
BRANCH   4   9
HETATM    9  N   UNK N   1      18.758  18.742   2.268  0.00  0.00    -0.417 N 
HETATM   10  H   UNK N   1      18.021  19.416   2.061  0.00  0.00     0.150 HD
HETATM   11  H   UNK N   1      18.593  17.750   2.097  0.00  0.00     0.150 HD
ENDBRANCH   4   9
ENDBRANCH   3   4
ENDBRANCH   2   3
ENDBRANCH   1   2
BRANCH   1  12
HETATM   12  C   UNK N   1      21.896  15.880   6.455  0.00  0.00     0.094 C 
BRANCH  12  13
HETATM   13  C   UNK N   1      22.202  14.413   6.667  0.00  0.00     0.160 C 
HETATM   14  O   UNK N   1      22.252  13.709   5.671  0.00  0.00    -0.292 OA
BRANCH  13  15
HETATM   15  C   UNK N   1      22.480  13.786   7.999  0.00  0.00     0.011 A 
HETATM   16  C   UNK N   1      23.809  13.563   8.388  0.00  0.00     0.017 A 
HETATM   17  C   UNK N   1      24.100  13.000   9.634  0.00  0.00     0.026 A 
HETATM   18  C   UNK N   1      23.068  12.649  10.508  0.00  0.00     0.055 A 
HETATM   19 Cl   UNK N   1      23.469  11.949  12.067  0.00  0.00    -0.083 Cl
HETATM   20  C   UNK N   1      21.735  12.862  10.128  0.00  0.00     0.056 A 
HETATM   21  C   UNK N   1      21.454  13.429   8.886  0.00  0.00     0.040 A 
HETATM   22 Cl   UNK N   1      20.397  12.432  11.184  0.00  0.00    -0.083 Cl
ENDBRANCH  13  15
ENDBRANCH  12  13
ENDBRANCH   1  12
TORSDOF 9
ENDMDL
MODEL 8
REMARK VINA RESULT:      -5.2      4.090      5.592
REMARK  9 active torsions:
REMARK  status: ('A' for Active; 'I' for Inactive)
REMARK    1  A    between atoms: O_1  and  C_2 
REMARK    2  A    between atoms: C_2  and  C_3 
REMARK    3  A    between atoms: C_3  and  C_5 
REMARK    4  A    between atoms: C_3  and  N_4 
REMARK    5  A    between atoms: C_5  and  S_6 
REMARK    6  A    between atoms: S_6  and  C_7 
REMARK    7  A    between atoms: C_7  and  C_8 
REMARK    8  A    between atoms: C_8  and  C_9 
REMARK    9  A    between atoms: C_9  and  C_11 
ROOT
HETATM    1  C   UNK N   1      29.707  17.202   8.361  0.00  0.00     0.081 C 
ENDROOT
BRANCH   1   2
HETATM    2  S   UNK N   1      31.251  16.995   7.436  0.00  0.00    -0.166 SA
BRANCH   2   3
HETATM    3  C   UNK N   1      32.295  17.403   8.878  0.00  0.00     0.109 C 
BRANCH   3   4
HETATM    4  C   UNK N   1      33.788  17.100   8.706  0.00  0.00     0.182 C 
BRANCH   4   5
HETATM    5  C   UNK N   1      34.491  18.130   7.857  0.00  0.00     0.163 C 
HETATM    6  O   UNK N   1      35.024  19.097   8.380  0.00  0.00    -0.648 OA
BRANCH   5   7
HETATM    7  O   UNK N   1      34.508  18.011   6.516  0.00  0.00    -0.775 OA
HETATM    8  H   UNK N   1      34.505  17.162   6.120  0.00  0.00     0.167 HD
ENDBRANCH   5   7
ENDBRANCH   4   5
BRANCH   4   9
HETATM    9  N   UNK N   1      34.388  17.048  10.029  0.00  0.00    -0.417 N 
HETATM   10  H   UNK N   1      35.232  16.502  10.205  0.00  0.00     0.150 HD
HETATM   11  H   UNK N   1      33.958  17.567  10.795  0.00  0.00     0.150 HD
ENDBRANCH   4   9
ENDBRANCH   3   4
ENDBRANCH   2   3
ENDBRANCH   1   2
BRANCH   1  12
HETATM   12  C   UNK N   1      28.787  18.136   7.604  0.00  0.00     0.094 C 
BRANCH  12  13
HETATM   13  C   UNK N   1      27.968  17.510   6.496  0.00  0.00     0.160 C 
HETATM   14  O   UNK N   1      27.932  16.290   6.457  0.00  0.00    -0.292 OA
BRANCH  13  15
HETATM   15  C   UNK N   1      27.180  18.280   5.482  0.00  0.00     0.011 A 
HETATM   16  C   UNK N   1      27.801  19.321   4.775  0.00  0.00     0.017 A 
HETATM   17  C   UNK N   1      27.097  20.042   3.807  0.00  0.00     0.026 A 
HETATM   18  C   UNK N   1      25.762  19.735   3.531  0.00  0.00     0.055 A 
HETATM   19 Cl   UNK N   1      24.909  20.658   2.304  0.00  0.00    -0.083 Cl
HETATM   20  C   UNK N   1      25.128  18.701   4.234  0.00  0.00     0.056 A 
HETATM   21  C   UNK N   1      25.840  17.983   5.194  0.00  0.00     0.040 A 
HETATM   22 Cl   UNK N   1      23.449  18.278   3.933  0.00  0.00    -0.083 Cl
ENDBRANCH  13  15
ENDBRANCH  12  13
ENDBRANCH   1  12
TORSDOF 9
ENDMDL
MODEL 9
REMARK VINA RESULT:      -5.1      4.535      7.514
REMARK  9 active torsions:
REMARK  status: ('A' for Active; 'I' for Inactive)
REMARK    1  A    between atoms: O_1  and  C_2 
REMARK    2  A    between atoms: C_2  and  C_3 
REMARK    3  A    between atoms: C_3  and  C_5 
REMARK    4  A    between atoms: C_3  and  N_4 
REMARK    5  A    between atoms: C_5  and  S_6 
REMARK    6  A    between atoms: S_6  and  C_7 
REMARK    7  A    between atoms: C_7  and  C_8 
REMARK    8  A    between atoms: C_8  and  C_9 
REMARK    9  A    between atoms: C_9  and  C_11 
ROOT
HETATM    1  C   UNK N   1      35.227  16.032  10.050  0.00  0.00     0.081 C 
ENDROOT
BRANCH   1   2
HETATM    2  S   UNK N   1      33.692  15.140   9.688  0.00  0.00    -0.166 SA
BRANCH   2   3
HETATM    3  C   UNK N   1      33.878  15.337   7.881  0.00  0.00     0.109 C 
BRANCH   3   4
HETATM    4  C   UNK N   1      33.015  16.438   7.255  0.00  0.00     0.182 C 
BRANCH   4   5
HETATM    5  C   UNK N   1      33.841  17.534   6.630  0.00  0.00     0.163 C 
HETATM    6  O   UNK N   1      34.623  18.179   7.311  0.00  0.00    -0.648 OA
BRANCH   5   7
HETATM    7  O   UNK N   1      33.698  17.835   5.325  0.00  0.00    -0.775 OA
HETATM    8  H   UNK N   1      34.436  18.130   4.828  0.00  0.00     0.167 HD
ENDBRANCH   5   7
ENDBRANCH   4   5
BRANCH   4   9
HETATM    9  N   UNK N   1      32.162  15.821   6.253  0.00  0.00    -0.417 N 
HETATM   10  H   UNK N   1      32.535  15.148   5.584  0.00  0.00     0.150 HD
HETATM   11  H   UNK N   1      31.172  16.067   6.218  0.00  0.00     0.150 HD
ENDBRANCH   4   9
ENDBRANCH   3   4
ENDBRANCH   2   3
ENDBRANCH   1   2
BRANCH   1  12
HETATM   12  C   UNK N   1      35.582  15.853  11.511  0.00  0.00     0.094 C 
BRANCH  12  13
HETATM   13  C   UNK N   1      36.153  14.505  11.896  0.00  0.00     0.160 C 
HETATM   14  O   UNK N   1      36.895  13.968  11.089  0.00  0.00    -0.292 OA
BRANCH  13  15
HETATM   15  C   UNK N   1      35.899  13.816  13.201  0.00  0.00     0.011 A 
HETATM   16  C   UNK N   1      36.573  14.253  14.351  0.00  0.00     0.017 A 
HETATM   17  C   UNK N   1      36.340  13.643  15.587  0.00  0.00     0.026 A 
HETATM   18  C   UNK N   1      35.433  12.586  15.692  0.00  0.00     0.055 A 
HETATM   19 Cl   UNK N   1      35.160  11.846  17.261  0.00  0.00    -0.083 Cl
HETATM   20  C   UNK N   1      34.757  12.135  14.548  0.00  0.00     0.056 A 
HETATM   21  C   UNK N   1      34.992  12.753  13.321  0.00  0.00     0.040 A 
HETATM   22 Cl   UNK N   1      33.612  10.805  14.621  0.00  0.00    -0.083 Cl
ENDBRANCH  13  15
ENDBRANCH  12  13
ENDBRANCH   1  12
TORSDOF 9
ENDMDL
