REMARK  9 active torsions:
REMARK  status: ('A' for Active; 'I' for Inactive)
REMARK    1  A    between atoms: O_1  and  C_2 
REMARK    2  A    between atoms: C_2  and  C_3 
REMARK    3  A    between atoms: C_3  and  C_5 
REMARK    4  A    between atoms: C_3  and  N_4 
REMARK    5  A    between atoms: C_5  and  S_6 
REMARK    6  A    between atoms: S_6  and  C_7 
REMARK    7  A    between atoms: C_7  and  C_8 
REMARK    8  A    between atoms: C_8  and  C_9 
REMARK    9  A    between atoms: C_9  and  C_11 
ROOT
HETATM    1  C   UNK N   1       0.311   1.815   0.208  0.00  0.00     0.081 C 
ENDROOT
BRANCH   1   2
HETATM    2  S   UNK N   1      -0.428   1.735  -1.444  0.00  0.00    -0.166 SA
BRANCH   2   3
HETATM    3  C   UNK N   1      -1.662   0.482  -0.948  0.00  0.00     0.109 C 
BRANCH   3   4
HETATM    4  C   UNK N   1      -2.597   0.906   0.190  0.00  0.00     0.182 C 
BRANCH   4   5
HETATM    5  C   UNK N   1      -3.387   2.147  -0.144  0.00  0.00     0.163 C 
HETATM    6  O   UNK N   1      -2.813   3.208  -0.336  0.00  0.00    -0.648 OA
BRANCH   5   7
HETATM    7  O   UNK N   1      -4.732   2.105  -0.199  0.00  0.00    -0.775 OA
HETATM    8  H   UNK N   1      -5.225   2.901  -0.238  0.00  0.00     0.167 HD
ENDBRANCH   5   7
ENDBRANCH   4   5
BRANCH   4   9
HETATM    9  N   UNK N   1      -3.498  -0.201   0.464  0.00  0.00    -0.417 N 
HETATM   10  H   UNK N   1      -4.487  -0.042   0.657  0.00  0.00     0.150 HD
HETATM   11  H   UNK N   1      -3.134  -1.154   0.464  0.00  0.00     0.150 HD
ENDBRANCH   4   9
ENDBRANCH   3   4
ENDBRANCH   2   3
ENDBRANCH   1   2
BRANCH   1  12
HETATM   12  C   UNK N   1       0.810   3.220   0.470  0.00  0.00     0.094 C 
BRANCH  12  13
HETATM   13  C   UNK N   1       2.298   3.439   0.305  0.00  0.00     0.160 C 
HETATM   14  O   UNK N   1       2.691   4.595   0.312  0.00  0.00    -0.292 OA
BRANCH  13  15
HETATM   15  C   UNK N   1       3.310   2.343   0.173  0.00  0.00     0.011 A 
HETATM   16  C   UNK N   1       4.670   2.673   0.068  0.00  0.00     0.017 A 
HETATM   17  C   UNK N   1       5.639   1.671  -0.034  0.00  0.00     0.026 A 
HETATM   18  C   UNK N   1       5.264   0.325  -0.035  0.00  0.00     0.055 A 
HETATM   19 Cl   UNK N   1       6.508  -0.908  -0.159  0.00  0.00    -0.083 Cl
HETATM   20  C   UNK N   1       3.908  -0.018   0.064  0.00  0.00     0.056 A 
HETATM   21  C   UNK N   1       2.949   0.988   0.171  0.00  0.00     0.040 A 
HETATM   22 Cl   UNK N   1       3.380  -1.694   0.060  0.00  0.00    -0.083 Cl
ENDBRANCH  13  15
ENDBRANCH  12  13
ENDBRANCH   1  12
TORSDOF 9
