REMARK  3 active torsions:
REMARK  status: ('A' for Active; 'I' for Inactive)
REMARK       I    between atoms: C_2  and  N_3 
REMARK    1  A    between atoms: C_2  and  C_11 
REMARK    2  A    between atoms: N_3  and  C_4 
REMARK       I    between atoms: C_11  and  N_12 
REMARK    3  A    between atoms: N_12  and  C_13 
ROOT
HETATM    1  O   UNK N   1      -0.247  -1.610  -0.241  0.00  0.00    -0.262 OA
HETATM    2  C   UNK N   1      -0.409  -0.416  -0.032  0.00  0.00     0.315 C 
HETATM    3  N   UNK N   1      -1.657   0.117   0.050  0.00  0.00    -0.299 N 
HETATM    4  H   UNK N   1      -1.728   1.091   0.169  0.00  0.00     0.171 HD
ENDROOT
BRANCH   2   5
HETATM    5  C   UNK N   1       0.760   0.464   0.171  0.00  0.00     0.310 C 
HETATM    6  O   UNK N   1       0.581   1.644   0.439  0.00  0.00    -0.262 OA
HETATM    7  N   UNK N   1       2.019  -0.039   0.094  0.00  0.00    -0.348 N 
HETATM    8  H   UNK N   1       2.140  -0.977  -0.181  0.00  0.00     0.163 HD
BRANCH   7   9
HETATM    9  C   UNK N   1       3.192   0.753   0.403  0.00  0.00     0.084 C 
HETATM   10  C   UNK N   1       3.339   1.963  -0.488  0.00  0.00     0.025 C 
HETATM   11  C   UNK N   1       4.799   2.334  -0.336  0.00  0.00     0.002 C 
HETATM   12  C   UNK N   1       5.528   1.034  -0.021  0.00  0.00     0.002 C 
HETATM   13  C   UNK N   1       4.457  -0.030   0.157  0.00  0.00     0.025 C 
ENDBRANCH   7   9
ENDBRANCH   2   5
BRANCH   3  14
HETATM   14  C   UNK N   1      -2.866  -0.623  -0.025  0.00  0.00     0.151 A 
HETATM   15  N   UNK N   1      -2.957  -1.974  -0.068  0.00  0.00    -0.346 N 
HETATM   16  C   UNK N   1      -4.269  -2.402  -0.078  0.00  0.00     0.097 A 
ATOM     17  HN  UNK N   1      -2.152  -2.600  -0.090  1.00  0.00     0.167 HD
HETATM   18  C   UNK N   1      -5.238  -1.378  -0.037  0.00  0.00     0.070 A 
HETATM   19  S   UNK N   1      -4.370   0.034   0.012  0.00  0.00    -0.064 SA
ENDBRANCH   3  14
TORSDOF 3
