MODEL 1
REMARK VINA RESULT:      -6.0      0.000      0.000
REMARK  3 active torsions:
REMARK  status: ('A' for Active; 'I' for Inactive)
REMARK       I    between atoms: C_2  and  N_3 
REMARK    1  A    between atoms: C_2  and  C_11 
REMARK    2  A    between atoms: N_3  and  C_4 
REMARK       I    between atoms: C_11  and  N_12 
REMARK    3  A    between atoms: N_12  and  C_13 
ROOT
HETATM    1  O   UNK N   1      36.630  16.371  10.769  0.00  0.00    -0.262 OA
HETATM    2  C   UNK N   1      35.436  16.144  10.637  0.00  0.00     0.315 C 
HETATM    3  N   UNK N   1      34.821  15.179  11.371  0.00  0.00    -0.299 N 
HETATM    4  H   UNK N   1      33.870  15.005  11.188  0.00  0.00     0.171 HD
ENDROOT
BRANCH   2   5
HETATM    5  C   UNK N   1      34.631  16.947   9.693  0.00  0.00     0.310 C 
HETATM    6  O   UNK N   1      35.108  17.969   9.220  0.00  0.00    -0.262 OA
HETATM    7  N   UNK N   1      33.389  16.537   9.329  0.00  0.00    -0.348 N 
HETATM    8  H   UNK N   1      33.003  15.744   9.767  0.00  0.00     0.163 HD
BRANCH   7   9
HETATM    9  C   UNK N   1      32.610  17.222   8.318  0.00  0.00     0.084 C 
HETATM   10  C   UNK N   1      31.122  17.038   8.494  0.00  0.00     0.025 C 
HETATM   11  C   UNK N   1      30.562  17.389   7.131  0.00  0.00     0.002 C 
HETATM   12  C   UNK N   1      31.659  17.048   6.131  0.00  0.00     0.002 C 
HETATM   13  C   UNK N   1      32.882  16.657   6.946  0.00  0.00     0.025 C 
ENDBRANCH   7   9
ENDBRANCH   2   5
BRANCH   3  14
HETATM   14  C   UNK N   1      35.445  14.402  12.382  0.00  0.00     0.151 A 
HETATM   15  N   UNK N   1      36.308  14.875  13.314  0.00  0.00    -0.346 N 
HETATM   16  C   UNK N   1      36.701  13.891  14.198  0.00  0.00     0.097 A 
ATOM     17  HN  UNK N   1      36.628  15.842  13.357  1.00  0.00     0.167 HD
HETATM   18  C   UNK N   1      36.140  12.617  13.971  0.00  0.00     0.070 A 
HETATM   19  S   UNK N   1      35.161  12.807  12.646  0.00  0.00    -0.064 SA
ENDBRANCH   3  14
TORSDOF 3
ENDMDL
MODEL 2
REMARK VINA RESULT:      -5.9      3.198      8.044
REMARK  3 active torsions:
REMARK  status: ('A' for Active; 'I' for Inactive)
REMARK       I    between atoms: C_2  and  N_3 
REMARK    1  A    between atoms: C_2  and  C_11 
REMARK    2  A    between atoms: N_3  and  C_4 
REMARK       I    between atoms: C_11  and  N_12 
REMARK    3  A    between atoms: N_12  and  C_13 
ROOT
HETATM    1  O   UNK N   1      34.579  13.449  12.929  0.00  0.00    -0.262 OA
HETATM    2  C   UNK N   1      35.562  14.038  13.357  0.00  0.00     0.315 C 
HETATM    3  N   UNK N   1      36.175  15.003  12.622  0.00  0.00    -0.299 N 
HETATM    4  H   UNK N   1      36.991  15.408  12.994  0.00  0.00     0.171 HD
ENDROOT
BRANCH   2   5
HETATM    5  C   UNK N   1      36.079  13.728  14.706  0.00  0.00     0.310 C 
HETATM    6  O   UNK N   1      37.127  14.238  15.076  0.00  0.00    -0.262 OA
HETATM    7  N   UNK N   1      35.380  12.914  15.538  0.00  0.00    -0.348 N 
HETATM    8  H   UNK N   1      34.570  12.469  15.198  0.00  0.00     0.163 HD
BRANCH   7   9
HETATM    9  C   UNK N   1      35.781  12.676  16.910  0.00  0.00     0.084 C 
HETATM   10  C   UNK N   1      35.369  11.316  17.418  0.00  0.00     0.025 C 
HETATM   11  C   UNK N   1      35.434  11.470  18.923  0.00  0.00     0.002 C 
HETATM   12  C   UNK N   1      35.158  12.942  19.203  0.00  0.00     0.002 C 
HETATM   13  C   UNK N   1      35.095  13.634  17.851  0.00  0.00     0.025 C 
ENDBRANCH   7   9
ENDBRANCH   2   5
BRANCH   3  14
HETATM   14  C   UNK N   1      35.730  15.471  11.358  0.00  0.00     0.151 A 
HETATM   15  N   UNK N   1      35.088  16.644  11.138  0.00  0.00    -0.346 N 
HETATM   16  C   UNK N   1      34.836  16.849   9.797  0.00  0.00     0.097 A 
ATOM     17  HN  UNK N   1      34.823  17.297  11.875  1.00  0.00     0.167 HD
HETATM   18  C   UNK N   1      35.288  15.829   8.935  0.00  0.00     0.070 A 
HETATM   19  S   UNK N   1      35.994  14.706   9.930  0.00  0.00    -0.064 SA
ENDBRANCH   3  14
TORSDOF 3
ENDMDL
MODEL 3
REMARK VINA RESULT:      -5.6     14.864     16.925
REMARK  3 active torsions:
REMARK  status: ('A' for Active; 'I' for Inactive)
REMARK       I    between atoms: C_2  and  N_3 
REMARK    1  A    between atoms: C_2  and  C_11 
REMARK    2  A    between atoms: N_3  and  C_4 
REMARK       I    between atoms: C_11  and  N_12 
REMARK    3  A    between atoms: N_12  and  C_13 
ROOT
HETATM    1  O   UNK N   1      30.367  23.033  -1.493  0.00  0.00    -0.262 OA
HETATM    2  C   UNK N   1      29.894  23.100  -2.619  0.00  0.00     0.315 C 
HETATM    3  N   UNK N   1      30.611  22.702  -3.704  0.00  0.00    -0.299 N 
HETATM    4  H   UNK N   1      30.201  22.826  -4.589  0.00  0.00     0.171 HD
ENDROOT
BRANCH   2   5
HETATM    5  C   UNK N   1      28.513  23.587  -2.813  0.00  0.00     0.310 C 
HETATM    6  O   UNK N   1      27.662  23.319  -1.976  0.00  0.00    -0.262 OA
HETATM    7  N   UNK N   1      28.200  24.350  -3.891  0.00  0.00    -0.348 N 
HETATM    8  H   UNK N   1      28.886  24.503  -4.581  0.00  0.00     0.163 HD
BRANCH   7   9
HETATM    9  C   UNK N   1      26.893  24.951  -4.064  0.00  0.00     0.084 C 
HETATM   10  C   UNK N   1      26.361  24.812  -5.471  0.00  0.00     0.025 C 
HETATM   11  C   UNK N   1      25.290  25.881  -5.546  0.00  0.00     0.002 C 
HETATM   12  C   UNK N   1      25.722  26.972  -4.575  0.00  0.00     0.002 C 
HETATM   13  C   UNK N   1      26.946  26.442  -3.845  0.00  0.00     0.025 C 
ENDBRANCH   7   9
ENDBRANCH   2   5
BRANCH   3  14
HETATM   14  C   UNK N   1      31.907  22.124  -3.657  0.00  0.00     0.151 A 
HETATM   15  N   UNK N   1      32.337  21.238  -2.727  0.00  0.00    -0.346 N 
HETATM   16  C   UNK N   1      33.624  20.810  -2.980  0.00  0.00     0.097 A 
ATOM     17  HN  UNK N   1      31.776  20.925  -1.935  1.00  0.00     0.167 HD
HETATM   18  C   UNK N   1      34.227  21.358  -4.131  0.00  0.00     0.070 A 
HETATM   19  S   UNK N   1      33.082  22.368  -4.777  0.00  0.00    -0.064 SA
ENDBRANCH   3  14
TORSDOF 3
ENDMDL
MODEL 4
REMARK VINA RESULT:      -5.6      3.202      7.956
REMARK  3 active torsions:
REMARK  status: ('A' for Active; 'I' for Inactive)
REMARK       I    between atoms: C_2  and  N_3 
REMARK    1  A    between atoms: C_2  and  C_11 
REMARK    2  A    between atoms: N_3  and  C_4 
REMARK       I    between atoms: C_11  and  N_12 
REMARK    3  A    between atoms: N_12  and  C_13 
ROOT
HETATM    1  O   UNK N   1      34.854  12.481  11.987  0.00  0.00    -0.262 OA
HETATM    2  C   UNK N   1      35.315  13.317  12.750  0.00  0.00     0.315 C 
HETATM    3  N   UNK N   1      35.310  14.638  12.427  0.00  0.00    -0.299 N 
HETATM    4  H   UNK N   1      35.740  15.261  13.055  0.00  0.00     0.171 HD
ENDROOT
BRANCH   2   5
HETATM    5  C   UNK N   1      35.857  12.903  14.061  0.00  0.00     0.310 C 
HETATM    6  O   UNK N   1      37.023  12.544  14.139  0.00  0.00    -0.262 OA
HETATM    7  N   UNK N   1      35.078  12.953  15.172  0.00  0.00    -0.348 N 
HETATM    8  H   UNK N   1      34.126  13.189  15.075  0.00  0.00     0.163 HD
BRANCH   7   9
HETATM    9  C   UNK N   1      35.595  12.674  16.496  0.00  0.00     0.084 C 
HETATM   10  C   UNK N   1      35.139  11.341  17.039  0.00  0.00     0.025 C 
HETATM   11  C   UNK N   1      35.364  11.475  18.530  0.00  0.00     0.002 C 
HETATM   12  C   UNK N   1      35.222  12.960  18.840  0.00  0.00     0.002 C 
HETATM   13  C   UNK N   1      35.075  13.669  17.503  0.00  0.00     0.025 C 
ENDBRANCH   7   9
ENDBRANCH   2   5
BRANCH   3  14
HETATM   14  C   UNK N   1      34.735  15.187  11.251  0.00  0.00     0.151 A 
HETATM   15  N   UNK N   1      33.547  14.819  10.714  0.00  0.00    -0.346 N 
HETATM   16  C   UNK N   1      33.227  15.574   9.604  0.00  0.00     0.097 A 
ATOM     17  HN  UNK N   1      32.958  14.074  11.086  1.00  0.00     0.167 HD
HETATM   18  C   UNK N   1      34.172  16.562   9.253  0.00  0.00     0.070 A 
HETATM   19  S   UNK N   1      35.376  16.425  10.384  0.00  0.00    -0.064 SA
ENDBRANCH   3  14
TORSDOF 3
ENDMDL
MODEL 5
REMARK VINA RESULT:      -5.5      5.481      8.212
REMARK  3 active torsions:
REMARK  status: ('A' for Active; 'I' for Inactive)
REMARK       I    between atoms: C_2  and  N_3 
REMARK    1  A    between atoms: C_2  and  C_11 
REMARK    2  A    between atoms: N_3  and  C_4 
REMARK       I    between atoms: C_11  and  N_12 
REMARK    3  A    between atoms: N_12  and  C_13 
ROOT
HETATM    1  O   UNK N   1      34.746  13.433  12.539  0.00  0.00    -0.262 OA
HETATM    2  C   UNK N   1      35.336  12.712  13.331  0.00  0.00     0.315 C 
HETATM    3  N   UNK N   1      36.539  12.162  13.015  0.00  0.00    -0.299 N 
HETATM    4  H   UNK N   1      36.944  11.550  13.669  0.00  0.00     0.171 HD
ENDROOT
BRANCH   2   5
HETATM    5  C   UNK N   1      34.761  12.456  14.667  0.00  0.00     0.310 C 
HETATM    6  O   UNK N   1      33.730  11.805  14.760  0.00  0.00    -0.262 OA
HETATM    7  N   UNK N   1      35.389  12.909  15.783  0.00  0.00    -0.348 N 
HETATM    8  H   UNK N   1      36.185  13.481  15.681  0.00  0.00     0.163 HD
BRANCH   7   9
HETATM    9  C   UNK N   1      34.932  12.582  17.118  0.00  0.00     0.084 C 
HETATM   10  C   UNK N   1      35.284  13.639  18.138  0.00  0.00     0.025 C 
HETATM   11  C   UNK N   1      35.170  12.904  19.457  0.00  0.00     0.002 C 
HETATM   12  C   UNK N   1      35.481  11.445  19.148  0.00  0.00     0.002 C 
HETATM   13  C   UNK N   1      35.614  11.341  17.637  0.00  0.00     0.025 C 
ENDBRANCH   7   9
ENDBRANCH   2   5
BRANCH   3  14
HETATM   14  C   UNK N   1      37.253  12.401  11.812  0.00  0.00     0.151 A 
HETATM   15  N   UNK N   1      37.709  13.608  11.397  0.00  0.00    -0.346 N 
HETATM   16  C   UNK N   1      38.418  13.513  10.217  0.00  0.00     0.097 A 
ATOM     17  HN  UNK N   1      37.546  14.482  11.897  1.00  0.00     0.167 HD
HETATM   18  C   UNK N   1      38.536  12.212   9.687  0.00  0.00     0.070 A 
HETATM   19  S   UNK N   1      37.724  11.237  10.755  0.00  0.00    -0.064 SA
ENDBRANCH   3  14
TORSDOF 3
ENDMDL
MODEL 6
REMARK VINA RESULT:      -5.4      1.678      2.278
REMARK  3 active torsions:
REMARK  status: ('A' for Active; 'I' for Inactive)
REMARK       I    between atoms: C_2  and  N_3 
REMARK    1  A    between atoms: C_2  and  C_11 
REMARK    2  A    between atoms: N_3  and  C_4 
REMARK       I    between atoms: C_11  and  N_12 
REMARK    3  A    between atoms: N_12  and  C_13 
ROOT
HETATM    1  O   UNK N   1      34.349  14.149  12.118  0.00  0.00    -0.262 OA
HETATM    2  C   UNK N   1      35.380  14.767  11.894  0.00  0.00     0.315 C 
HETATM    3  N   UNK N   1      36.522  14.496  12.580  0.00  0.00    -0.299 N 
HETATM    4  H   UNK N   1      37.307  15.058  12.394  0.00  0.00     0.171 HD
ENDROOT
BRANCH   2   5
HETATM    5  C   UNK N   1      35.406  15.802  10.840  0.00  0.00     0.310 C 
HETATM    6  O   UNK N   1      36.413  16.481  10.693  0.00  0.00    -0.262 OA
HETATM    7  N   UNK N   1      34.337  15.974  10.021  0.00  0.00    -0.348 N 
HETATM    8  H   UNK N   1      33.516  15.458  10.195  0.00  0.00     0.163 HD
BRANCH   7   9
HETATM    9  C   UNK N   1      34.358  16.889   8.898  0.00  0.00     0.084 C 
HETATM   10  C   UNK N   1      33.016  17.530   8.632  0.00  0.00     0.025 C 
HETATM   11  C   UNK N   1      33.139  18.019   7.205  0.00  0.00     0.002 C 
HETATM   12  C   UNK N   1      34.127  17.079   6.526  0.00  0.00     0.002 C 
HETATM   13  C   UNK N   1      34.671  16.166   7.612  0.00  0.00     0.025 C 
ENDBRANCH   7   9
ENDBRANCH   2   5
BRANCH   3  14
HETATM   14  C   UNK N   1      36.668  13.466  13.545  0.00  0.00     0.151 A 
HETATM   15  N   UNK N   1      37.454  12.372  13.411  0.00  0.00    -0.346 N 
HETATM   16  C   UNK N   1      37.434  11.581  14.542  0.00  0.00     0.097 A 
ATOM     17  HN  UNK N   1      37.997  12.158  12.574  1.00  0.00     0.167 HD
HETATM   18  C   UNK N   1      36.624  12.054  15.595  0.00  0.00     0.070 A 
HETATM   19  S   UNK N   1      35.969  13.469  15.031  0.00  0.00    -0.064 SA
ENDBRANCH   3  14
TORSDOF 3
ENDMDL
MODEL 7
REMARK VINA RESULT:      -5.4      1.999      2.572
REMARK  3 active torsions:
REMARK  status: ('A' for Active; 'I' for Inactive)
REMARK       I    between atoms: C_2  and  N_3 
REMARK    1  A    between atoms: C_2  and  C_11 
REMARK    2  A    between atoms: N_3  and  C_4 
REMARK       I    between atoms: C_11  and  N_12 
REMARK    3  A    between atoms: N_12  and  C_13 
ROOT
HETATM    1  O   UNK N   1      34.252  15.064   8.496  0.00  0.00    -0.262 OA
HETATM    2  C   UNK N   1      33.596  15.733   9.281  0.00  0.00     0.315 C 
HETATM    3  N   UNK N   1      33.685  15.526  10.621  0.00  0.00    -0.299 N 
HETATM    4  H   UNK N   1      33.097  16.059  11.203  0.00  0.00     0.171 HD
ENDROOT
BRANCH   2   5
HETATM    5  C   UNK N   1      32.717  16.810   8.779  0.00  0.00     0.310 C 
HETATM    6  O   UNK N   1      33.186  17.675   8.053  0.00  0.00    -0.262 OA
HETATM    7  N   UNK N   1      31.396  16.819   9.093  0.00  0.00    -0.348 N 
HETATM    8  H   UNK N   1      31.054  16.147   9.726  0.00  0.00     0.163 HD
BRANCH   7   9
HETATM    9  C   UNK N   1      30.471  17.781   8.530  0.00  0.00     0.084 C 
HETATM   10  C   UNK N   1      29.365  18.165   9.484  0.00  0.00     0.025 C 
HETATM   11  C   UNK N   1      28.304  18.746   8.574  0.00  0.00     0.002 C 
HETATM   12  C   UNK N   1      28.483  18.051   7.230  0.00  0.00     0.002 C 
HETATM   13  C   UNK N   1      29.739  17.202   7.346  0.00  0.00     0.025 C 
ENDBRANCH   7   9
ENDBRANCH   2   5
BRANCH   3  14
HETATM   14  C   UNK N   1      34.558  14.599  11.247  0.00  0.00     0.151 A 
HETATM   15  N   UNK N   1      34.464  13.250  11.160  0.00  0.00    -0.346 N 
HETATM   16  C   UNK N   1      35.492  12.617  11.827  0.00  0.00     0.097 A 
ATOM     17  HN  UNK N   1      33.721  12.761  10.660  1.00  0.00     0.167 HD
HETATM   18  C   UNK N   1      36.423  13.473  12.452  0.00  0.00     0.070 A 
HETATM   19  S   UNK N   1      35.888  15.007  12.119  0.00  0.00    -0.064 SA
ENDBRANCH   3  14
TORSDOF 3
ENDMDL
MODEL 8
REMARK VINA RESULT:      -5.2     15.078     16.076
REMARK  3 active torsions:
REMARK  status: ('A' for Active; 'I' for Inactive)
REMARK       I    between atoms: C_2  and  N_3 
REMARK    1  A    between atoms: C_2  and  C_11 
REMARK    2  A    between atoms: N_3  and  C_4 
REMARK       I    between atoms: C_11  and  N_12 
REMARK    3  A    between atoms: N_12  and  C_13 
ROOT
HETATM    1  O   UNK N   1      30.709  20.529  -3.845  0.00  0.00    -0.262 OA
HETATM    2  C   UNK N   1      31.222  21.500  -3.307  0.00  0.00     0.315 C 
HETATM    3  N   UNK N   1      32.571  21.589  -3.165  0.00  0.00    -0.299 N 
HETATM    4  H   UNK N   1      32.926  22.368  -2.680  0.00  0.00     0.171 HD
ENDROOT
BRANCH   2   5
HETATM    5  C   UNK N   1      30.377  22.615  -2.833  0.00  0.00     0.310 C 
HETATM    6  O   UNK N   1      30.528  23.038  -1.695  0.00  0.00    -0.262 OA
HETATM    7  N   UNK N   1      29.465  23.185  -3.662  0.00  0.00    -0.348 N 
HETATM    8  H   UNK N   1      29.320  22.790  -4.552  0.00  0.00     0.163 HD
BRANCH   7   9
HETATM    9  C   UNK N   1      28.699  24.356  -3.286  0.00  0.00     0.084 C 
HETATM   10  C   UNK N   1      27.209  24.155  -3.423  0.00  0.00     0.025 C 
HETATM   11  C   UNK N   1      26.668  25.568  -3.464  0.00  0.00     0.002 C 
HETATM   12  C   UNK N   1      27.779  26.422  -4.061  0.00  0.00     0.002 C 
HETATM   13  C   UNK N   1      28.991  25.515  -4.205  0.00  0.00     0.025 C 
ENDBRANCH   7   9
ENDBRANCH   2   5
BRANCH   3  14
HETATM   14  C   UNK N   1      33.508  20.645  -3.660  0.00  0.00     0.151 A 
HETATM   15  N   UNK N   1      33.334  19.301  -3.673  0.00  0.00    -0.346 N 
HETATM   16  C   UNK N   1      34.394  18.650  -4.271  0.00  0.00     0.097 A 
ATOM     17  HN  UNK N   1      32.517  18.827  -3.287  1.00  0.00     0.167 HD
HETATM   18  C   UNK N   1      35.425  19.487  -4.746  0.00  0.00     0.070 A 
HETATM   19  S   UNK N   1      34.932  21.027  -4.381  0.00  0.00    -0.064 SA
ENDBRANCH   3  14
TORSDOF 3
ENDMDL
MODEL 9
REMARK VINA RESULT:      -5.1      2.272      2.418
REMARK  3 active torsions:
REMARK  status: ('A' for Active; 'I' for Inactive)
REMARK       I    between atoms: C_2  and  N_3 
REMARK    1  A    between atoms: C_2  and  C_11 
REMARK    2  A    between atoms: N_3  and  C_4 
REMARK       I    between atoms: C_11  and  N_12 
REMARK    3  A    between atoms: N_12  and  C_13 
ROOT
HETATM    1  O   UNK N   1      35.047  16.504  10.828  0.00  0.00    -0.262 OA
HETATM    2  C   UNK N   1      34.808  16.342   9.640  0.00  0.00     0.315 C 
HETATM    3  N   UNK N   1      35.405  15.344   8.936  0.00  0.00    -0.299 N 
HETATM    4  H   UNK N   1      35.215  15.291   7.972  0.00  0.00     0.171 HD
ENDROOT
BRANCH   2   5
HETATM    5  C   UNK N   1      33.831  17.214   8.957  0.00  0.00     0.310 C 
HETATM    6  O   UNK N   1      34.234  18.088   8.202  0.00  0.00    -0.262 OA
HETATM    7  N   UNK N   1      32.498  17.027   9.140  0.00  0.00    -0.348 N 
HETATM    8  H   UNK N   1      32.199  16.357   9.798  0.00  0.00     0.163 HD
BRANCH   7   9
HETATM    9  C   UNK N   1      31.500  17.775   8.403  0.00  0.00     0.084 C 
HETATM   10  C   UNK N   1      30.323  18.186   9.254  0.00  0.00     0.025 C 
HETATM   11  C   UNK N   1      29.244  18.488   8.236  0.00  0.00     0.002 C 
HETATM   12  C   UNK N   1      29.549  17.605   7.032  0.00  0.00     0.002 C 
HETATM   13  C   UNK N   1      30.882  16.931   7.317  0.00  0.00     0.025 C 
ENDBRANCH   7   9
ENDBRANCH   2   5
BRANCH   3  14
HETATM   14  C   UNK N   1      36.284  14.373   9.483  0.00  0.00     0.151 A 
HETATM   15  N   UNK N   1      37.340  14.638  10.290  0.00  0.00    -0.346 N 
HETATM   16  C   UNK N   1      37.970  13.483  10.709  0.00  0.00     0.097 A 
ATOM     17  HN  UNK N   1      37.634  15.577  10.556  1.00  0.00     0.167 HD
HETATM   18  C   UNK N   1      37.406  12.281  10.233  0.00  0.00     0.070 A 
HETATM   19  S   UNK N   1      36.121  12.750   9.296  0.00  0.00    -0.064 SA
ENDBRANCH   3  14
TORSDOF 3
ENDMDL
