MODEL 1
REMARK VINA RESULT:      -5.6      0.000      0.000
REMARK  10 active torsions:
REMARK  status: ('A' for Active; 'I' for Inactive)
REMARK    1  A    between atoms: C_2  and  C_3 
REMARK    2  A    between atoms: C_3  and  C_4 
REMARK    3  A    between atoms: C_4  and  C_22 
REMARK       I    between atoms: N_6  and  C_7 
REMARK    4  A    between atoms: C_22  and  N_6 
REMARK    5  A    between atoms: C_7  and  O_9 
REMARK    6  A    between atoms: C_10  and  O_9 
REMARK    7  A    between atoms: C_10  and  C_11 
REMARK    8  A    between atoms: C_10  and  C_18 
REMARK    9  A    between atoms: C_11  and  C_12 
REMARK   10  A    between atoms: C_21  and  C_22 
ROOT
HETATM    1  O   UNK N   1      27.890  22.676  -6.175  0.00  0.00    -0.298 OA
ENDROOT
BRANCH   1   2
HETATM    2  C   UNK N   1      29.117  23.080  -5.745  0.00  0.00     0.361 C 
HETATM    3  N   UNK N   1      29.299  23.340  -4.424  0.00  0.00    -0.326 N 
HETATM    4  H   UNK N   1      28.508  23.346  -3.838  0.00  0.00     0.165 HD
HETATM    5  O   UNK N   1      30.054  23.167  -6.527  0.00  0.00    -0.238 OA
BRANCH   3   6
HETATM    6  C   UNK N   1      30.596  23.607  -3.826  0.00  0.00     0.148 C 
BRANCH   6   7
HETATM    7  C   UNK N   1      30.627  25.092  -3.428  0.00  0.00     0.032 C 
BRANCH   7   8
HETATM    8  C   UNK N   1      30.849  26.102  -4.559  0.00  0.00     0.002 C 
BRANCH   8   9
HETATM    9  C   UNK N   1      29.676  27.040  -4.761  0.00  0.00    -0.004 C 
HETATM   10  C   UNK N   1      29.067  26.762  -6.120  0.00  0.00     0.005 C 
ENDBRANCH   8   9
ENDBRANCH   7   8
ENDBRANCH   6   7
BRANCH   6  11
HETATM   11  C   UNK N   1      30.837  22.711  -2.629  0.00  0.00     0.256 C 
HETATM   12  O   UNK N   1      30.475  23.020  -1.505  0.00  0.00    -0.305 OA
ENDBRANCH   6  11
ENDBRANCH   3   6
ENDBRANCH   1   2
BRANCH   1  13
HETATM   13  C   UNK N   1      26.901  23.523  -6.658  0.00  0.00     0.141 C 
BRANCH  13  14
HETATM   14  C   UNK N   1      25.955  23.770  -5.467  0.00  0.00     0.071 C 
BRANCH  14  15
HETATM   15  C   UNK N   1      25.825  25.170  -4.944  0.00  0.00    -0.056 A 
HETATM   16  C   UNK N   1      25.180  26.133  -5.729  0.00  0.00     0.007 A 
HETATM   17  C   UNK N   1      25.092  27.458  -5.288  0.00  0.00     0.001 A 
HETATM   18  C   UNK N   1      25.657  27.827  -4.064  0.00  0.00     0.000 A 
HETATM   19  C   UNK N   1      26.320  26.874  -3.287  0.00  0.00     0.001 A 
HETATM   20  C   UNK N   1      26.416  25.553  -3.734  0.00  0.00     0.007 A 
ENDBRANCH  14  15
ENDBRANCH  13  14
BRANCH  13  21
HETATM   21  C   UNK N   1      26.137  22.869  -7.851  0.00  0.00     0.007 C 
HETATM   22  C   UNK N   1      25.145  21.821  -7.382  0.00  0.00     0.012 C 
HETATM   23  C   UNK N   1      25.349  23.830  -8.722  0.00  0.00     0.012 C 
ENDBRANCH  13  21
ENDBRANCH   1  13
TORSDOF 10
ENDMDL
MODEL 2
REMARK VINA RESULT:      -5.5      2.201      6.659
REMARK  10 active torsions:
REMARK  status: ('A' for Active; 'I' for Inactive)
REMARK    1  A    between atoms: C_2  and  C_3 
REMARK    2  A    between atoms: C_3  and  C_4 
REMARK    3  A    between atoms: C_4  and  C_22 
REMARK       I    between atoms: N_6  and  C_7 
REMARK    4  A    between atoms: C_22  and  N_6 
REMARK    5  A    between atoms: C_7  and  O_9 
REMARK    6  A    between atoms: C_10  and  O_9 
REMARK    7  A    between atoms: C_10  and  C_11 
REMARK    8  A    between atoms: C_10  and  C_18 
REMARK    9  A    between atoms: C_11  and  C_12 
REMARK   10  A    between atoms: C_21  and  C_22 
ROOT
HETATM    1  O   UNK N   1      28.685  24.217  -3.257  0.00  0.00    -0.298 OA
ENDROOT
BRANCH   1   2
HETATM    2  C   UNK N   1      27.404  24.279  -3.714  0.00  0.00     0.361 C 
HETATM    3  N   UNK N   1      27.183  24.640  -5.005  0.00  0.00    -0.326 N 
HETATM    4  H   UNK N   1      27.947  24.964  -5.535  0.00  0.00     0.165 HD
HETATM    5  O   UNK N   1      26.468  23.974  -2.988  0.00  0.00    -0.238 OA
BRANCH   3   6
HETATM    6  C   UNK N   1      25.882  24.573  -5.648  0.00  0.00     0.148 C 
BRANCH   6   7
HETATM    7  C   UNK N   1      25.655  25.908  -6.378  0.00  0.00     0.032 C 
BRANCH   7   8
HETATM    8  C   UNK N   1      24.865  26.980  -5.619  0.00  0.00     0.002 C 
BRANCH   8   9
HETATM    9  C   UNK N   1      25.750  27.999  -4.931  0.00  0.00    -0.004 C 
HETATM   10  C   UNK N   1      25.770  27.695  -3.447  0.00  0.00     0.005 C 
ENDBRANCH   8   9
ENDBRANCH   7   8
ENDBRANCH   6   7
BRANCH   6  11
HETATM   11  C   UNK N   1      25.810  23.403  -6.607  0.00  0.00     0.256 C 
HETATM   12  O   UNK N   1      25.061  22.457  -6.421  0.00  0.00    -0.305 OA
ENDBRANCH   6  11
ENDBRANCH   3   6
ENDBRANCH   1   2
BRANCH   1  13
HETATM   13  C   UNK N   1      29.728  23.566  -3.903  0.00  0.00     0.141 C 
BRANCH  13  14
HETATM   14  C   UNK N   1      30.121  22.401  -2.975  0.00  0.00     0.071 C 
BRANCH  14  15
HETATM   15  C   UNK N   1      31.247  21.505  -3.401  0.00  0.00    -0.056 A 
HETATM   16  C   UNK N   1      32.469  21.579  -2.723  0.00  0.00     0.007 A 
HETATM   17  C   UNK N   1      33.552  20.793  -3.134  0.00  0.00     0.001 A 
HETATM   18  C   UNK N   1      33.417  19.935  -4.230  0.00  0.00     0.000 A 
HETATM   19  C   UNK N   1      32.205  19.873  -4.922  0.00  0.00     0.001 A 
HETATM   20  C   UNK N   1      31.128  20.667  -4.516  0.00  0.00     0.007 A 
ENDBRANCH  14  15
ENDBRANCH  13  14
BRANCH  13  21
HETATM   21  C   UNK N   1      30.933  24.528  -4.134  0.00  0.00     0.007 C 
HETATM   22  C   UNK N   1      31.216  24.737  -5.609  0.00  0.00     0.012 C 
HETATM   23  C   UNK N   1      30.780  25.916  -3.538  0.00  0.00     0.012 C 
ENDBRANCH  13  21
ENDBRANCH   1  13
TORSDOF 10
ENDMDL
MODEL 3
REMARK VINA RESULT:      -5.5     20.087     24.072
REMARK  10 active torsions:
REMARK  status: ('A' for Active; 'I' for Inactive)
REMARK    1  A    between atoms: C_2  and  C_3 
REMARK    2  A    between atoms: C_3  and  C_4 
REMARK    3  A    between atoms: C_4  and  C_22 
REMARK       I    between atoms: N_6  and  C_7 
REMARK    4  A    between atoms: C_22  and  N_6 
REMARK    5  A    between atoms: C_7  and  O_9 
REMARK    6  A    between atoms: C_10  and  O_9 
REMARK    7  A    between atoms: C_10  and  C_11 
REMARK    8  A    between atoms: C_10  and  C_18 
REMARK    9  A    between atoms: C_11  and  C_12 
REMARK   10  A    between atoms: C_21  and  C_22 
ROOT
HETATM    1  O   UNK N   1      34.797  13.384  14.720  0.00  0.00    -0.298 OA
ENDROOT
BRANCH   1   2
HETATM    2  C   UNK N   1      35.687  13.968  13.871  0.00  0.00     0.361 C 
HETATM    3  N   UNK N   1      35.318  14.190  12.583  0.00  0.00    -0.326 N 
HETATM    4  H   UNK N   1      34.464  13.812  12.271  0.00  0.00     0.165 HD
HETATM    5  O   UNK N   1      36.786  14.326  14.270  0.00  0.00    -0.238 OA
BRANCH   3   6
HETATM    6  C   UNK N   1      36.113  14.957  11.638  0.00  0.00     0.148 C 
BRANCH   6   7
HETATM    7  C   UNK N   1      36.504  14.015  10.487  0.00  0.00     0.032 C 
BRANCH   7   8
HETATM    8  C   UNK N   1      35.981  12.577  10.569  0.00  0.00     0.002 C 
BRANCH   8   9
HETATM    9  C   UNK N   1      37.086  11.540  10.591  0.00  0.00    -0.004 C 
HETATM   10  C   UNK N   1      37.517  11.327  12.028  0.00  0.00     0.005 C 
ENDBRANCH   8   9
ENDBRANCH   7   8
ENDBRANCH   6   7
BRANCH   6  11
HETATM   11  C   UNK N   1      35.342  16.157  11.129  0.00  0.00     0.256 C 
HETATM   12  O   UNK N   1      35.898  17.113  10.613  0.00  0.00    -0.305 OA
ENDBRANCH   6  11
ENDBRANCH   3   6
ENDBRANCH   1   2
BRANCH   1  13
HETATM   13  C   UNK N   1      34.989  12.164  15.356  0.00  0.00     0.141 C 
BRANCH  13  14
HETATM   14  C   UNK N   1      33.923  11.222  14.765  0.00  0.00     0.071 C 
BRANCH  14  15
HETATM   15  C   UNK N   1      34.357  10.210  13.746  0.00  0.00    -0.056 A 
HETATM   16  C   UNK N   1      33.790  10.246  12.467  0.00  0.00     0.007 A 
HETATM   17  C   UNK N   1      34.137   9.282  11.515  0.00  0.00     0.001 A 
HETATM   18  C   UNK N   1      35.048   8.272  11.841  0.00  0.00     0.000 A 
HETATM   19  C   UNK N   1      35.600   8.220  13.123  0.00  0.00     0.001 A 
HETATM   20  C   UNK N   1      35.244   9.178  14.076  0.00  0.00     0.007 A 
ENDBRANCH  14  15
ENDBRANCH  13  14
BRANCH  13  21
HETATM   21  C   UNK N   1      34.819  12.303  16.899  0.00  0.00     0.007 C 
HETATM   22  C   UNK N   1      35.572  11.223  17.652  0.00  0.00     0.012 C 
HETATM   23  C   UNK N   1      35.283  13.623  17.488  0.00  0.00     0.012 C 
ENDBRANCH  13  21
ENDBRANCH   1  13
TORSDOF 10
ENDMDL
MODEL 4
REMARK VINA RESULT:      -5.5      1.925      3.312
REMARK  10 active torsions:
REMARK  status: ('A' for Active; 'I' for Inactive)
REMARK    1  A    between atoms: C_2  and  C_3 
REMARK    2  A    between atoms: C_3  and  C_4 
REMARK    3  A    between atoms: C_4  and  C_22 
REMARK       I    between atoms: N_6  and  C_7 
REMARK    4  A    between atoms: C_22  and  N_6 
REMARK    5  A    between atoms: C_7  and  O_9 
REMARK    6  A    between atoms: C_10  and  O_9 
REMARK    7  A    between atoms: C_10  and  C_11 
REMARK    8  A    between atoms: C_10  and  C_18 
REMARK    9  A    between atoms: C_11  and  C_12 
REMARK   10  A    between atoms: C_21  and  C_22 
ROOT
HETATM    1  O   UNK N   1      26.071  24.320  -4.622  0.00  0.00    -0.298 OA
ENDROOT
BRANCH   1   2
HETATM    2  C   UNK N   1      27.031  24.160  -3.670  0.00  0.00     0.361 C 
HETATM    3  N   UNK N   1      28.321  23.987  -4.059  0.00  0.00    -0.326 N 
HETATM    4  H   UNK N   1      28.505  23.859  -5.017  0.00  0.00     0.165 HD
HETATM    5  O   UNK N   1      26.745  24.214  -2.481  0.00  0.00    -0.238 OA
BRANCH   3   6
HETATM    6  C   UNK N   1      29.446  23.980  -3.138  0.00  0.00     0.148 C 
BRANCH   6   7
HETATM    7  C   UNK N   1      29.890  22.519  -2.958  0.00  0.00     0.032 C 
BRANCH   7   8
HETATM    8  C   UNK N   1      30.216  21.738  -4.236  0.00  0.00     0.002 C 
BRANCH   8   9
HETATM    9  C   UNK N   1      31.668  21.312  -4.321  0.00  0.00    -0.004 C 
HETATM   10  C   UNK N   1      32.314  21.532  -2.967  0.00  0.00     0.005 C 
ENDBRANCH   8   9
ENDBRANCH   7   8
ENDBRANCH   6   7
BRANCH   6  11
HETATM   11  C   UNK N   1      30.579  24.839  -3.661  0.00  0.00     0.256 C 
HETATM   12  O   UNK N   1      30.904  25.883  -3.119  0.00  0.00    -0.305 OA
ENDBRANCH   6  11
ENDBRANCH   3   6
ENDBRANCH   1   2
BRANCH   1  13
HETATM   13  C   UNK N   1      26.307  24.741  -5.924  0.00  0.00     0.141 C 
BRANCH  13  14
HETATM   14  C   UNK N   1      25.445  26.004  -6.109  0.00  0.00     0.071 C 
BRANCH  14  15
HETATM   15  C   UNK N   1      25.993  27.314  -5.623  0.00  0.00    -0.056 A 
HETATM   16  C   UNK N   1      27.056  27.905  -6.315  0.00  0.00     0.007 A 
HETATM   17  C   UNK N   1      27.621  29.099  -5.852  0.00  0.00     0.001 A 
HETATM   18  C   UNK N   1      27.128  29.701  -4.690  0.00  0.00     0.000 A 
HETATM   19  C   UNK N   1      26.082  29.103  -3.985  0.00  0.00     0.001 A 
HETATM   20  C   UNK N   1      25.526  27.905  -4.444  0.00  0.00     0.007 A 
ENDBRANCH  14  15
ENDBRANCH  13  14
BRANCH  13  21
HETATM   21  C   UNK N   1      25.909  23.637  -6.951  0.00  0.00     0.007 C 
HETATM   22  C   UNK N   1      25.635  24.215  -8.327  0.00  0.00     0.012 C 
HETATM   23  C   UNK N   1      26.936  22.539  -7.157  0.00  0.00     0.012 C 
ENDBRANCH  13  21
ENDBRANCH   1  13
TORSDOF 10
ENDMDL
MODEL 5
REMARK VINA RESULT:      -5.4      2.598      5.420
REMARK  10 active torsions:
REMARK  status: ('A' for Active; 'I' for Inactive)
REMARK    1  A    between atoms: C_2  and  C_3 
REMARK    2  A    between atoms: C_3  and  C_4 
REMARK    3  A    between atoms: C_4  and  C_22 
REMARK       I    between atoms: N_6  and  C_7 
REMARK    4  A    between atoms: C_22  and  N_6 
REMARK    5  A    between atoms: C_7  and  O_9 
REMARK    6  A    between atoms: C_10  and  O_9 
REMARK    7  A    between atoms: C_10  and  C_11 
REMARK    8  A    between atoms: C_10  and  C_18 
REMARK    9  A    between atoms: C_11  and  C_12 
REMARK   10  A    between atoms: C_21  and  C_22 
ROOT
HETATM    1  O   UNK N   1      25.556  25.966  -6.273  0.00  0.00    -0.298 OA
ENDROOT
BRANCH   1   2
HETATM    2  C   UNK N   1      25.830  25.062  -7.254  0.00  0.00     0.361 C 
HETATM    3  N   UNK N   1      26.139  23.786  -6.906  0.00  0.00    -0.326 N 
HETATM    4  H   UNK N   1      26.275  23.584  -5.952  0.00  0.00     0.165 HD
HETATM    5  O   UNK N   1      25.758  25.382  -8.433  0.00  0.00    -0.238 OA
BRANCH   3   6
HETATM    6  C   UNK N   1      26.278  22.702  -7.863  0.00  0.00     0.148 C 
BRANCH   6   7
HETATM    7  C   UNK N   1      27.578  21.951  -7.529  0.00  0.00     0.032 C 
BRANCH   7   8
HETATM    8  C   UNK N   1      28.415  22.509  -6.373  0.00  0.00     0.002 C 
BRANCH   8   9
HETATM    9  C   UNK N   1      29.885  22.155  -6.476  0.00  0.00    -0.004 C 
HETATM   10  C   UNK N   1      30.187  21.059  -5.473  0.00  0.00     0.005 C 
ENDBRANCH   8   9
ENDBRANCH   7   8
ENDBRANCH   6   7
BRANCH   6  11
HETATM   11  C   UNK N   1      25.079  21.776  -7.811  0.00  0.00     0.256 C 
HETATM   12  O   UNK N   1      23.950  22.164  -8.062  0.00  0.00    -0.305 OA
ENDBRANCH   6  11
ENDBRANCH   3   6
ENDBRANCH   1   2
BRANCH   1  13
HETATM   13  C   UNK N   1      26.508  26.563  -5.456  0.00  0.00     0.141 C 
BRANCH  13  14
HETATM   14  C   UNK N   1      26.477  25.762  -4.140  0.00  0.00     0.071 C 
BRANCH  14  15
HETATM   15  C   UNK N   1      27.735  25.070  -3.701  0.00  0.00    -0.056 A 
HETATM   16  C   UNK N   1      28.970  25.571  -4.126  0.00  0.00     0.007 A 
HETATM   17  C   UNK N   1      30.155  24.914  -3.775  0.00  0.00     0.001 A 
HETATM   18  C   UNK N   1      30.107  23.748  -3.006  0.00  0.00     0.000 A 
HETATM   19  C   UNK N   1      28.874  23.233  -2.598  0.00  0.00     0.001 A 
HETATM   20  C   UNK N   1      27.692  23.885  -2.958  0.00  0.00     0.007 A 
ENDBRANCH  14  15
ENDBRANCH  13  14
BRANCH  13  21
HETATM   21  C   UNK N   1      26.169  28.064  -5.204  0.00  0.00     0.007 C 
HETATM   22  C   UNK N   1      25.748  28.317  -3.769  0.00  0.00     0.012 C 
HETATM   23  C   UNK N   1      27.297  29.040  -5.486  0.00  0.00     0.012 C 
ENDBRANCH  13  21
ENDBRANCH   1  13
TORSDOF 10
ENDMDL
MODEL 6
REMARK VINA RESULT:      -5.4     18.719     22.677
REMARK  10 active torsions:
REMARK  status: ('A' for Active; 'I' for Inactive)
REMARK    1  A    between atoms: C_2  and  C_3 
REMARK    2  A    between atoms: C_3  and  C_4 
REMARK    3  A    between atoms: C_4  and  C_22 
REMARK       I    between atoms: N_6  and  C_7 
REMARK    4  A    between atoms: C_22  and  N_6 
REMARK    5  A    between atoms: C_7  and  O_9 
REMARK    6  A    between atoms: C_10  and  O_9 
REMARK    7  A    between atoms: C_10  and  C_11 
REMARK    8  A    between atoms: C_10  and  C_18 
REMARK    9  A    between atoms: C_11  and  C_12 
REMARK   10  A    between atoms: C_21  and  C_22 
ROOT
HETATM    1  O   UNK N   1      35.714  12.136  12.577  0.00  0.00    -0.298 OA
ENDROOT
BRANCH   1   2
HETATM    2  C   UNK N   1      35.741  13.001  11.526  0.00  0.00     0.361 C 
HETATM    3  N   UNK N   1      34.676  13.819  11.320  0.00  0.00    -0.326 N 
HETATM    4  H   UNK N   1      33.867  13.676  11.863  0.00  0.00     0.165 HD
HETATM    5  O   UNK N   1      36.725  13.072  10.803  0.00  0.00    -0.238 OA
BRANCH   3   6
HETATM    6  C   UNK N   1      34.665  14.895  10.344  0.00  0.00     0.148 C 
BRANCH   6   7
HETATM    7  C   UNK N   1      33.221  15.047   9.836  0.00  0.00     0.032 C 
BRANCH   7   8
HETATM    8  C   UNK N   1      33.027  15.857   8.550  0.00  0.00     0.002 C 
BRANCH   8   9
HETATM    9  C   UNK N   1      31.740  16.658   8.537  0.00  0.00    -0.004 C 
HETATM   10  C   UNK N   1      31.481  17.127   7.119  0.00  0.00     0.005 C 
ENDBRANCH   8   9
ENDBRANCH   7   8
ENDBRANCH   6   7
BRANCH   6  11
HETATM   11  C   UNK N   1      35.172  16.186  10.954  0.00  0.00     0.256 C 
HETATM   12  O   UNK N   1      36.300  16.603  10.743  0.00  0.00    -0.305 OA
ENDBRANCH   6  11
ENDBRANCH   3   6
ENDBRANCH   1   2
BRANCH   1  13
HETATM   13  C   UNK N   1      35.054  12.366  13.778  0.00  0.00     0.141 C 
BRANCH  13  14
HETATM   14  C   UNK N   1      36.150  12.338  14.859  0.00  0.00     0.071 C 
BRANCH  14  15
HETATM   15  C   UNK N   1      36.226  13.488  15.821  0.00  0.00    -0.056 A 
HETATM   16  C   UNK N   1      37.103  14.544  15.551  0.00  0.00     0.007 A 
HETATM   17  C   UNK N   1      37.233  15.602  16.458  0.00  0.00     0.001 A 
HETATM   18  C   UNK N   1      36.491  15.602  17.643  0.00  0.00     0.000 A 
HETATM   19  C   UNK N   1      35.630  14.540  17.926  0.00  0.00     0.001 A 
HETATM   20  C   UNK N   1      35.509  13.479  17.024  0.00  0.00     0.007 A 
ENDBRANCH  14  15
ENDBRANCH  13  14
BRANCH  13  21
HETATM   21  C   UNK N   1      33.978  11.269  14.045  0.00  0.00     0.007 C 
HETATM   22  C   UNK N   1      33.888  10.273  12.904  0.00  0.00     0.012 C 
HETATM   23  C   UNK N   1      34.188  10.445  15.302  0.00  0.00     0.012 C 
ENDBRANCH  13  21
ENDBRANCH   1  13
TORSDOF 10
ENDMDL
MODEL 7
REMARK VINA RESULT:      -5.3      1.995      4.502
REMARK  10 active torsions:
REMARK  status: ('A' for Active; 'I' for Inactive)
REMARK    1  A    between atoms: C_2  and  C_3 
REMARK    2  A    between atoms: C_3  and  C_4 
REMARK    3  A    between atoms: C_4  and  C_22 
REMARK       I    between atoms: N_6  and  C_7 
REMARK    4  A    between atoms: C_22  and  N_6 
REMARK    5  A    between atoms: C_7  and  O_9 
REMARK    6  A    between atoms: C_10  and  O_9 
REMARK    7  A    between atoms: C_10  and  C_11 
REMARK    8  A    between atoms: C_10  and  C_18 
REMARK    9  A    between atoms: C_11  and  C_12 
REMARK   10  A    between atoms: C_21  and  C_22 
ROOT
HETATM    1  O   UNK N   1      27.286  25.549  -4.002  0.00  0.00    -0.298 OA
ENDROOT
BRANCH   1   2
HETATM    2  C   UNK N   1      27.735  24.348  -3.543  0.00  0.00     0.361 C 
HETATM    3  N   UNK N   1      28.877  23.830  -4.063  0.00  0.00    -0.326 N 
HETATM    4  H   UNK N   1      29.280  24.279  -4.842  0.00  0.00     0.165 HD
HETATM    5  O   UNK N   1      27.143  23.764  -2.646  0.00  0.00    -0.238 OA
BRANCH   3   6
HETATM    6  C   UNK N   1      29.541  22.651  -3.534  0.00  0.00     0.148 C 
BRANCH   6   7
HETATM    7  C   UNK N   1      30.135  21.878  -4.724  0.00  0.00     0.032 C 
BRANCH   7   8
HETATM    8  C   UNK N   1      30.100  22.582  -6.085  0.00  0.00     0.002 C 
BRANCH   8   9
HETATM    9  C   UNK N   1      30.243  21.627  -7.254  0.00  0.00    -0.004 C 
HETATM   10  C   UNK N   1      29.451  20.372  -6.948  0.00  0.00     0.005 C 
ENDBRANCH   8   9
ENDBRANCH   7   8
ENDBRANCH   6   7
BRANCH   6  11
HETATM   11  C   UNK N   1      30.614  23.034  -2.536  0.00  0.00     0.256 C 
HETATM   12  O   UNK N   1      30.428  22.981  -1.331  0.00  0.00    -0.305 OA
ENDBRANCH   6  11
ENDBRANCH   3   6
ENDBRANCH   1   2
BRANCH   1  13
HETATM   13  C   UNK N   1      26.357  25.712  -5.022  0.00  0.00     0.141 C 
BRANCH  13  14
HETATM   14  C   UNK N   1      27.112  25.373  -6.322  0.00  0.00     0.071 C 
BRANCH  14  15
HETATM   15  C   UNK N   1      26.736  24.118  -7.054  0.00  0.00    -0.056 A 
HETATM   16  C   UNK N   1      25.812  23.242  -6.472  0.00  0.00     0.007 A 
HETATM   17  C   UNK N   1      25.484  22.040  -7.108  0.00  0.00     0.001 A 
HETATM   18  C   UNK N   1      26.086  21.705  -8.325  0.00  0.00     0.000 A 
HETATM   19  C   UNK N   1      27.025  22.567  -8.898  0.00  0.00     0.001 A 
HETATM   20  C   UNK N   1      27.358  23.763  -8.256  0.00  0.00     0.007 A 
ENDBRANCH  14  15
ENDBRANCH  13  14
BRANCH  13  21
HETATM   21  C   UNK N   1      25.813  27.173  -5.057  0.00  0.00     0.007 C 
HETATM   22  C   UNK N   1      24.450  27.254  -5.718  0.00  0.00     0.012 C 
HETATM   23  C   UNK N   1      25.660  27.842  -3.703  0.00  0.00     0.012 C 
ENDBRANCH  13  21
ENDBRANCH   1  13
TORSDOF 10
ENDMDL
MODEL 8
REMARK VINA RESULT:      -5.1      1.650      2.595
REMARK  10 active torsions:
REMARK  status: ('A' for Active; 'I' for Inactive)
REMARK    1  A    between atoms: C_2  and  C_3 
REMARK    2  A    between atoms: C_3  and  C_4 
REMARK    3  A    between atoms: C_4  and  C_22 
REMARK       I    between atoms: N_6  and  C_7 
REMARK    4  A    between atoms: C_22  and  N_6 
REMARK    5  A    between atoms: C_7  and  O_9 
REMARK    6  A    between atoms: C_10  and  O_9 
REMARK    7  A    between atoms: C_10  and  C_11 
REMARK    8  A    between atoms: C_10  and  C_18 
REMARK    9  A    between atoms: C_11  and  C_12 
REMARK   10  A    between atoms: C_21  and  C_22 
ROOT
HETATM    1  O   UNK N   1      28.113  23.694  -6.700  0.00  0.00    -0.298 OA
ENDROOT
BRANCH   1   2
HETATM    2  C   UNK N   1      28.867  22.896  -5.894  0.00  0.00     0.361 C 
HETATM    3  N   UNK N   1      29.312  23.391  -4.709  0.00  0.00    -0.326 N 
HETATM    4  H   UNK N   1      29.179  24.349  -4.526  0.00  0.00     0.165 HD
HETATM    5  O   UNK N   1      29.105  21.739  -6.209  0.00  0.00    -0.238 OA
BRANCH   3   6
HETATM    6  C   UNK N   1      29.972  22.584  -3.697  0.00  0.00     0.148 C 
BRANCH   6   7
HETATM    7  C   UNK N   1      31.489  22.757  -3.880  0.00  0.00     0.032 C 
BRANCH   7   8
HETATM    8  C   UNK N   1      32.351  21.506  -3.681  0.00  0.00     0.002 C 
BRANCH   8   9
HETATM    9  C   UNK N   1      31.764  20.267  -4.327  0.00  0.00    -0.004 C 
HETATM   10  C   UNK N   1      32.246  20.199  -5.763  0.00  0.00     0.005 C 
ENDBRANCH   8   9
ENDBRANCH   7   8
ENDBRANCH   6   7
BRANCH   6  11
HETATM   11  C   UNK N   1      29.536  22.996  -2.306  0.00  0.00     0.256 C 
HETATM   12  O   UNK N   1      30.308  23.007  -1.361  0.00  0.00    -0.305 OA
ENDBRANCH   6  11
ENDBRANCH   3   6
ENDBRANCH   1   2
BRANCH   1  13
HETATM   13  C   UNK N   1      26.747  23.551  -6.904  0.00  0.00     0.141 C 
BRANCH  13  14
HETATM   14  C   UNK N   1      26.105  23.721  -5.513  0.00  0.00     0.071 C 
BRANCH  14  15
HETATM   15  C   UNK N   1      25.895  25.113  -4.995  0.00  0.00    -0.056 A 
HETATM   16  C   UNK N   1      25.209  26.039  -5.789  0.00  0.00     0.007 A 
HETATM   17  C   UNK N   1      25.046  27.358  -5.353  0.00  0.00     0.001 A 
HETATM   18  C   UNK N   1      25.575  27.758  -4.122  0.00  0.00     0.000 A 
HETATM   19  C   UNK N   1      26.278  26.843  -3.335  0.00  0.00     0.001 A 
HETATM   20  C   UNK N   1      26.449  25.528  -3.778  0.00  0.00     0.007 A 
ENDBRANCH  14  15
ENDBRANCH  13  14
BRANCH  13  21
HETATM   21  C   UNK N   1      26.413  22.152  -7.506  0.00  0.00     0.007 C 
HETATM   22  C   UNK N   1      24.969  21.759  -7.258  0.00  0.00     0.012 C 
HETATM   23  C   UNK N   1      26.630  22.020  -9.002  0.00  0.00     0.012 C 
ENDBRANCH  13  21
ENDBRANCH   1  13
TORSDOF 10
ENDMDL
MODEL 9
REMARK VINA RESULT:      -5.1     11.938     15.560
REMARK  10 active torsions:
REMARK  status: ('A' for Active; 'I' for Inactive)
REMARK    1  A    between atoms: C_2  and  C_3 
REMARK    2  A    between atoms: C_3  and  C_4 
REMARK    3  A    between atoms: C_4  and  C_22 
REMARK       I    between atoms: N_6  and  C_7 
REMARK    4  A    between atoms: C_22  and  N_6 
REMARK    5  A    between atoms: C_7  and  O_9 
REMARK    6  A    between atoms: C_10  and  O_9 
REMARK    7  A    between atoms: C_10  and  C_11 
REMARK    8  A    between atoms: C_10  and  C_18 
REMARK    9  A    between atoms: C_11  and  C_12 
REMARK   10  A    between atoms: C_21  and  C_22 
ROOT
HETATM    1  O   UNK N   1      32.027  16.918   7.830  0.00  0.00    -0.298 OA
ENDROOT
BRANCH   1   2
HETATM    2  C   UNK N   1      30.880  17.619   8.044  0.00  0.00     0.361 C 
HETATM    3  N   UNK N   1      29.794  17.357   7.272  0.00  0.00    -0.326 N 
HETATM    4  H   UNK N   1      29.906  16.755   6.500  0.00  0.00     0.165 HD
HETATM    5  O   UNK N   1      30.813  18.443   8.947  0.00  0.00    -0.238 OA
BRANCH   3   6
HETATM    6  C   UNK N   1      28.475  17.914   7.520  0.00  0.00     0.148 C 
BRANCH   6   7
HETATM    7  C   UNK N   1      27.766  18.053   6.162  0.00  0.00     0.032 C 
BRANCH   7   8
HETATM    8  C   UNK N   1      28.546  18.761   5.049  0.00  0.00     0.002 C 
BRANCH   8   9
HETATM    9  C   UNK N   1      27.813  19.957   4.475  0.00  0.00    -0.004 C 
HETATM   10  C   UNK N   1      27.432  20.880   5.615  0.00  0.00     0.005 C 
ENDBRANCH   8   9
ENDBRANCH   7   8
ENDBRANCH   6   7
BRANCH   6  11
HETATM   11  C   UNK N   1      27.685  17.035   8.467  0.00  0.00     0.256 C 
HETATM   12  O   UNK N   1      27.688  17.214   9.674  0.00  0.00    -0.305 OA
ENDBRANCH   6  11
ENDBRANCH   3   6
ENDBRANCH   1   2
BRANCH   1  13
HETATM   13  C   UNK N   1      33.296  17.335   8.212  0.00  0.00     0.141 C 
BRANCH  13  14
HETATM   14  C   UNK N   1      33.976  17.815   6.917  0.00  0.00     0.071 C 
BRANCH  14  15
HETATM   15  C   UNK N   1      33.640  17.111   5.635  0.00  0.00    -0.056 A 
HETATM   16  C   UNK N   1      34.208  15.858   5.378  0.00  0.00     0.007 A 
HETATM   17  C   UNK N   1      33.953  15.204   4.167  0.00  0.00     0.001 A 
HETATM   18  C   UNK N   1      33.135  15.806   3.206  0.00  0.00     0.000 A 
HETATM   19  C   UNK N   1      32.583  17.065   3.450  0.00  0.00     0.001 A 
HETATM   20  C   UNK N   1      32.847  17.722   4.656  0.00  0.00     0.007 A 
ENDBRANCH  14  15
ENDBRANCH  13  14
BRANCH  13  21
HETATM   21  C   UNK N   1      34.097  16.167   8.864  0.00  0.00     0.007 C 
HETATM   22  C   UNK N   1      34.963  16.647  10.014  0.00  0.00     0.012 C 
HETATM   23  C   UNK N   1      33.256  15.033   9.421  0.00  0.00     0.012 C 
ENDBRANCH  13  21
ENDBRANCH   1  13
TORSDOF 10
ENDMDL
