MODEL 1
REMARK VINA RESULT:      -6.1      0.000      0.000
REMARK  9 active torsions:
REMARK  status: ('A' for Active; 'I' for Inactive)
REMARK    1  A    between atoms: C_2  and  C_3 
REMARK    2  A    between atoms: C_3  and  C_4 
REMARK    3  A    between atoms: C_4  and  C_5 
REMARK    4  A    between atoms: C_5  and  N_6 
REMARK    5  A    between atoms: C_5  and  C_22 
REMARK       I    between atoms: N_6  and  C_7 
REMARK    6  A    between atoms: C_7  and  O_9 
REMARK    7  A    between atoms: O_9  and  C_10 
REMARK    8  A    between atoms: C_10  and  C_11 
REMARK    9  A    between atoms: C_11  and  C_12 
ROOT
HETATM    1  C   UNK N   1      26.793  25.468  -5.200  0.00  0.00     0.076 C 
HETATM    2  C   UNK N   1      26.383  26.332  -4.003  0.00  0.00     0.039 C 
HETATM    3  C   UNK N   1      25.426  27.392  -4.520  0.00  0.00     0.003 C 
HETATM    4  C   UNK N   1      24.963  26.898  -5.871  0.00  0.00     0.003 C 
HETATM    5  C   UNK N   1      26.137  26.111  -6.409  0.00  0.00     0.039 C 
ENDROOT
BRANCH   1   6
HETATM    6  O   UNK N   1      28.177  25.513  -5.343  0.00  0.00    -0.292 OA
BRANCH   6   7
HETATM    7  C   UNK N   1      29.026  25.879  -4.334  0.00  0.00     0.362 C 
HETATM    8  N   UNK N   1      29.623  24.960  -3.536  0.00  0.00    -0.326 N 
HETATM    9  H   UNK N   1      30.248  25.305  -2.859  0.00  0.00     0.165 HD
HETATM   10  O   UNK N   1      29.309  27.060  -4.167  0.00  0.00    -0.238 OA
BRANCH   8  11
HETATM   11  C   UNK N   1      29.439  23.521  -3.574  0.00  0.00     0.148 C 
BRANCH  11  12
HETATM   12  C   UNK N   1      30.466  22.864  -4.494  0.00  0.00     0.032 C 
BRANCH  12  13
HETATM   13  C   UNK N   1      30.226  21.359  -4.649  0.00  0.00     0.002 C 
BRANCH  13  14
HETATM   14  C   UNK N   1      31.211  20.729  -5.628  0.00  0.00    -0.004 C 
HETATM   15  C   UNK N   1      30.474  19.945  -6.700  0.00  0.00     0.005 C 
ENDBRANCH  13  14
ENDBRANCH  12  13
ENDBRANCH  11  12
BRANCH  11  16
HETATM   16  C   UNK N   1      29.454  22.909  -2.204  0.00  0.00     0.256 C 
HETATM   17  O   UNK N   1      30.400  23.093  -1.455  0.00  0.00    -0.305 OA
ENDBRANCH  11  16
ENDBRANCH   8  11
ENDBRANCH   6   7
ENDBRANCH   1   6
BRANCH   1  18
HETATM   18  C   UNK N   1      26.358  23.990  -5.051  0.00  0.00     0.077 C 
BRANCH  18  19
HETATM   19  C   UNK N   1      26.335  23.078  -6.240  0.00  0.00    -0.055 A 
HETATM   20  C   UNK N   1      25.147  22.459  -6.653  0.00  0.00     0.007 A 
HETATM   21  C   UNK N   1      25.166  21.513  -7.682  0.00  0.00     0.001 A 
HETATM   22  C   UNK N   1      26.378  21.156  -8.280  0.00  0.00     0.000 A 
HETATM   23  C   UNK N   1      27.568  21.756  -7.858  0.00  0.00     0.001 A 
HETATM   24  C   UNK N   1      27.546  22.713  -6.837  0.00  0.00     0.007 A 
ENDBRANCH  18  19
ENDBRANCH   1  18
TORSDOF 9
ENDMDL
MODEL 2
REMARK VINA RESULT:      -6.0      1.566      4.323
REMARK  9 active torsions:
REMARK  status: ('A' for Active; 'I' for Inactive)
REMARK    1  A    between atoms: C_2  and  C_3 
REMARK    2  A    between atoms: C_3  and  C_4 
REMARK    3  A    between atoms: C_4  and  C_5 
REMARK    4  A    between atoms: C_5  and  N_6 
REMARK    5  A    between atoms: C_5  and  C_22 
REMARK       I    between atoms: N_6  and  C_7 
REMARK    6  A    between atoms: C_7  and  O_9 
REMARK    7  A    between atoms: O_9  and  C_10 
REMARK    8  A    between atoms: C_10  and  C_11 
REMARK    9  A    between atoms: C_11  and  C_12 
ROOT
HETATM    1  C   UNK N   1      26.970  25.170  -5.338  0.00  0.00     0.076 C 
HETATM    2  C   UNK N   1      27.751  24.741  -6.583  0.00  0.00     0.039 C 
HETATM    3  C   UNK N   1      27.266  23.352  -6.961  0.00  0.00     0.003 C 
HETATM    4  C   UNK N   1      25.958  23.164  -6.228  0.00  0.00     0.003 C 
HETATM    5  C   UNK N   1      26.115  23.974  -4.960  0.00  0.00     0.039 C 
ENDROOT
BRANCH   1   6
HETATM    6  O   UNK N   1      27.867  25.444  -4.308  0.00  0.00    -0.292 OA
BRANCH   6   7
HETATM    7  C   UNK N   1      29.226  25.380  -4.457  0.00  0.00     0.362 C 
HETATM    8  N   UNK N   1      29.927  24.265  -4.135  0.00  0.00    -0.326 N 
HETATM    9  H   UNK N   1      30.896  24.290  -4.307  0.00  0.00     0.165 HD
HETATM   10  O   UNK N   1      29.835  26.326  -4.941  0.00  0.00    -0.238 OA
BRANCH   8  11
HETATM   11  C   UNK N   1      29.402  23.039  -3.565  0.00  0.00     0.148 C 
BRANCH  11  12
HETATM   12  C   UNK N   1      30.147  21.822  -4.109  0.00  0.00     0.032 C 
BRANCH  12  13
HETATM   13  C   UNK N   1      30.377  21.910  -5.621  0.00  0.00     0.002 C 
BRANCH  13  14
HETATM   14  C   UNK N   1      30.502  20.529  -6.254  0.00  0.00    -0.004 C 
HETATM   15  C   UNK N   1      29.372  20.288  -7.241  0.00  0.00     0.005 C 
ENDBRANCH  13  14
ENDBRANCH  12  13
ENDBRANCH  11  12
BRANCH  11  16
HETATM   16  C   UNK N   1      29.405  23.062  -2.064  0.00  0.00     0.256 C 
HETATM   17  O   UNK N   1      30.452  22.965  -1.446  0.00  0.00    -0.305 OA
ENDBRANCH  11  16
ENDBRANCH   8  11
ENDBRANCH   6   7
ENDBRANCH   1   6
BRANCH   1  18
HETATM   18  C   UNK N   1      26.097  26.425  -5.579  0.00  0.00     0.077 C 
BRANCH  18  19
HETATM   19  C   UNK N   1      26.571  27.780  -5.147  0.00  0.00    -0.055 A 
HETATM   20  C   UNK N   1      26.021  28.414  -4.024  0.00  0.00     0.007 A 
HETATM   21  C   UNK N   1      26.381  29.727  -3.709  0.00  0.00     0.001 A 
HETATM   22  C   UNK N   1      27.266  30.425  -4.535  0.00  0.00     0.000 A 
HETATM   23  C   UNK N   1      27.801  29.805  -5.668  0.00  0.00     0.001 A 
HETATM   24  C   UNK N   1      27.451  28.486  -5.975  0.00  0.00     0.007 A 
ENDBRANCH  18  19
ENDBRANCH   1  18
TORSDOF 9
ENDMDL
MODEL 3
REMARK VINA RESULT:      -6.0      1.929      4.984
REMARK  9 active torsions:
REMARK  status: ('A' for Active; 'I' for Inactive)
REMARK    1  A    between atoms: C_2  and  C_3 
REMARK    2  A    between atoms: C_3  and  C_4 
REMARK    3  A    between atoms: C_4  and  C_5 
REMARK    4  A    between atoms: C_5  and  N_6 
REMARK    5  A    between atoms: C_5  and  C_22 
REMARK       I    between atoms: N_6  and  C_7 
REMARK    6  A    between atoms: C_7  and  O_9 
REMARK    7  A    between atoms: O_9  and  C_10 
REMARK    8  A    between atoms: C_10  and  C_11 
REMARK    9  A    between atoms: C_11  and  C_12 
ROOT
HETATM    1  C   UNK N   1      26.693  24.970  -5.668  0.00  0.00     0.076 C 
HETATM    2  C   UNK N   1      27.686  24.618  -6.780  0.00  0.00     0.039 C 
HETATM    3  C   UNK N   1      27.321  23.234  -7.287  0.00  0.00     0.003 C 
HETATM    4  C   UNK N   1      25.917  22.976  -6.793  0.00  0.00     0.003 C 
HETATM    5  C   UNK N   1      25.830  23.733  -5.486  0.00  0.00     0.039 C 
ENDROOT
BRANCH   1   6
HETATM    6  O   UNK N   1      27.395  25.223  -4.492  0.00  0.00    -0.292 OA
BRANCH   6   7
HETATM    7  C   UNK N   1      27.517  24.313  -3.477  0.00  0.00     0.362 C 
HETATM    8  N   UNK N   1      28.647  23.585  -3.305  0.00  0.00    -0.326 N 
HETATM    9  H   UNK N   1      28.666  22.980  -2.528  0.00  0.00     0.165 HD
HETATM   10  O   UNK N   1      26.613  24.179  -2.662  0.00  0.00    -0.238 OA
BRANCH   8  11
HETATM   11  C   UNK N   1      29.832  23.602  -4.142  0.00  0.00     0.148 C 
BRANCH  11  12
HETATM   12  C   UNK N   1      30.888  24.548  -3.574  0.00  0.00     0.032 C 
BRANCH  12  13
HETATM   13  C   UNK N   1      31.432  25.512  -4.633  0.00  0.00     0.002 C 
BRANCH  13  14
HETATM   14  C   UNK N   1      30.435  26.619  -4.954  0.00  0.00    -0.004 C 
HETATM   15  C   UNK N   1      30.032  27.361  -3.691  0.00  0.00     0.005 C 
ENDBRANCH  13  14
ENDBRANCH  12  13
ENDBRANCH  11  12
BRANCH  11  16
HETATM   16  C   UNK N   1      30.389  22.227  -4.368  0.00  0.00     0.256 C 
HETATM   17  O   UNK N   1      30.440  21.422  -3.453  0.00  0.00    -0.305 OA
ENDBRANCH  11  16
ENDBRANCH   8  11
ENDBRANCH   6   7
ENDBRANCH   1   6
BRANCH   1  18
HETATM   18  C   UNK N   1      25.827  26.208  -6.004  0.00  0.00     0.077 C 
BRANCH  18  19
HETATM   19  C   UNK N   1      26.296  27.586  -5.648  0.00  0.00    -0.055 A 
HETATM   20  C   UNK N   1      27.331  28.205  -6.364  0.00  0.00     0.007 A 
HETATM   21  C   UNK N   1      27.844  29.434  -5.941  0.00  0.00     0.001 A 
HETATM   22  C   UNK N   1      27.349  30.035  -4.780  0.00  0.00     0.000 A 
HETATM   23  C   UNK N   1      26.331  29.412  -4.051  0.00  0.00     0.001 A 
HETATM   24  C   UNK N   1      25.809  28.189  -4.483  0.00  0.00     0.007 A 
ENDBRANCH  18  19
ENDBRANCH   1  18
TORSDOF 9
ENDMDL
MODEL 4
REMARK VINA RESULT:      -6.0     19.704     23.574
REMARK  9 active torsions:
REMARK  status: ('A' for Active; 'I' for Inactive)
REMARK    1  A    between atoms: C_2  and  C_3 
REMARK    2  A    between atoms: C_3  and  C_4 
REMARK    3  A    between atoms: C_4  and  C_5 
REMARK    4  A    between atoms: C_5  and  N_6 
REMARK    5  A    between atoms: C_5  and  C_22 
REMARK       I    between atoms: N_6  and  C_7 
REMARK    6  A    between atoms: C_7  and  O_9 
REMARK    7  A    between atoms: O_9  and  C_10 
REMARK    8  A    between atoms: C_10  and  C_11 
REMARK    9  A    between atoms: C_11  and  C_12 
ROOT
HETATM    1  C   UNK N   1      35.542  12.444  14.025  0.00  0.00     0.076 C 
HETATM    2  C   UNK N   1      35.429  11.607  12.748  0.00  0.00     0.039 C 
HETATM    3  C   UNK N   1      36.785  10.965  12.510  0.00  0.00     0.003 C 
HETATM    4  C   UNK N   1      37.524  11.075  13.823  0.00  0.00     0.003 C 
HETATM    5  C   UNK N   1      36.997  12.348  14.448  0.00  0.00     0.039 C 
ENDROOT
BRANCH   1   6
HETATM    6  O   UNK N   1      35.230  13.769  13.732  0.00  0.00    -0.292 OA
BRANCH   6   7
HETATM    7  C   UNK N   1      36.174  14.736  13.519  0.00  0.00     0.362 C 
HETATM    8  N   UNK N   1      36.373  15.281  12.294  0.00  0.00    -0.326 N 
HETATM    9  H   UNK N   1      37.046  15.996  12.235  0.00  0.00     0.165 HD
HETATM   10  O   UNK N   1      36.831  15.170  14.458  0.00  0.00    -0.238 OA
BRANCH   8  11
HETATM   11  C   UNK N   1      35.698  14.924  11.061  0.00  0.00     0.148 C 
BRANCH  11  12
HETATM   12  C   UNK N   1      35.183  16.169  10.340  0.00  0.00     0.032 C 
BRANCH  12  13
HETATM   13  C   UNK N   1      34.814  15.884   8.881  0.00  0.00     0.002 C 
BRANCH  13  14
HETATM   14  C   UNK N   1      33.843  16.923   8.332  0.00  0.00    -0.004 C 
HETATM   15  C   UNK N   1      34.503  18.290   8.264  0.00  0.00     0.005 C 
ENDBRANCH  13  14
ENDBRANCH  12  13
ENDBRANCH  11  12
BRANCH  11  16
HETATM   16  C   UNK N   1      36.559  14.084  10.163  0.00  0.00     0.256 C 
HETATM   17  O   UNK N   1      37.771  14.225  10.159  0.00  0.00    -0.305 OA
ENDBRANCH  11  16
ENDBRANCH   8  11
ENDBRANCH   6   7
ENDBRANCH   1   6
BRANCH   1  18
HETATM   18  C   UNK N   1      34.601  11.952  15.151  0.00  0.00     0.077 C 
BRANCH  18  19
HETATM   19  C   UNK N   1      34.986  12.112  16.591  0.00  0.00    -0.055 A 
HETATM   20  C   UNK N   1      35.221  10.995  17.405  0.00  0.00     0.007 A 
HETATM   21  C   UNK N   1      35.452  11.156  18.774  0.00  0.00     0.001 A 
HETATM   22  C   UNK N   1      35.415  12.432  19.343  0.00  0.00     0.000 A 
HETATM   23  C   UNK N   1      35.161  13.548  18.539  0.00  0.00     0.001 A 
HETATM   24  C   UNK N   1      34.943  13.387  17.167  0.00  0.00     0.007 A 
ENDBRANCH  18  19
ENDBRANCH   1  18
TORSDOF 9
ENDMDL
MODEL 5
REMARK VINA RESULT:      -6.0     14.802     18.026
REMARK  9 active torsions:
REMARK  status: ('A' for Active; 'I' for Inactive)
REMARK    1  A    between atoms: C_2  and  C_3 
REMARK    2  A    between atoms: C_3  and  C_4 
REMARK    3  A    between atoms: C_4  and  C_5 
REMARK    4  A    between atoms: C_5  and  N_6 
REMARK    5  A    between atoms: C_5  and  C_22 
REMARK       I    between atoms: N_6  and  C_7 
REMARK    6  A    between atoms: C_7  and  O_9 
REMARK    7  A    between atoms: O_9  and  C_10 
REMARK    8  A    between atoms: C_10  and  C_11 
REMARK    9  A    between atoms: C_11  and  C_12 
ROOT
HETATM    1  C   UNK N   1      33.723  15.842   8.963  0.00  0.00     0.076 C 
HETATM    2  C   UNK N   1      34.913  15.397   8.108  0.00  0.00     0.039 C 
HETATM    3  C   UNK N   1      34.533  14.078   7.459  0.00  0.00     0.003 C 
HETATM    4  C   UNK N   1      33.030  13.981   7.584  0.00  0.00     0.003 C 
HETATM    5  C   UNK N   1      32.709  14.715   8.868  0.00  0.00     0.039 C 
ENDROOT
BRANCH   1   6
HETATM    6  O   UNK N   1      34.137  15.984  10.285  0.00  0.00    -0.292 OA
BRANCH   6   7
HETATM    7  C   UNK N   1      35.361  16.481  10.641  0.00  0.00     0.362 C 
HETATM    8  N   UNK N   1      36.267  15.730  11.314  0.00  0.00    -0.326 N 
HETATM    9  H   UNK N   1      37.137  16.152  11.499  0.00  0.00     0.165 HD
HETATM   10  O   UNK N   1      35.685  17.614  10.305  0.00  0.00    -0.238 OA
BRANCH   8  11
HETATM   11  C   UNK N   1      36.091  14.372  11.791  0.00  0.00     0.148 C 
BRANCH  11  12
HETATM   12  C   UNK N   1      37.084  13.425  11.119  0.00  0.00     0.032 C 
BRANCH  12  13
HETATM   13  C   UNK N   1      36.469  12.054  10.824  0.00  0.00     0.002 C 
BRANCH  13  14
HETATM   14  C   UNK N   1      34.969  12.151  10.568  0.00  0.00    -0.004 C 
HETATM   15  C   UNK N   1      34.517  11.065   9.607  0.00  0.00     0.005 C 
ENDBRANCH  13  14
ENDBRANCH  12  13
ENDBRANCH  11  12
BRANCH  11  16
HETATM   16  C   UNK N   1      36.168  14.279  13.287  0.00  0.00     0.256 C 
HETATM   17  O   UNK N   1      35.252  13.786  13.924  0.00  0.00    -0.305 OA
ENDBRANCH  11  16
ENDBRANCH   8  11
ENDBRANCH   6   7
ENDBRANCH   1   6
BRANCH   1  18
HETATM   18  C   UNK N   1      33.110  17.183   8.489  0.00  0.00     0.077 C 
BRANCH  18  19
HETATM   19  C   UNK N   1      32.604  17.337   7.087  0.00  0.00    -0.055 A 
HETATM   20  C   UNK N   1      31.251  17.128   6.780  0.00  0.00     0.007 A 
HETATM   21  C   UNK N   1      30.818  17.149   5.452  0.00  0.00     0.001 A 
HETATM   22  C   UNK N   1      31.741  17.344   4.420  0.00  0.00     0.000 A 
HETATM   23  C   UNK N   1      33.093  17.533   4.719  0.00  0.00     0.001 A 
HETATM   24  C   UNK N   1      33.524  17.525   6.050  0.00  0.00     0.007 A 
ENDBRANCH  18  19
ENDBRANCH   1  18
TORSDOF 9
ENDMDL
MODEL 6
REMARK VINA RESULT:      -5.9     11.156     14.034
REMARK  9 active torsions:
REMARK  status: ('A' for Active; 'I' for Inactive)
REMARK    1  A    between atoms: C_2  and  C_3 
REMARK    2  A    between atoms: C_3  and  C_4 
REMARK    3  A    between atoms: C_4  and  C_5 
REMARK    4  A    between atoms: C_5  and  N_6 
REMARK    5  A    between atoms: C_5  and  C_22 
REMARK       I    between atoms: N_6  and  C_7 
REMARK    6  A    between atoms: C_7  and  O_9 
REMARK    7  A    between atoms: O_9  and  C_10 
REMARK    8  A    between atoms: C_10  and  C_11 
REMARK    9  A    between atoms: C_11  and  C_12 
ROOT
HETATM    1  C   UNK N   1      30.996  16.215   5.047  0.00  0.00     0.076 C 
HETATM    2  C   UNK N   1      32.013  15.293   4.368  0.00  0.00     0.039 C 
HETATM    3  C   UNK N   1      33.045  16.181   3.694  0.00  0.00     0.003 C 
HETATM    4  C   UNK N   1      32.878  17.546   4.319  0.00  0.00     0.003 C 
HETATM    5  C   UNK N   1      31.408  17.627   4.666  0.00  0.00     0.039 C 
ENDROOT
BRANCH   1   6
HETATM    6  O   UNK N   1      29.728  15.949   4.539  0.00  0.00    -0.292 OA
BRANCH   6   7
HETATM    7  C   UNK N   1      29.253  16.492   3.376  0.00  0.00     0.362 C 
HETATM    8  N   UNK N   1      28.392  17.539   3.378  0.00  0.00    -0.326 N 
HETATM    9  H   UNK N   1      28.128  17.892   2.498  0.00  0.00     0.165 HD
HETATM   10  O   UNK N   1      29.646  16.069   2.295  0.00  0.00    -0.238 OA
BRANCH   8  11
HETATM   11  C   UNK N   1      27.818  18.194   4.538  0.00  0.00     0.148 C 
BRANCH  11  12
HETATM   12  C   UNK N   1      28.060  19.701   4.489  0.00  0.00     0.032 C 
BRANCH  12  13
HETATM   13  C   UNK N   1      26.933  20.492   5.158  0.00  0.00     0.002 C 
BRANCH  13  14
HETATM   14  C   UNK N   1      27.403  21.169   6.441  0.00  0.00    -0.004 C 
HETATM   15  C   UNK N   1      26.229  21.438   7.367  0.00  0.00     0.005 C 
ENDBRANCH  13  14
ENDBRANCH  12  13
ENDBRANCH  11  12
BRANCH  11  16
HETATM   16  C   UNK N   1      26.361  17.875   4.709  0.00  0.00     0.256 C 
HETATM   17  O   UNK N   1      26.012  16.925   5.390  0.00  0.00    -0.305 OA
ENDBRANCH  11  16
ENDBRANCH   8  11
ENDBRANCH   6   7
ENDBRANCH   1   6
BRANCH   1  18
HETATM   18  C   UNK N   1      30.960  16.042   6.584  0.00  0.00     0.077 C 
BRANCH  18  19
HETATM   19  C   UNK N   1      30.274  17.055   7.451  0.00  0.00    -0.055 A 
HETATM   20  C   UNK N   1      31.002  17.848   8.350  0.00  0.00     0.007 A 
HETATM   21  C   UNK N   1      30.336  18.694   9.241  0.00  0.00     0.001 A 
HETATM   22  C   UNK N   1      28.939  18.727   9.261  0.00  0.00     0.000 A 
HETATM   23  C   UNK N   1      28.209  17.924   8.380  0.00  0.00     0.001 A 
HETATM   24  C   UNK N   1      28.876  17.086   7.480  0.00  0.00     0.007 A 
ENDBRANCH  18  19
ENDBRANCH   1  18
TORSDOF 9
ENDMDL
MODEL 7
REMARK VINA RESULT:      -5.9     11.532     14.216
REMARK  9 active torsions:
REMARK  status: ('A' for Active; 'I' for Inactive)
REMARK    1  A    between atoms: C_2  and  C_3 
REMARK    2  A    between atoms: C_3  and  C_4 
REMARK    3  A    between atoms: C_4  and  C_5 
REMARK    4  A    between atoms: C_5  and  N_6 
REMARK    5  A    between atoms: C_5  and  C_22 
REMARK       I    between atoms: N_6  and  C_7 
REMARK    6  A    between atoms: C_7  and  O_9 
REMARK    7  A    between atoms: O_9  and  C_10 
REMARK    8  A    between atoms: C_10  and  C_11 
REMARK    9  A    between atoms: C_11  and  C_12 
ROOT
HETATM    1  C   UNK N   1      30.071  16.638   6.431  0.00  0.00     0.076 C 
HETATM    2  C   UNK N   1      30.948  17.590   5.610  0.00  0.00     0.039 C 
HETATM    3  C   UNK N   1      31.386  16.837   4.367  0.00  0.00     0.003 C 
HETATM    4  C   UNK N   1      30.454  15.653   4.257  0.00  0.00     0.003 C 
HETATM    5  C   UNK N   1      30.103  15.314   5.688  0.00  0.00     0.039 C 
ENDROOT
BRANCH   1   6
HETATM    6  O   UNK N   1      30.633  16.476   7.695  0.00  0.00    -0.292 OA
BRANCH   6   7
HETATM    7  C   UNK N   1      31.026  17.522   8.484  0.00  0.00     0.362 C 
HETATM    8  N   UNK N   1      32.322  17.700   8.840  0.00  0.00    -0.326 N 
HETATM    9  H   UNK N   1      32.524  18.498   9.378  0.00  0.00     0.165 HD
HETATM   10  O   UNK N   1      30.208  18.361   8.844  0.00  0.00    -0.238 OA
BRANCH   8  11
HETATM   11  C   UNK N   1      33.442  16.839   8.511  0.00  0.00     0.148 C 
BRANCH  11  12
HETATM   12  C   UNK N   1      34.072  17.248   7.181  0.00  0.00     0.032 C 
BRANCH  12  13
HETATM   13  C   UNK N   1      34.511  16.039   6.350  0.00  0.00     0.002 C 
BRANCH  13  14
HETATM   14  C   UNK N   1      33.636  14.820   6.622  0.00  0.00    -0.004 C 
HETATM   15  C   UNK N   1      33.596  13.907   5.409  0.00  0.00     0.005 C 
ENDBRANCH  13  14
ENDBRANCH  12  13
ENDBRANCH  11  12
BRANCH  11  16
HETATM   16  C   UNK N   1      34.461  16.785   9.611  0.00  0.00     0.256 C 
HETATM   17  O   UNK N   1      35.318  17.648   9.703  0.00  0.00    -0.305 OA
ENDBRANCH  11  16
ENDBRANCH   8  11
ENDBRANCH   6   7
ENDBRANCH   1   6
BRANCH   1  18
HETATM   18  C   UNK N   1      28.620  17.150   6.596  0.00  0.00     0.077 C 
BRANCH  18  19
HETATM   19  C   UNK N   1      28.155  18.375   5.867  0.00  0.00    -0.055 A 
HETATM   20  C   UNK N   1      27.920  19.576   6.552  0.00  0.00     0.007 A 
HETATM   21  C   UNK N   1      27.366  20.671   5.883  0.00  0.00     0.001 A 
HETATM   22  C   UNK N   1      27.011  20.560   4.536  0.00  0.00     0.000 A 
HETATM   23  C   UNK N   1      27.225  19.358   3.855  0.00  0.00     0.001 A 
HETATM   24  C   UNK N   1      27.792  18.267   4.521  0.00  0.00     0.007 A 
ENDBRANCH  18  19
ENDBRANCH   1  18
TORSDOF 9
ENDMDL
MODEL 8
REMARK VINA RESULT:      -5.9      1.631      5.631
REMARK  9 active torsions:
REMARK  status: ('A' for Active; 'I' for Inactive)
REMARK    1  A    between atoms: C_2  and  C_3 
REMARK    2  A    between atoms: C_3  and  C_4 
REMARK    3  A    between atoms: C_4  and  C_5 
REMARK    4  A    between atoms: C_5  and  N_6 
REMARK    5  A    between atoms: C_5  and  C_22 
REMARK       I    between atoms: N_6  and  C_7 
REMARK    6  A    between atoms: C_7  and  O_9 
REMARK    7  A    between atoms: O_9  and  C_10 
REMARK    8  A    between atoms: C_10  and  C_11 
REMARK    9  A    between atoms: C_11  and  C_12 
ROOT
HETATM    1  C   UNK N   1      31.561  22.172  -3.954  0.00  0.00     0.076 C 
HETATM    2  C   UNK N   1      32.477  22.516  -5.132  0.00  0.00     0.039 C 
HETATM    3  C   UNK N   1      33.859  21.980  -4.799  0.00  0.00     0.003 C 
HETATM    4  C   UNK N   1      33.652  20.991  -3.676  0.00  0.00     0.003 C 
HETATM    5  C   UNK N   1      32.461  21.527  -2.913  0.00  0.00     0.039 C 
ENDROOT
BRANCH   1   6
HETATM    6  O   UNK N   1      31.022  23.347  -3.437  0.00  0.00    -0.292 OA
BRANCH   6   7
HETATM    7  C   UNK N   1      30.052  23.369  -2.471  0.00  0.00     0.362 C 
HETATM    8  N   UNK N   1      28.790  23.786  -2.737  0.00  0.00    -0.326 N 
HETATM    9  H   UNK N   1      28.145  23.736  -1.996  0.00  0.00     0.165 HD
HETATM   10  O   UNK N   1      30.299  22.955  -1.345  0.00  0.00    -0.238 OA
BRANCH   8  11
HETATM   11  C   UNK N   1      28.289  24.298  -3.998  0.00  0.00     0.148 C 
BRANCH  11  12
HETATM   12  C   UNK N   1      26.762  24.337  -4.003  0.00  0.00     0.032 C 
BRANCH  12  13
HETATM   13  C   UNK N   1      26.171  23.791  -5.307  0.00  0.00     0.002 C 
BRANCH  13  14
HETATM   14  C   UNK N   1      25.886  24.906  -6.307  0.00  0.00    -0.004 C 
HETATM   15  C   UNK N   1      25.235  26.092  -5.617  0.00  0.00     0.005 C 
ENDBRANCH  13  14
ENDBRANCH  12  13
ENDBRANCH  11  12
BRANCH  11  16
HETATM   16  C   UNK N   1      28.875  25.636  -4.344  0.00  0.00     0.256 C 
HETATM   17  O   UNK N   1      29.443  25.806  -5.410  0.00  0.00    -0.305 OA
ENDBRANCH  11  16
ENDBRANCH   8  11
ENDBRANCH   6   7
ENDBRANCH   1   6
BRANCH   1  18
HETATM   18  C   UNK N   1      30.402  21.226  -4.350  0.00  0.00     0.077 C 
BRANCH  18  19
HETATM   19  C   UNK N   1      30.033  21.033  -5.790  0.00  0.00    -0.055 A 
HETATM   20  C   UNK N   1      29.106  21.877  -6.418  0.00  0.00     0.007 A 
HETATM   21  C   UNK N   1      28.676  21.607  -7.719  0.00  0.00     0.001 A 
HETATM   22  C   UNK N   1      29.144  20.473  -8.388  0.00  0.00     0.000 A 
HETATM   23  C   UNK N   1      30.053  19.617  -7.759  0.00  0.00     0.001 A 
HETATM   24  C   UNK N   1      30.493  19.895  -6.461  0.00  0.00     0.007 A 
ENDBRANCH  18  19
ENDBRANCH   1  18
TORSDOF 9
ENDMDL
MODEL 9
REMARK VINA RESULT:      -5.8      1.777      4.497
REMARK  9 active torsions:
REMARK  status: ('A' for Active; 'I' for Inactive)
REMARK    1  A    between atoms: C_2  and  C_3 
REMARK    2  A    between atoms: C_3  and  C_4 
REMARK    3  A    between atoms: C_4  and  C_5 
REMARK    4  A    between atoms: C_5  and  N_6 
REMARK    5  A    between atoms: C_5  and  C_22 
REMARK       I    between atoms: N_6  and  C_7 
REMARK    6  A    between atoms: C_7  and  O_9 
REMARK    7  A    between atoms: O_9  and  C_10 
REMARK    8  A    between atoms: C_10  and  C_11 
REMARK    9  A    between atoms: C_11  and  C_12 
ROOT
HETATM    1  C   UNK N   1      26.745  24.761  -5.873  0.00  0.00     0.076 C 
HETATM    2  C   UNK N   1      27.611  24.506  -7.111  0.00  0.00     0.039 C 
HETATM    3  C   UNK N   1      27.275  23.114  -7.616  0.00  0.00     0.003 C 
HETATM    4  C   UNK N   1      25.963  22.749  -6.961  0.00  0.00     0.003 C 
HETATM    5  C   UNK N   1      25.993  23.465  -5.629  0.00  0.00     0.039 C 
ENDROOT
BRANCH   1   6
HETATM    6  O   UNK N   1      27.571  25.032  -4.786  0.00  0.00    -0.292 OA
BRANCH   6   7
HETATM    7  C   UNK N   1      27.455  24.401  -3.577  0.00  0.00     0.362 C 
HETATM    8  N   UNK N   1      28.492  23.728  -3.022  0.00  0.00    -0.326 N 
HETATM    9  H   UNK N   1      28.335  23.334  -2.133  0.00  0.00     0.165 HD
HETATM   10  O   UNK N   1      26.410  24.480  -2.941  0.00  0.00    -0.238 OA
BRANCH   8  11
HETATM   11  C   UNK N   1      29.809  23.527  -3.596  0.00  0.00     0.148 C 
BRANCH  11  12
HETATM   12  C   UNK N   1      29.745  22.571  -4.786  0.00  0.00     0.032 C 
BRANCH  12  13
HETATM   13  C   UNK N   1      30.618  21.329  -4.579  0.00  0.00     0.002 C 
BRANCH  13  14
HETATM   14  C   UNK N   1      31.359  21.375  -3.248  0.00  0.00    -0.004 C 
HETATM   15  C   UNK N   1      32.843  21.122  -3.451  0.00  0.00     0.005 C 
ENDBRANCH  13  14
ENDBRANCH  12  13
ENDBRANCH  11  12
BRANCH  11  16
HETATM   16  C   UNK N   1      30.474  24.821  -3.963  0.00  0.00     0.256 C 
HETATM   17  O   UNK N   1      30.771  25.631  -3.101  0.00  0.00    -0.305 OA
ENDBRANCH  11  16
ENDBRANCH   8  11
ENDBRANCH   6   7
ENDBRANCH   1   6
BRANCH   1  18
HETATM   18  C   UNK N   1      25.766  25.946  -6.059  0.00  0.00     0.077 C 
BRANCH  18  19
HETATM   19  C   UNK N   1      26.148  27.327  -5.617  0.00  0.00    -0.055 A 
HETATM   20  C   UNK N   1      27.144  28.050  -6.289  0.00  0.00     0.007 A 
HETATM   21  C   UNK N   1      27.579  29.281  -5.790  0.00  0.00     0.001 A 
HETATM   22  C   UNK N   1      27.044  29.779  -4.598  0.00  0.00     0.000 A 
HETATM   23  C   UNK N   1      26.065  29.052  -3.915  0.00  0.00     0.001 A 
HETATM   24  C   UNK N   1      25.621  27.827  -4.422  0.00  0.00     0.007 A 
ENDBRANCH  18  19
ENDBRANCH   1  18
TORSDOF 9
ENDMDL
