MODEL 1
REMARK VINA RESULT:      -8.1      0.000      0.000
REMARK  5 active torsions:
REMARK  status: ('A' for Active; 'I' for Inactive)
REMARK    1  A    between atoms: C_8  and  C_9 
REMARK    2  A    between atoms: C_14  and  C_16 
REMARK    3  A    between atoms: C_18  and  C_19 
REMARK    4  A    between atoms: C_21  and  O_23 
REMARK    5  A    between atoms: C_26  and  O_27 
ROOT
HETATM    1  C   UNK N   1      31.100  16.870   4.649  0.00  0.00     0.027 A 
HETATM    2  C   UNK N   1      31.348  16.268   3.417  0.00  0.00     0.035 A 
HETATM    3  C   UNK N   1      32.550  15.487   3.002  0.00  0.00     0.070 C 
HETATM    4  N   UNK N   1      30.321  16.491   2.585  0.00  0.00    -0.304 N 
ATOM      5  HN  UNK N   1      30.254  16.158   1.623  1.00  0.00     0.186 HD
HETATM    6  C   UNK N   1      29.821  17.472   4.473  0.00  0.00     0.074 A 
HETATM    7  N   UNK N   1      29.407  17.211   3.215  0.00  0.00    -0.299 N 
HETATM    8  H   UNK N   1      28.554  17.510   2.825  0.00  0.00     0.187 HD
ENDROOT
BRANCH   6   9
HETATM    9  C   UNK N   1      28.951  18.278   5.409  0.00  0.00     0.027 A 
HETATM   10  C   UNK N   1      28.927  18.001   6.769  0.00  0.00     0.026 A 
HETATM   11  C   UNK N   1      28.163  18.710   7.687  0.00  0.00    -0.024 A 
HETATM   12  C   UNK N   1      27.356  19.765   7.216  0.00  0.00     0.074 A 
HETATM   13  C   UNK N   1      27.348  20.067   5.852  0.00  0.00     0.074 A 
HETATM   14  C   UNK N   1      28.131  19.338   4.947  0.00  0.00     0.081 A 
BRANCH  11  15
HETATM   15  C   UNK N   1      28.281  18.271   9.128  0.00  0.00     0.037 C 
HETATM   16  C   UNK N   1      29.646  18.386   9.781  0.00  0.00     0.010 C 
ENDBRANCH  11  15
BRANCH  12  17
HETATM   17  O   UNK N   1      26.592  20.492   8.049  0.00  0.00    -0.360 OA
HETATM   18  H   UNK N   1      25.944  20.071   8.579  0.00  0.00     0.217 HD
ENDBRANCH  12  17
BRANCH  14  19
HETATM   19  O   UNK N   1      28.091  19.673   3.646  0.00  0.00    -0.360 OA
HETATM   20  H   UNK N   1      28.883  19.880   3.189  0.00  0.00     0.217 HD
ENDBRANCH  14  19
ENDBRANCH   6   9
BRANCH   1  21
HETATM   21  C   UNK N   1      32.050  16.829   5.822  0.00  0.00    -0.019 A 
HETATM   22  C   UNK N   1      31.870  15.936   6.873  0.00  0.00     0.052 A 
HETATM   23  C   UNK N   1      32.735  15.871   7.954  0.00  0.00     0.102 A 
HETATM   24  O   UNK N   1      32.512  14.974   8.935  0.00  0.00    -0.346 OA
HETATM   25  C   UNK N   1      33.828  16.724   8.015  0.00  0.00     0.102 A 
HETATM   26  C   UNK N   1      33.323  14.816  10.044  0.00  0.00     0.202 A 
HETATM   27  C   UNK N   1      34.533  15.772  10.122  0.00  0.00     0.202 A 
HETATM   28  O   UNK N   1      34.673  16.659   9.064  0.00  0.00    -0.346 OA
HETATM   29  C   UNK N   1      34.043  17.645   6.983  0.00  0.00     0.040 A 
HETATM   30  C   UNK N   1      33.158  17.696   5.894  0.00  0.00     0.015 A 
ENDBRANCH   1  21
TORSDOF 5
ENDMDL
MODEL 2
REMARK VINA RESULT:      -7.2     11.311     13.866
REMARK  5 active torsions:
REMARK  status: ('A' for Active; 'I' for Inactive)
REMARK    1  A    between atoms: C_8  and  C_9 
REMARK    2  A    between atoms: C_14  and  C_16 
REMARK    3  A    between atoms: C_18  and  C_19 
REMARK    4  A    between atoms: C_21  and  O_23 
REMARK    5  A    between atoms: C_26  and  O_27 
ROOT
HETATM    1  C   UNK N   1      26.996  24.813  -5.011  0.00  0.00     0.027 A 
HETATM    2  C   UNK N   1      26.115  24.214  -5.910  0.00  0.00     0.035 A 
HETATM    3  C   UNK N   1      26.062  22.782  -6.327  0.00  0.00     0.070 C 
HETATM    4  N   UNK N   1      25.269  25.130  -6.401  0.00  0.00    -0.304 N 
ATOM      5  HN  UNK N   1      24.527  24.950  -7.077  1.00  0.00     0.186 HD
HETATM    6  C   UNK N   1      26.589  26.178  -5.010  0.00  0.00     0.074 A 
HETATM    7  N   UNK N   1      25.551  26.306  -5.863  0.00  0.00    -0.299 N 
HETATM    8  H   UNK N   1      25.076  27.146  -6.057  0.00  0.00     0.187 HD
ENDROOT
BRANCH   6   9
HETATM    9  C   UNK N   1      27.107  27.382  -4.256  0.00  0.00     0.027 A 
HETATM   10  C   UNK N   1      28.453  27.491  -3.934  0.00  0.00     0.026 A 
HETATM   11  C   UNK N   1      28.999  28.574  -3.258  0.00  0.00    -0.024 A 
HETATM   12  C   UNK N   1      28.141  29.621  -2.864  0.00  0.00     0.074 A 
HETATM   13  C   UNK N   1      26.778  29.540  -3.162  0.00  0.00     0.074 A 
HETATM   14  C   UNK N   1      26.253  28.438  -3.850  0.00  0.00     0.081 A 
BRANCH  11  15
HETATM   15  C   UNK N   1      30.489  28.521  -3.012  0.00  0.00     0.037 C 
HETATM   16  C   UNK N   1      31.189  27.200  -3.271  0.00  0.00     0.010 C 
ENDBRANCH  11  15
BRANCH  12  17
HETATM   17  O   UNK N   1      28.601  30.698  -2.206  0.00  0.00    -0.360 OA
HETATM   18  H   UNK N   1      29.510  30.921  -2.250  0.00  0.00     0.217 HD
ENDBRANCH  12  17
BRANCH  14  19
HETATM   19  O   UNK N   1      24.937  28.412  -4.117  0.00  0.00    -0.360 OA
HETATM   20  H   UNK N   1      24.415  27.687  -3.836  0.00  0.00     0.217 HD
ENDBRANCH  14  19
ENDBRANCH   6   9
BRANCH   1  21
HETATM   21  C   UNK N   1      28.090  24.078  -4.275  0.00  0.00    -0.019 A 
HETATM   22  C   UNK N   1      29.252  23.670  -4.921  0.00  0.00     0.052 A 
HETATM   23  C   UNK N   1      30.277  23.005  -4.264  0.00  0.00     0.102 A 
HETATM   24  O   UNK N   1      31.384  22.647  -4.944  0.00  0.00    -0.346 OA
HETATM   25  C   UNK N   1      30.157  22.720  -2.912  0.00  0.00     0.102 A 
HETATM   26  C   UNK N   1      32.468  21.998  -4.379  0.00  0.00     0.202 A 
HETATM   27  C   UNK N   1      32.333  21.667  -2.877  0.00  0.00     0.202 A 
HETATM   28  O   UNK N   1      31.155  22.077  -2.270  0.00  0.00    -0.346 OA
HETATM   29  C   UNK N   1      29.001  23.104  -2.224  0.00  0.00     0.040 A 
HETATM   30  C   UNK N   1      27.974  23.779  -2.904  0.00  0.00     0.015 A 
ENDBRANCH   1  21
TORSDOF 5
ENDMDL
MODEL 3
REMARK VINA RESULT:      -7.2      3.556      6.689
REMARK  5 active torsions:
REMARK  status: ('A' for Active; 'I' for Inactive)
REMARK    1  A    between atoms: C_8  and  C_9 
REMARK    2  A    between atoms: C_14  and  C_16 
REMARK    3  A    between atoms: C_18  and  C_19 
REMARK    4  A    between atoms: C_21  and  O_23 
REMARK    5  A    between atoms: C_26  and  O_27 
ROOT
HETATM    1  C   UNK N   1      26.868  18.217   5.262  0.00  0.00     0.027 A 
HETATM    2  C   UNK N   1      25.928  19.220   5.028  0.00  0.00     0.035 A 
HETATM    3  C   UNK N   1      24.934  19.304   3.918  0.00  0.00     0.070 C 
HETATM    4  N   UNK N   1      26.028  20.168   5.968  0.00  0.00    -0.304 N 
ATOM      5  HN  UNK N   1      25.454  21.010   6.025  1.00  0.00     0.186 HD
HETATM    6  C   UNK N   1      27.538  18.660   6.439  0.00  0.00     0.074 A 
HETATM    7  N   UNK N   1      26.990  19.836   6.813  0.00  0.00    -0.299 N 
HETATM    8  H   UNK N   1      27.265  20.365   7.596  0.00  0.00     0.187 HD
ENDROOT
BRANCH   6   9
HETATM    9  C   UNK N   1      28.661  18.052   7.246  0.00  0.00     0.027 A 
HETATM   10  C   UNK N   1      29.837  17.644   6.630  0.00  0.00     0.026 A 
HETATM   11  C   UNK N   1      30.914  17.092   7.311  0.00  0.00    -0.024 A 
HETATM   12  C   UNK N   1      30.810  16.925   8.707  0.00  0.00     0.074 A 
HETATM   13  C   UNK N   1      29.638  17.316   9.360  0.00  0.00     0.074 A 
HETATM   14  C   UNK N   1      28.567  17.874   8.649  0.00  0.00     0.081 A 
BRANCH  11  15
HETATM   15  C   UNK N   1      32.113  16.724   6.469  0.00  0.00     0.037 C 
HETATM   16  C   UNK N   1      32.160  17.264   5.052  0.00  0.00     0.010 C 
ENDBRANCH  11  15
BRANCH  12  17
HETATM   17  O   UNK N   1      31.813  16.398   9.429  0.00  0.00    -0.360 OA
HETATM   18  H   UNK N   1      32.088  16.813  10.223  0.00  0.00     0.217 HD
ENDBRANCH  12  17
BRANCH  14  19
HETATM   19  O   UNK N   1      27.465  18.239   9.326  0.00  0.00    -0.360 OA
HETATM   20  H   UNK N   1      26.623  18.181   8.918  0.00  0.00     0.217 HD
ENDBRANCH  14  19
ENDBRANCH   6   9
BRANCH   1  21
HETATM   21  C   UNK N   1      27.043  16.996   4.392  0.00  0.00    -0.019 A 
HETATM   22  C   UNK N   1      26.140  15.939   4.434  0.00  0.00     0.052 A 
HETATM   23  C   UNK N   1      26.273  14.811   3.636  0.00  0.00     0.102 A 
HETATM   24  O   UNK N   1      25.356  13.827   3.714  0.00  0.00    -0.346 OA
HETATM   25  C   UNK N   1      27.343  14.710   2.760  0.00  0.00     0.102 A 
HETATM   26  C   UNK N   1      25.387  12.673   2.951  0.00  0.00     0.202 A 
HETATM   27  C   UNK N   1      26.584  12.551   1.984  0.00  0.00     0.202 A 
HETATM   28  O   UNK N   1      27.472  13.617   1.980  0.00  0.00    -0.346 OA
HETATM   29  C   UNK N   1      28.282  15.747   2.692  0.00  0.00     0.040 A 
HETATM   30  C   UNK N   1      28.131  16.882   3.505  0.00  0.00     0.015 A 
ENDBRANCH   1  21
TORSDOF 5
ENDMDL
MODEL 4
REMARK VINA RESULT:      -7.0      2.567      5.125
REMARK  5 active torsions:
REMARK  status: ('A' for Active; 'I' for Inactive)
REMARK    1  A    between atoms: C_8  and  C_9 
REMARK    2  A    between atoms: C_14  and  C_16 
REMARK    3  A    between atoms: C_18  and  C_19 
REMARK    4  A    between atoms: C_21  and  O_23 
REMARK    5  A    between atoms: C_26  and  O_27 
ROOT
HETATM    1  C   UNK N   1      31.091  17.186   7.445  0.00  0.00     0.027 A 
HETATM    2  C   UNK N   1      29.917  17.737   7.955  0.00  0.00     0.035 A 
HETATM    3  C   UNK N   1      29.682  18.294   9.319  0.00  0.00     0.070 C 
HETATM    4  N   UNK N   1      28.954  17.702   7.024  0.00  0.00    -0.304 N 
ATOM      5  HN  UNK N   1      28.000  18.043   7.145  1.00  0.00     0.186 HD
HETATM    6  C   UNK N   1      30.735  16.820   6.115  0.00  0.00     0.074 A 
HETATM    7  N   UNK N   1      29.441  17.154   5.923  0.00  0.00    -0.299 N 
HETATM    8  H   UNK N   1      28.936  17.011   5.090  0.00  0.00     0.187 HD
ENDROOT
BRANCH   6   9
HETATM    9  C   UNK N   1      31.529  16.179   5.001  0.00  0.00     0.027 A 
HETATM   10  C   UNK N   1      31.869  14.833   5.056  0.00  0.00     0.026 A 
HETATM   11  C   UNK N   1      32.582  14.177   4.061  0.00  0.00    -0.024 A 
HETATM   12  C   UNK N   1      32.998  14.915   2.935  0.00  0.00     0.074 A 
HETATM   13  C   UNK N   1      32.682  16.274   2.850  0.00  0.00     0.074 A 
HETATM   14  C   UNK N   1      31.957  16.911   3.865  0.00  0.00     0.081 A 
BRANCH  11  15
HETATM   15  C   UNK N   1      32.842  12.706   4.293  0.00  0.00     0.037 C 
HETATM   16  C   UNK N   1      32.971  12.241   5.731  0.00  0.00     0.010 C 
ENDBRANCH  11  15
BRANCH  12  17
HETATM   17  O   UNK N   1      33.692  14.343   1.936  0.00  0.00    -0.360 OA
HETATM   18  H   UNK N   1      34.586  14.097   2.068  0.00  0.00     0.217 HD
ENDBRANCH  12  17
BRANCH  14  19
HETATM   19  O   UNK N   1      31.675  18.218   3.731  0.00  0.00    -0.360 OA
HETATM   20  H   UNK N   1      32.333  18.861   3.911  0.00  0.00     0.217 HD
ENDBRANCH  14  19
ENDBRANCH   6   9
BRANCH   1  21
HETATM   21  C   UNK N   1      32.378  17.056   8.224  0.00  0.00    -0.019 A 
HETATM   22  C   UNK N   1      32.593  15.998   9.101  0.00  0.00     0.052 A 
HETATM   23  C   UNK N   1      33.771  15.850   9.818  0.00  0.00     0.102 A 
HETATM   24  O   UNK N   1      33.922  14.795  10.643  0.00  0.00    -0.346 OA
HETATM   25  C   UNK N   1      34.786  16.785   9.676  0.00  0.00     0.102 A 
HETATM   26  C   UNK N   1      35.062  14.547  11.387  0.00  0.00     0.202 A 
HETATM   27  C   UNK N   1      36.189  15.592  11.241  0.00  0.00     0.202 A 
HETATM   28  O   UNK N   1      35.934  16.641  10.369  0.00  0.00    -0.346 OA
HETATM   29  C   UNK N   1      34.609  17.872   8.811  0.00  0.00     0.040 A 
HETATM   30  C   UNK N   1      33.411  18.004   8.090  0.00  0.00     0.015 A 
ENDBRANCH   1  21
TORSDOF 5
ENDMDL
MODEL 5
REMARK VINA RESULT:      -7.0      3.499      6.549
REMARK  5 active torsions:
REMARK  status: ('A' for Active; 'I' for Inactive)
REMARK    1  A    between atoms: C_8  and  C_9 
REMARK    2  A    between atoms: C_14  and  C_16 
REMARK    3  A    between atoms: C_18  and  C_19 
REMARK    4  A    between atoms: C_21  and  O_23 
REMARK    5  A    between atoms: C_26  and  O_27 
ROOT
HETATM    1  C   UNK N   1      28.196  16.056   6.133  0.00  0.00     0.027 A 
HETATM    2  C   UNK N   1      26.955  16.126   6.763  0.00  0.00     0.035 A 
HETATM    3  C   UNK N   1      25.655  15.561   6.295  0.00  0.00     0.070 C 
HETATM    4  N   UNK N   1      27.062  16.813   7.908  0.00  0.00    -0.304 N 
ATOM      5  HN  UNK N   1      26.299  17.006   8.557  1.00  0.00     0.186 HD
HETATM    6  C   UNK N   1      29.057  16.766   7.018  0.00  0.00     0.074 A 
HETATM    7  N   UNK N   1      28.319  17.196   8.063  0.00  0.00    -0.299 N 
HETATM    8  H   UNK N   1      28.663  17.716   8.825  0.00  0.00     0.187 HD
ENDROOT
BRANCH   6   9
HETATM    9  C   UNK N   1      30.537  17.069   6.956  0.00  0.00     0.027 A 
HETATM   10  C   UNK N   1      31.187  17.178   5.733  0.00  0.00     0.026 A 
HETATM   11  C   UNK N   1      32.539  17.469   5.602  0.00  0.00    -0.024 A 
HETATM   12  C   UNK N   1      33.302  17.654   6.772  0.00  0.00     0.074 A 
HETATM   13  C   UNK N   1      32.683  17.543   8.021  0.00  0.00     0.074 A 
HETATM   14  C   UNK N   1      31.316  17.253   8.125  0.00  0.00     0.081 A 
BRANCH  11  15
HETATM   15  C   UNK N   1      33.062  17.562   4.188  0.00  0.00     0.037 C 
HETATM   16  C   UNK N   1      32.259  16.872   3.102  0.00  0.00     0.010 C 
ENDBRANCH  11  15
BRANCH  12  17
HETATM   17  O   UNK N   1      34.614  17.938   6.719  0.00  0.00    -0.360 OA
HETATM   18  H   UNK N   1      35.229  17.268   6.493  0.00  0.00     0.217 HD
ENDBRANCH  12  17
BRANCH  14  19
HETATM   19  O   UNK N   1      30.769  17.162   9.349  0.00  0.00    -0.360 OA
HETATM   20  H   UNK N   1      30.043  16.588   9.497  0.00  0.00     0.217 HD
ENDBRANCH  14  19
ENDBRANCH   6   9
BRANCH   1  21
HETATM   21  C   UNK N   1      28.443  15.364   4.814  0.00  0.00    -0.019 A 
HETATM   22  C   UNK N   1      28.810  14.024   4.753  0.00  0.00     0.052 A 
HETATM   23  C   UNK N   1      29.030  13.363   3.554  0.00  0.00     0.102 A 
HETATM   24  O   UNK N   1      29.371  12.060   3.564  0.00  0.00    -0.346 OA
HETATM   25  C   UNK N   1      28.890  14.047   2.355  0.00  0.00     0.102 A 
HETATM   26  C   UNK N   1      29.594  11.306   2.425  0.00  0.00     0.202 A 
HETATM   27  C   UNK N   1      29.452  12.066   1.088  0.00  0.00     0.202 A 
HETATM   28  O   UNK N   1      29.099  13.405   1.187  0.00  0.00    -0.346 OA
HETATM   29  C   UNK N   1      28.531  15.400   2.369  0.00  0.00     0.040 A 
HETATM   30  C   UNK N   1      28.309  16.053   3.592  0.00  0.00     0.015 A 
ENDBRANCH   1  21
TORSDOF 5
ENDMDL
MODEL 6
REMARK VINA RESULT:      -7.0     12.023     15.713
REMARK  5 active torsions:
REMARK  status: ('A' for Active; 'I' for Inactive)
REMARK    1  A    between atoms: C_8  and  C_9 
REMARK    2  A    between atoms: C_14  and  C_16 
REMARK    3  A    between atoms: C_18  and  C_19 
REMARK    4  A    between atoms: C_21  and  O_23 
REMARK    5  A    between atoms: C_26  and  O_27 
ROOT
HETATM    1  C   UNK N   1      27.174  24.214  -5.598  0.00  0.00     0.027 A 
HETATM    2  C   UNK N   1      26.625  25.438  -5.220  0.00  0.00     0.035 A 
HETATM    3  C   UNK N   1      25.481  26.163  -5.847  0.00  0.00     0.070 C 
HETATM    4  N   UNK N   1      27.290  25.930  -4.167  0.00  0.00    -0.304 N 
ATOM      5  HN  UNK N   1      27.087  26.814  -3.698  1.00  0.00     0.186 HD
HETATM    6  C   UNK N   1      28.231  24.021  -4.663  0.00  0.00     0.074 A 
HETATM    7  N   UNK N   1      28.251  25.085  -3.831  0.00  0.00    -0.299 N 
HETATM    8  H   UNK N   1      28.884  25.212  -3.088  0.00  0.00     0.187 HD
ENDROOT
BRANCH   6   9
HETATM    9  C   UNK N   1      29.229  22.901  -4.488  0.00  0.00     0.027 A 
HETATM   10  C   UNK N   1      29.497  22.022  -5.530  0.00  0.00     0.026 A 
HETATM   11  C   UNK N   1      30.412  20.980  -5.444  0.00  0.00    -0.024 A 
HETATM   12  C   UNK N   1      31.103  20.793  -4.231  0.00  0.00     0.074 A 
HETATM   13  C   UNK N   1      30.852  21.652  -3.158  0.00  0.00     0.074 A 
HETATM   14  C   UNK N   1      29.927  22.698  -3.272  0.00  0.00     0.081 A 
BRANCH  11  15
HETATM   15  C   UNK N   1      30.578  20.140  -6.689  0.00  0.00     0.037 C 
HETATM   16  C   UNK N   1      29.335  19.867  -7.516  0.00  0.00     0.010 C 
ENDBRANCH  11  15
BRANCH  12  17
HETATM   17  O   UNK N   1      32.002  19.805  -4.078  0.00  0.00    -0.360 OA
HETATM   18  H   UNK N   1      32.108  19.393  -3.243  0.00  0.00     0.217 HD
ENDBRANCH  12  17
BRANCH  14  19
HETATM   19  O   UNK N   1      29.727  23.500  -2.212  0.00  0.00    -0.360 OA
HETATM   20  H   UNK N   1      30.382  24.123  -1.964  0.00  0.00     0.217 HD
ENDBRANCH  14  19
ENDBRANCH   6   9
BRANCH   1  21
HETATM   21  C   UNK N   1      26.677  23.380  -6.755  0.00  0.00    -0.019 A 
HETATM   22  C   UNK N   1      27.294  23.425  -8.001  0.00  0.00     0.052 A 
HETATM   23  C   UNK N   1      26.865  22.660  -9.075  0.00  0.00     0.102 A 
HETATM   24  O   UNK N   1      27.514  22.740 -10.253  0.00  0.00    -0.346 OA
HETATM   25  C   UNK N   1      25.775  21.815  -8.926  0.00  0.00     0.102 A 
HETATM   26  C   UNK N   1      27.178  22.007 -11.378  0.00  0.00     0.202 A 
HETATM   27  C   UNK N   1      25.958  21.075 -11.221  0.00  0.00     0.202 A 
HETATM   28  O   UNK N   1      25.358  21.067  -9.969  0.00  0.00    -0.346 OA
HETATM   29  C   UNK N   1      25.118  21.745  -7.693  0.00  0.00     0.040 A 
HETATM   30  C   UNK N   1      25.568  22.524  -6.615  0.00  0.00     0.015 A 
ENDBRANCH   1  21
TORSDOF 5
ENDMDL
MODEL 7
REMARK VINA RESULT:      -6.9     11.419     14.784
REMARK  5 active torsions:
REMARK  status: ('A' for Active; 'I' for Inactive)
REMARK    1  A    between atoms: C_8  and  C_9 
REMARK    2  A    between atoms: C_14  and  C_16 
REMARK    3  A    between atoms: C_18  and  C_19 
REMARK    4  A    between atoms: C_21  and  O_23 
REMARK    5  A    between atoms: C_26  and  O_27 
ROOT
HETATM    1  C   UNK N   1      26.883  25.780  -4.678  0.00  0.00     0.027 A 
HETATM    2  C   UNK N   1      25.710  25.723  -5.427  0.00  0.00     0.035 A 
HETATM    3  C   UNK N   1      24.807  26.850  -5.806  0.00  0.00     0.070 C 
HETATM    4  N   UNK N   1      25.459  24.457  -5.787  0.00  0.00    -0.304 N 
ATOM      5  HN  UNK N   1      24.660  24.145  -6.340  1.00  0.00     0.186 HD
HETATM    6  C   UNK N   1      27.311  24.423  -4.628  0.00  0.00     0.074 A 
HETATM    7  N   UNK N   1      26.415  23.678  -5.310  0.00  0.00    -0.299 N 
HETATM    8  H   UNK N   1      26.466  22.702  -5.434  0.00  0.00     0.187 HD
ENDROOT
BRANCH   6   9
HETATM    9  C   UNK N   1      28.512  23.769  -3.985  0.00  0.00     0.027 A 
HETATM   10  C   UNK N   1      29.656  23.504  -4.727  0.00  0.00     0.026 A 
HETATM   11  C   UNK N   1      30.800  22.920  -4.198  0.00  0.00    -0.024 A 
HETATM   12  C   UNK N   1      30.802  22.564  -2.834  0.00  0.00     0.074 A 
HETATM   13  C   UNK N   1      29.665  22.807  -2.059  0.00  0.00     0.074 A 
HETATM   14  C   UNK N   1      28.525  23.402  -2.616  0.00  0.00     0.081 A 
BRANCH  11  15
HETATM   15  C   UNK N   1      31.950  22.725  -5.158  0.00  0.00     0.037 C 
HETATM   16  C   UNK N   1      33.084  23.732  -5.099  0.00  0.00     0.010 C 
ENDBRANCH  11  15
BRANCH  12  17
HETATM   17  O   UNK N   1      31.874  21.995  -2.257  0.00  0.00    -0.360 OA
HETATM   18  H   UNK N   1      32.593  22.528  -1.975  0.00  0.00     0.217 HD
ENDBRANCH  12  17
BRANCH  14  19
HETATM   19  O   UNK N   1      27.460  23.619  -1.826  0.00  0.00    -0.360 OA
HETATM   20  H   UNK N   1      27.254  24.489  -1.545  0.00  0.00     0.217 HD
ENDBRANCH  14  19
ENDBRANCH   6   9
BRANCH   1  21
HETATM   21  C   UNK N   1      27.462  27.050  -4.100  0.00  0.00    -0.019 A 
HETATM   22  C   UNK N   1      28.728  27.500  -4.460  0.00  0.00     0.052 A 
HETATM   23  C   UNK N   1      29.277  28.669  -3.953  0.00  0.00     0.102 A 
HETATM   24  O   UNK N   1      30.503  29.058  -4.352  0.00  0.00    -0.346 OA
HETATM   25  C   UNK N   1      28.555  29.431  -3.045  0.00  0.00     0.102 A 
HETATM   26  C   UNK N   1      31.131  30.214  -3.921  0.00  0.00     0.202 A 
HETATM   27  C   UNK N   1      30.337  31.058  -2.900  0.00  0.00     0.202 A 
HETATM   28  O   UNK N   1      29.085  30.570  -2.554  0.00  0.00    -0.346 OA
HETATM   29  C   UNK N   1      27.281  29.010  -2.647  0.00  0.00     0.040 A 
HETATM   30  C   UNK N   1      26.740  27.826  -3.173  0.00  0.00     0.015 A 
ENDBRANCH   1  21
TORSDOF 5
ENDMDL
MODEL 8
REMARK VINA RESULT:      -6.9     11.372     14.794
REMARK  5 active torsions:
REMARK  status: ('A' for Active; 'I' for Inactive)
REMARK    1  A    between atoms: C_8  and  C_9 
REMARK    2  A    between atoms: C_14  and  C_16 
REMARK    3  A    between atoms: C_18  and  C_19 
REMARK    4  A    between atoms: C_21  and  O_23 
REMARK    5  A    between atoms: C_26  and  O_27 
ROOT
HETATM    1  C   UNK N   1      28.189  22.113  -7.188  0.00  0.00     0.027 A 
HETATM    2  C   UNK N   1      27.783  21.536  -8.390  0.00  0.00     0.035 A 
HETATM    3  C   UNK N   1      26.703  21.997  -9.310  0.00  0.00     0.070 C 
HETATM    4  N   UNK N   1      28.514  20.441  -8.640  0.00  0.00    -0.304 N 
ATOM      5  HN  UNK N   1      28.416  19.837  -9.456  1.00  0.00     0.186 HD
HETATM    6  C   UNK N   1      29.237  21.256  -6.746  0.00  0.00     0.074 A 
HETATM    7  N   UNK N   1      29.384  20.272  -7.658  0.00  0.00    -0.299 N 
HETATM    8  H   UNK N   1      30.040  19.539  -7.601  0.00  0.00     0.187 HD
ENDROOT
BRANCH   6   9
HETATM    9  C   UNK N   1      30.122  21.297  -5.522  0.00  0.00     0.027 A 
HETATM   10  C   UNK N   1      29.748  22.027  -4.401  0.00  0.00     0.026 A 
HETATM   11  C   UNK N   1      30.504  22.096  -3.238  0.00  0.00    -0.024 A 
HETATM   12  C   UNK N   1      31.726  21.396  -3.189  0.00  0.00     0.074 A 
HETATM   13  C   UNK N   1      32.139  20.657  -4.302  0.00  0.00     0.074 A 
HETATM   14  C   UNK N   1      31.355  20.601  -5.462  0.00  0.00     0.081 A 
BRANCH  11  15
HETATM   15  C   UNK N   1      29.924  22.930  -2.119  0.00  0.00     0.037 C 
HETATM   16  C   UNK N   1      28.441  23.241  -2.180  0.00  0.00     0.010 C 
ENDBRANCH  11  15
BRANCH  12  17
HETATM   17  O   UNK N   1      32.507  21.419  -2.096  0.00  0.00    -0.360 OA
HETATM   18  H   UNK N   1      32.443  20.735  -1.459  0.00  0.00     0.217 HD
ENDBRANCH  12  17
BRANCH  14  19
HETATM   19  O   UNK N   1      31.795  19.871  -6.501  0.00  0.00    -0.360 OA
HETATM   20  H   UNK N   1      31.194  19.579  -7.158  0.00  0.00     0.217 HD
ENDBRANCH  14  19
ENDBRANCH   6   9
BRANCH   1  21
HETATM   21  C   UNK N   1      27.575  23.357  -6.592  0.00  0.00    -0.019 A 
HETATM   22  C   UNK N   1      28.075  24.623  -6.880  0.00  0.00     0.052 A 
HETATM   23  C   UNK N   1      27.521  25.782  -6.355  0.00  0.00     0.102 A 
HETATM   24  O   UNK N   1      28.044  26.979  -6.683  0.00  0.00    -0.346 OA
HETATM   25  C   UNK N   1      26.429  25.698  -5.503  0.00  0.00     0.102 A 
HETATM   26  C   UNK N   1      27.555  28.192  -6.230  0.00  0.00     0.202 A 
HETATM   27  C   UNK N   1      26.348  28.103  -5.270  0.00  0.00     0.202 A 
HETATM   28  O   UNK N   1      25.887  26.824  -4.994  0.00  0.00    -0.346 OA
HETATM   29  C   UNK N   1      25.900  24.444  -5.178  0.00  0.00     0.040 A 
HETATM   30  C   UNK N   1      26.471  23.281  -5.721  0.00  0.00     0.015 A 
ENDBRANCH   1  21
TORSDOF 5
ENDMDL
MODEL 9
REMARK VINA RESULT:      -6.9      2.987      7.052
REMARK  5 active torsions:
REMARK  status: ('A' for Active; 'I' for Inactive)
REMARK    1  A    between atoms: C_8  and  C_9 
REMARK    2  A    between atoms: C_14  and  C_16 
REMARK    3  A    between atoms: C_18  and  C_19 
REMARK    4  A    between atoms: C_21  and  O_23 
REMARK    5  A    between atoms: C_26  and  O_27 
ROOT
HETATM    1  C   UNK N   1      29.855  17.609   7.564  0.00  0.00     0.027 A 
HETATM    2  C   UNK N   1      29.222  18.240   8.633  0.00  0.00     0.035 A 
HETATM    3  C   UNK N   1      27.790  18.644   8.742  0.00  0.00     0.070 C 
HETATM    4  N   UNK N   1      30.104  18.469   9.615  0.00  0.00    -0.304 N 
ATOM      5  HN  UNK N   1      29.894  18.919  10.507  1.00  0.00     0.186 HD
HETATM    6  C   UNK N   1      31.203  17.479   8.007  0.00  0.00     0.074 A 
HETATM    7  N   UNK N   1      31.289  18.015   9.243  0.00  0.00    -0.299 N 
HETATM    8  H   UNK N   1      32.109  18.060   9.785  0.00  0.00     0.187 HD
ENDROOT
BRANCH   6   9
HETATM    9  C   UNK N   1      32.425  16.881   7.350  0.00  0.00     0.027 A 
HETATM   10  C   UNK N   1      32.504  16.770   5.967  0.00  0.00     0.026 A 
HETATM   11  C   UNK N   1      33.602  16.245   5.298  0.00  0.00    -0.024 A 
HETATM   12  C   UNK N   1      34.697  15.788   6.058  0.00  0.00     0.074 A 
HETATM   13  C   UNK N   1      34.648  15.875   7.452  0.00  0.00     0.074 A 
HETATM   14  C   UNK N   1      33.530  16.413   8.104  0.00  0.00     0.081 A 
BRANCH  11  15
HETATM   15  C   UNK N   1      33.509  16.222   3.790  0.00  0.00     0.037 C 
HETATM   16  C   UNK N   1      32.346  16.959   3.153  0.00  0.00     0.010 C 
ENDBRANCH  11  15
BRANCH  12  17
HETATM   17  O   UNK N   1      35.790  15.268   5.476  0.00  0.00    -0.360 OA
HETATM   18  H   UNK N   1      35.703  14.723   4.718  0.00  0.00     0.217 HD
ENDBRANCH  12  17
BRANCH  14  19
HETATM   19  O   UNK N   1      33.537  16.479   9.446  0.00  0.00    -0.360 OA
HETATM   20  H   UNK N   1      32.728  16.508   9.918  0.00  0.00     0.217 HD
ENDBRANCH  14  19
ENDBRANCH   6   9
BRANCH   1  21
HETATM   21  C   UNK N   1      29.165  17.210   6.281  0.00  0.00    -0.019 A 
HETATM   22  C   UNK N   1      28.721  15.909   6.069  0.00  0.00     0.052 A 
HETATM   23  C   UNK N   1      28.073  15.521   4.906  0.00  0.00     0.102 A 
HETATM   24  O   UNK N   1      27.656  14.247   4.767  0.00  0.00    -0.346 OA
HETATM   25  C   UNK N   1      27.855  16.449   3.898  0.00  0.00     0.102 A 
HETATM   26  C   UNK N   1      26.987  13.765   3.656  0.00  0.00     0.202 A 
HETATM   27  C   UNK N   1      26.752  14.791   2.527  0.00  0.00     0.202 A 
HETATM   28  O   UNK N   1      27.221  16.075   2.767  0.00  0.00    -0.346 OA
HETATM   29  C   UNK N   1      28.293  17.768   4.064  0.00  0.00     0.040 A 
HETATM   30  C   UNK N   1      28.944  18.144   5.250  0.00  0.00     0.015 A 
ENDBRANCH   1  21
TORSDOF 5
ENDMDL
