REMARK  5 active torsions:
REMARK  status: ('A' for Active; 'I' for Inactive)
REMARK    1  A    between atoms: C_8  and  C_9 
REMARK    2  A    between atoms: C_14  and  C_16 
REMARK    3  A    between atoms: C_18  and  C_19 
REMARK    4  A    between atoms: C_21  and  O_23 
REMARK    5  A    between atoms: C_26  and  O_27 
ROOT
HETATM    1  C   UNK N   1      -2.291  -0.791   0.006  0.00  0.00     0.027 A 
HETATM    2  C   UNK N   1      -3.587  -1.304   0.007  0.00  0.00     0.035 A 
HETATM    3  C   UNK N   1      -4.007  -2.736   0.000  0.00  0.00     0.070 C 
HETATM    4  N   UNK N   1      -4.475  -0.301   0.005  0.00  0.00    -0.304 N 
ATOM      5  HN  UNK N   1      -5.490  -0.408   0.005  1.00  0.00     0.186 HD
HETATM    6  C   UNK N   1      -2.493   0.619   0.007  0.00  0.00     0.074 A 
HETATM    7  N   UNK N   1      -3.823   0.850   0.005  0.00  0.00    -0.299 N 
HETATM    8  H   UNK N   1      -4.244   1.740   0.004  0.00  0.00     0.187 HD
ENDROOT
BRANCH   6   9
HETATM    9  C   UNK N   1      -1.520   1.775   0.014  0.00  0.00     0.027 A 
HETATM   10  C   UNK N   1      -0.151   1.549   0.079  0.00  0.00     0.026 A 
HETATM   11  C   UNK N   1       0.799   2.562   0.074  0.00  0.00    -0.024 A 
HETATM   12  C   UNK N   1       0.355   3.898   0.010  0.00  0.00     0.074 A 
HETATM   13  C   UNK N   1      -1.016   4.164  -0.047  0.00  0.00     0.074 A 
HETATM   14  C   UNK N   1      -1.954   3.123  -0.045  0.00  0.00     0.081 A 
BRANCH  11  15
HETATM   15  C   UNK N   1       2.242   2.118   0.135  0.00  0.00     0.037 C 
HETATM   16  C   UNK N   1       3.306   3.195   0.035  0.00  0.00     0.010 C 
ENDBRANCH  11  15
BRANCH  12  17
HETATM   17  O   UNK N   1       1.219   4.927   0.002  0.00  0.00    -0.360 OA
HETATM   18  H   UNK N   1       2.142   4.764  -0.003  0.00  0.00     0.217 HD
ENDBRANCH  12  17
BRANCH  14  19
HETATM   19  O   UNK N   1      -3.260   3.433  -0.107  0.00  0.00    -0.360 OA
HETATM   20  H   UNK N   1      -3.528   4.330  -0.151  0.00  0.00     0.217 HD
ENDBRANCH  14  19
ENDBRANCH   6   9
BRANCH   1  21
HETATM   21  C   UNK N   1      -1.041  -1.638  -0.001  0.00  0.00    -0.019 A 
HETATM   22  C   UNK N   1       0.225  -1.065  -0.055  0.00  0.00     0.052 A 
HETATM   23  C   UNK N   1       1.388  -1.821  -0.050  0.00  0.00     0.102 A 
HETATM   24  O   UNK N   1       2.585  -1.204  -0.091  0.00  0.00    -0.346 OA
HETATM   25  C   UNK N   1       1.309  -3.205   0.004  0.00  0.00     0.102 A 
HETATM   26  C   UNK N   1       3.801  -1.864  -0.072  0.00  0.00     0.202 A 
HETATM   27  C   UNK N   1       3.718  -3.405  -0.025  0.00  0.00     0.202 A 
HETATM   28  O   UNK N   1       2.439  -3.942   0.013  0.00  0.00    -0.346 OA
HETATM   29  C   UNK N   1       0.055  -3.825   0.050  0.00  0.00     0.040 A 
HETATM   30  C   UNK N   1      -1.112  -3.044   0.047  0.00  0.00     0.015 A 
ENDBRANCH   1  21
TORSDOF 5
