MODEL 1
REMARK VINA RESULT:      -7.2      0.000      0.000
REMARK  4 active torsions:
REMARK  status: ('A' for Active; 'I' for Inactive)
REMARK    1  A    between atoms: C_4  and  C_8 
REMARK    2  A    between atoms: C_10  and  N_18 
REMARK    3  A    between atoms: N_18  and  C_19 
REMARK    4  A    between atoms: C_19  and  C_20 
ROOT
HETATM    1  C   UNK N   1      27.642  18.615   5.781  0.00  0.00     0.047 A 
HETATM    2  C   UNK N   1      28.740  17.902   5.294  0.00  0.00     0.080 A 
HETATM    3  C   UNK N   1      29.644  17.317   6.167  0.00  0.00     0.127 A 
HETATM    4  N   UNK N   1      29.421  17.464   7.496  0.00  0.00    -0.224 N 
HETATM    5  N   UNK N   1      30.140  17.000   8.497  0.00  0.00    -0.302 N 
HETATM    6  C   UNK N   1      29.540  17.391   9.650  0.00  0.00     0.111 A 
HETATM    7  C   UNK N   1      28.371  18.146   7.967  0.00  0.00     0.131 A 
HETATM    8  C   UNK N   1      28.391  18.136   9.343  0.00  0.00     0.069 A 
HETATM    9  N   UNK N   1      27.460  18.736   7.137  0.00  0.00    -0.340 N 
ATOM     10  HN  UNK N   1      26.665  19.252   7.514  1.00  0.00     0.167 HD
HETATM   11  H   UNK N   1      30.965  16.466   8.423  0.00  0.00     0.186 HD
ENDROOT
BRANCH   3  12
HETATM   12  N   UNK N   1      30.752  16.599   5.649  0.00  0.00    -0.370 N 
HETATM   13  H   UNK N   1      30.666  15.657   5.378  0.00  0.00     0.161 HD
BRANCH  12  14
HETATM   14  C   UNK N   1      32.015  17.301   5.530  0.00  0.00     0.160 C 
BRANCH  14  15
HETATM   15  C   UNK N   1      32.992  17.032   6.614  0.00  0.00    -0.038 A 
HETATM   16  C   UNK N   1      33.411  15.714   6.806  0.00  0.00     0.025 A 
HETATM   17  C   UNK N   1      34.328  15.425   7.815  0.00  0.00     0.088 A 
HETATM   18  N   UNK N   1      34.808  16.424   8.602  0.00  0.00    -0.375 N 
HETATM   19  C   UNK N   1      34.415  17.717   8.431  0.00  0.00     0.088 A 
ATOM     20  HN  UNK N   1      35.480  16.201   9.337  1.00  0.00     0.164 HD
HETATM   21  C   UNK N   1      33.498  18.045   7.431  0.00  0.00     0.025 A 
ENDBRANCH  14  15
ENDBRANCH  12  14
ENDBRANCH   3  12
BRANCH   1  22
HETATM   22  C   UNK N   1      26.726  19.207   4.783  0.00  0.00    -0.008 A 
HETATM   23  C   UNK N   1      25.381  18.798   4.792  0.00  0.00     0.032 A 
HETATM   24  C   UNK N   1      24.466  19.310   3.886  0.00  0.00     0.011 A 
HETATM   25 Br   UNK N   1      22.658  18.708   3.959  0.00  0.00    -0.051 Br
HETATM   26  C   UNK N   1      24.880  20.251   2.943  0.00  0.00     0.019 A 
HETATM   27  C   UNK N   1      26.219  20.672   2.919  0.00  0.00     0.002 A 
HETATM   28  C   UNK N   1      27.144  20.151   3.838  0.00  0.00     0.014 A 
ENDBRANCH   1  22
TORSDOF 4
ENDMDL
MODEL 2
REMARK VINA RESULT:      -7.2      8.469     12.705
REMARK  4 active torsions:
REMARK  status: ('A' for Active; 'I' for Inactive)
REMARK    1  A    between atoms: C_4  and  C_8 
REMARK    2  A    between atoms: C_10  and  N_18 
REMARK    3  A    between atoms: N_18  and  C_19 
REMARK    4  A    between atoms: C_19  and  C_20 
ROOT
HETATM    1  C   UNK N   1      35.049  12.042  15.246  0.00  0.00     0.047 A 
HETATM    2  C   UNK N   1      35.693  12.983  14.439  0.00  0.00     0.080 A 
HETATM    3  C   UNK N   1      35.654  12.871  13.058  0.00  0.00     0.127 A 
HETATM    4  N   UNK N   1      34.974  11.824  12.530  0.00  0.00    -0.224 N 
HETATM    5  N   UNK N   1      34.806  11.522  11.259  0.00  0.00    -0.302 N 
HETATM    6  C   UNK N   1      34.057  10.390  11.203  0.00  0.00     0.111 A 
HETATM    7  C   UNK N   1      34.355  10.921  13.300  0.00  0.00     0.131 A 
HETATM    8  C   UNK N   1      33.748   9.974  12.506  0.00  0.00     0.069 A 
HETATM    9  N   UNK N   1      34.372  10.999  14.663  0.00  0.00    -0.340 N 
ATOM     10  HN  UNK N   1      33.895  10.301  15.234  1.00  0.00     0.167 HD
HETATM   11  H   UNK N   1      35.160  12.024  10.490  0.00  0.00     0.186 HD
ENDROOT
BRANCH   3  12
HETATM   12  N   UNK N   1      36.316  13.838  12.260  0.00  0.00    -0.370 N 
HETATM   13  H   UNK N   1      37.082  13.592  11.694  0.00  0.00     0.161 HD
BRANCH  12  14
HETATM   14  C   UNK N   1      35.825  15.202  12.304  0.00  0.00     0.160 C 
BRANCH  14  15
HETATM   15  C   UNK N   1      35.067  15.641  11.106  0.00  0.00    -0.038 A 
HETATM   16  C   UNK N   1      34.004  14.845  10.676  0.00  0.00     0.025 A 
HETATM   17  C   UNK N   1      33.271  15.227   9.555  0.00  0.00     0.088 A 
HETATM   18  N   UNK N   1      33.592  16.368   8.889  0.00  0.00    -0.375 N 
HETATM   19  C   UNK N   1      34.624  17.160   9.292  0.00  0.00     0.088 A 
ATOM     20  HN  UNK N   1      33.048  16.638   8.070  1.00  0.00     0.164 HD
HETATM   21  C   UNK N   1      35.382  16.810  10.411  0.00  0.00     0.025 A 
ENDBRANCH  14  15
ENDBRANCH  12  14
ENDBRANCH   3  12
BRANCH   1  22
HETATM   22  C   UNK N   1      35.139  12.235  16.710  0.00  0.00    -0.008 A 
HETATM   23  C   UNK N   1      35.323  11.101  17.518  0.00  0.00     0.032 A 
HETATM   24  C   UNK N   1      35.417  11.204  18.897  0.00  0.00     0.011 A 
HETATM   25 Br   UNK N   1      35.667   9.620  19.929  0.00  0.00    -0.051 Br
HETATM   26  C   UNK N   1      35.327  12.458  19.502  0.00  0.00     0.019 A 
HETATM   27  C   UNK N   1      35.142  13.603  18.711  0.00  0.00     0.002 A 
HETATM   28  C   UNK N   1      35.048  13.494  17.314  0.00  0.00     0.014 A 
ENDBRANCH   1  22
TORSDOF 4
ENDMDL
MODEL 3
REMARK VINA RESULT:      -7.1      7.191     12.065
REMARK  4 active torsions:
REMARK  status: ('A' for Active; 'I' for Inactive)
REMARK    1  A    between atoms: C_4  and  C_8 
REMARK    2  A    between atoms: C_10  and  N_18 
REMARK    3  A    between atoms: N_18  and  C_19 
REMARK    4  A    between atoms: C_19  and  C_20 
ROOT
HETATM    1  C   UNK N   1      36.341  13.013  13.487  0.00  0.00     0.047 A 
HETATM    2  C   UNK N   1      35.453  13.977  13.006  0.00  0.00     0.080 A 
HETATM    3  C   UNK N   1      35.634  14.542  11.753  0.00  0.00     0.127 A 
HETATM    4  N   UNK N   1      36.698  14.124  11.023  0.00  0.00    -0.224 N 
HETATM    5  N   UNK N   1      37.063  14.517   9.821  0.00  0.00    -0.302 N 
HETATM    6  C   UNK N   1      38.186  13.830   9.488  0.00  0.00     0.111 A 
HETATM    7  C   UNK N   1      37.552  13.200  11.481  0.00  0.00     0.131 A 
HETATM    8  C   UNK N   1      38.530  12.968  10.540  0.00  0.00     0.069 A 
HETATM    9  N   UNK N   1      37.404  12.623  12.710  0.00  0.00    -0.340 N 
ATOM     10  HN  UNK N   1      38.064  11.920  13.041  1.00  0.00     0.167 HD
HETATM   11  H   UNK N   1      36.606  15.189   9.265  0.00  0.00     0.186 HD
ENDROOT
BRANCH   3  12
HETATM   12  N   UNK N   1      34.720  15.520  11.287  0.00  0.00    -0.370 N 
HETATM   13  H   UNK N   1      34.725  16.435  11.648  0.00  0.00     0.161 HD
BRANCH  12  14
HETATM   14  C   UNK N   1      33.776  15.125  10.259  0.00  0.00     0.160 C 
BRANCH  14  15
HETATM   15  C   UNK N   1      33.625  16.085   9.137  0.00  0.00    -0.038 A 
HETATM   16  C   UNK N   1      34.505  17.167   9.078  0.00  0.00     0.025 A 
HETATM   17  C   UNK N   1      34.391  18.087   8.038  0.00  0.00     0.088 A 
HETATM   18  N   UNK N   1      33.429  17.927   7.091  0.00  0.00    -0.375 N 
HETATM   19  C   UNK N   1      32.561  16.878   7.128  0.00  0.00     0.088 A 
ATOM     20  HN  UNK N   1      33.356  18.607   6.334  1.00  0.00     0.164 HD
HETATM   21  C   UNK N   1      32.644  15.936   8.154  0.00  0.00     0.025 A 
ENDBRANCH  14  15
ENDBRANCH  12  14
ENDBRANCH   3  12
BRANCH   1  22
HETATM   22  C   UNK N   1      36.074  12.462  14.833  0.00  0.00    -0.008 A 
HETATM   23  C   UNK N   1      36.575  11.185  15.138  0.00  0.00     0.032 A 
HETATM   24  C   UNK N   1      36.364  10.605  16.379  0.00  0.00     0.011 A 
HETATM   25 Br   UNK N   1      37.075   8.868  16.721  0.00  0.00    -0.051 Br
HETATM   26  C   UNK N   1      35.641  11.297  17.350  0.00  0.00     0.019 A 
HETATM   27  C   UNK N   1      35.133  12.574  17.064  0.00  0.00     0.002 A 
HETATM   28  C   UNK N   1      35.348  13.159  15.806  0.00  0.00     0.014 A 
ENDBRANCH   1  22
TORSDOF 4
ENDMDL
MODEL 4
REMARK VINA RESULT:      -7.0     12.034     15.414
REMARK  4 active torsions:
REMARK  status: ('A' for Active; 'I' for Inactive)
REMARK    1  A    between atoms: C_4  and  C_8 
REMARK    2  A    between atoms: C_10  and  N_18 
REMARK    3  A    between atoms: N_18  and  C_19 
REMARK    4  A    between atoms: C_19  and  C_20 
ROOT
HETATM    1  C   UNK N   1      28.187  23.149  -5.568  0.00  0.00     0.047 A 
HETATM    2  C   UNK N   1      27.231  24.093  -5.186  0.00  0.00     0.080 A 
HETATM    3  C   UNK N   1      26.173  24.406  -6.025  0.00  0.00     0.127 A 
HETATM    4  N   UNK N   1      26.107  23.765  -7.219  0.00  0.00    -0.224 N 
HETATM    5  N   UNK N   1      25.201  23.902  -8.165  0.00  0.00    -0.302 N 
HETATM    6  C   UNK N   1      25.536  23.062  -9.178  0.00  0.00     0.111 A 
HETATM    7  C   UNK N   1      27.021  22.861  -7.589  0.00  0.00     0.131 A 
HETATM    8  C   UNK N   1      26.710  22.372  -8.838  0.00  0.00     0.069 A 
HETATM    9  N   UNK N   1      28.076  22.528  -6.788  0.00  0.00    -0.340 N 
ATOM     10  HN  UNK N   1      28.763  21.836  -7.087  1.00  0.00     0.167 HD
HETATM   11  H   UNK N   1      24.422  24.504  -8.142  0.00  0.00     0.186 HD
ENDROOT
BRANCH   3  12
HETATM   12  N   UNK N   1      25.216  25.367  -5.616  0.00  0.00    -0.370 N 
HETATM   13  H   UNK N   1      24.543  25.155  -4.930  0.00  0.00     0.161 HD
BRANCH  12  14
HETATM   14  C   UNK N   1      25.262  26.675  -6.240  0.00  0.00     0.160 C 
BRANCH  14  15
HETATM   15  C   UNK N   1      25.981  27.720  -5.469  0.00  0.00    -0.038 A 
HETATM   16  C   UNK N   1      27.095  28.320  -6.060  0.00  0.00     0.025 A 
HETATM   17  C   UNK N   1      27.793  29.305  -5.365  0.00  0.00     0.088 A 
HETATM   18  N   UNK N   1      27.388  29.675  -4.121  0.00  0.00    -0.375 N 
HETATM   19  C   UNK N   1      26.304  29.104  -3.526  0.00  0.00     0.088 A 
ATOM     20  HN  UNK N   1      27.907  30.397  -3.621  1.00  0.00     0.164 HD
HETATM   21  C   UNK N   1      25.579  28.114  -4.192  0.00  0.00     0.025 A 
ENDBRANCH  14  15
ENDBRANCH  12  14
ENDBRANCH   3  12
BRANCH   1  22
HETATM   22  C   UNK N   1      29.283  22.874  -4.614  0.00  0.00    -0.008 A 
HETATM   23  C   UNK N   1      30.199  21.857  -4.931  0.00  0.00     0.032 A 
HETATM   24  C   UNK N   1      31.251  21.544  -4.085  0.00  0.00     0.011 A 
HETATM   25 Br   UNK N   1      32.455  20.151  -4.582  0.00  0.00    -0.051 Br
HETATM   26  C   UNK N   1      31.409  22.249  -2.892  0.00  0.00     0.019 A 
HETATM   27  C   UNK N   1      30.504  23.268  -2.557  0.00  0.00     0.002 A 
HETATM   28  C   UNK N   1      29.440  23.583  -3.417  0.00  0.00     0.014 A 
ENDBRANCH   1  22
TORSDOF 4
ENDMDL
MODEL 5
REMARK VINA RESULT:      -6.9      5.745      8.899
REMARK  4 active torsions:
REMARK  status: ('A' for Active; 'I' for Inactive)
REMARK    1  A    between atoms: C_4  and  C_8 
REMARK    2  A    between atoms: C_10  and  N_18 
REMARK    3  A    between atoms: N_18  and  C_19 
REMARK    4  A    between atoms: C_19  and  C_20 
ROOT
HETATM    1  C   UNK N   1      24.060  19.181   4.084  0.00  0.00     0.047 A 
HETATM    2  C   UNK N   1      23.388  18.140   4.729  0.00  0.00     0.080 A 
HETATM    3  C   UNK N   1      22.028  17.952   4.536  0.00  0.00     0.127 A 
HETATM    4  N   UNK N   1      21.386  18.811   3.706  0.00  0.00    -0.224 N 
HETATM    5  N   UNK N   1      20.110  18.823   3.379  0.00  0.00    -0.302 N 
HETATM    6  C   UNK N   1      19.917  19.860   2.523  0.00  0.00     0.111 A 
HETATM    7  C   UNK N   1      22.026  19.810   3.087  0.00  0.00     0.131 A 
HETATM    8  C   UNK N   1      21.137  20.520   2.312  0.00  0.00     0.069 A 
HETATM    9  N   UNK N   1      23.365  20.024   3.253  0.00  0.00    -0.340 N 
ATOM     10  HN  UNK N   1      23.835  20.791   2.773  1.00  0.00     0.167 HD
HETATM   11  H   UNK N   1      19.421  18.196   3.698  0.00  0.00     0.186 HD
ENDROOT
BRANCH   3  12
HETATM   12  N   UNK N   1      21.367  16.889   5.202  0.00  0.00    -0.370 N 
HETATM   13  H   UNK N   1      21.096  16.076   4.719  0.00  0.00     0.161 HD
BRANCH  12  14
HETATM   14  C   UNK N   1      21.105  17.040   6.620  0.00  0.00     0.160 C 
BRANCH  14  15
HETATM   15  C   UNK N   1      21.445  15.861   7.456  0.00  0.00    -0.038 A 
HETATM   16  C   UNK N   1      20.726  15.667   8.637  0.00  0.00     0.025 A 
HETATM   17  C   UNK N   1      21.018  14.571   9.446  0.00  0.00     0.088 A 
HETATM   18  N   UNK N   1      21.997  13.700   9.081  0.00  0.00    -0.375 N 
HETATM   19  C   UNK N   1      22.710  13.869   7.934  0.00  0.00     0.088 A 
ATOM     20  HN  UNK N   1      22.202  12.901   9.681  1.00  0.00     0.164 HD
HETATM   21  C   UNK N   1      22.445  14.956   7.098  0.00  0.00     0.025 A 
ENDBRANCH  14  15
ENDBRANCH  12  14
ENDBRANCH   3  12
BRANCH   1  22
HETATM   22  C   UNK N   1      25.510  19.311   4.345  0.00  0.00    -0.008 A 
HETATM   23  C   UNK N   1      26.350  18.251   3.961  0.00  0.00     0.032 A 
HETATM   24  C   UNK N   1      27.718  18.303   4.173  0.00  0.00     0.011 A 
HETATM   25 Br   UNK N   1      28.795  16.827   3.625  0.00  0.00    -0.051 Br
HETATM   26  C   UNK N   1      28.280  19.426   4.780  0.00  0.00     0.019 A 
HETATM   27  C   UNK N   1      27.458  20.493   5.170  0.00  0.00     0.002 A 
HETATM   28  C   UNK N   1      26.072  20.439   4.954  0.00  0.00     0.014 A 
ENDBRANCH   1  22
TORSDOF 4
ENDMDL
MODEL 6
REMARK VINA RESULT:      -6.9      5.597      8.401
REMARK  4 active torsions:
REMARK  status: ('A' for Active; 'I' for Inactive)
REMARK    1  A    between atoms: C_4  and  C_8 
REMARK    2  A    between atoms: C_10  and  N_18 
REMARK    3  A    between atoms: N_18  and  C_19 
REMARK    4  A    between atoms: C_19  and  C_20 
ROOT
HETATM    1  C   UNK N   1      26.273  16.167   6.369  0.00  0.00     0.047 A 
HETATM    2  C   UNK N   1      25.727  15.054   7.011  0.00  0.00     0.080 A 
HETATM    3  C   UNK N   1      24.393  14.721   6.833  0.00  0.00     0.127 A 
HETATM    4  N   UNK N   1      23.650  15.513   6.020  0.00  0.00    -0.224 N 
HETATM    5  N   UNK N   1      22.377  15.389   5.709  0.00  0.00    -0.302 N 
HETATM    6  C   UNK N   1      22.060  16.406   4.866  0.00  0.00     0.111 A 
HETATM    7  C   UNK N   1      24.170  16.580   5.404  0.00  0.00     0.131 A 
HETATM    8  C   UNK N   1      23.199  17.196   4.647  0.00  0.00     0.069 A 
HETATM    9  N   UNK N   1      25.480  16.938   5.555  0.00  0.00    -0.340 N 
ATOM     10  HN  UNK N   1      25.858  17.755   5.077  1.00  0.00     0.167 HD
HETATM   11  H   UNK N   1      21.764  14.688   6.030  0.00  0.00     0.186 HD
ENDROOT
BRANCH   3  12
HETATM   12  N   UNK N   1      23.861  13.587   7.496  0.00  0.00    -0.370 N 
HETATM   13  H   UNK N   1      23.050  13.139   7.166  0.00  0.00     0.161 HD
BRANCH  12  14
HETATM   14  C   UNK N   1      24.553  13.108   8.677  0.00  0.00     0.160 C 
BRANCH  14  15
HETATM   15  C   UNK N   1      23.676  12.682   9.796  0.00  0.00    -0.038 A 
HETATM   16  C   UNK N   1      24.284  12.205  10.959  0.00  0.00     0.025 A 
HETATM   17  C   UNK N   1      23.492  11.797  12.030  0.00  0.00     0.088 A 
HETATM   18  N   UNK N   1      22.137  11.865  11.937  0.00  0.00    -0.375 N 
HETATM   19  C   UNK N   1      21.523  12.327  10.812  0.00  0.00     0.088 A 
ATOM     20  HN  UNK N   1      21.567  11.563  12.727  1.00  0.00     0.164 HD
HETATM   21  C   UNK N   1      22.284  12.746   9.719  0.00  0.00     0.025 A 
ENDBRANCH  14  15
ENDBRANCH  12  14
ENDBRANCH   3  12
BRANCH   1  22
HETATM   22  C   UNK N   1      27.704  16.451   6.612  0.00  0.00    -0.008 A 
HETATM   23  C   UNK N   1      28.044  17.232   7.730  0.00  0.00     0.032 A 
HETATM   24  C   UNK N   1      29.364  17.538   8.021  0.00  0.00     0.011 A 
HETATM   25 Br   UNK N   1      29.750  18.603   9.555  0.00  0.00    -0.051 Br
HETATM   26  C   UNK N   1      30.381  17.066   7.191  0.00  0.00     0.019 A 
HETATM   27  C   UNK N   1      30.061  16.284   6.071  0.00  0.00     0.002 A 
HETATM   28  C   UNK N   1      28.723  15.975   5.778  0.00  0.00     0.014 A 
ENDBRANCH   1  22
TORSDOF 4
ENDMDL
MODEL 7
REMARK VINA RESULT:      -6.9      6.175      9.889
REMARK  4 active torsions:
REMARK  status: ('A' for Active; 'I' for Inactive)
REMARK    1  A    between atoms: C_4  and  C_8 
REMARK    2  A    between atoms: C_10  and  N_18 
REMARK    3  A    between atoms: N_18  and  C_19 
REMARK    4  A    between atoms: C_19  and  C_20 
ROOT
HETATM    1  C   UNK N   1      22.826  18.269   4.514  0.00  0.00     0.047 A 
HETATM    2  C   UNK N   1      21.823  18.046   3.568  0.00  0.00     0.080 A 
HETATM    3  C   UNK N   1      20.676  17.346   3.907  0.00  0.00     0.127 A 
HETATM    4  N   UNK N   1      20.570  16.892   5.181  0.00  0.00    -0.224 N 
HETATM    5  N   UNK N   1      19.580  16.210   5.720  0.00  0.00    -0.302 N 
HETATM    6  C   UNK N   1      19.905  15.972   7.017  0.00  0.00     0.111 A 
HETATM    7  C   UNK N   1      21.528  17.103   6.090  0.00  0.00     0.131 A 
HETATM    8  C   UNK N   1      21.161  16.537   7.290  0.00  0.00     0.069 A 
HETATM    9  N   UNK N   1      22.671  17.788   5.791  0.00  0.00    -0.340 N 
ATOM     10  HN  UNK N   1      23.391  17.940   6.498  1.00  0.00     0.167 HD
HETATM   11  H   UNK N   1      18.755  15.924   5.266  0.00  0.00     0.186 HD
ENDROOT
BRANCH   3  12
HETATM   12  N   UNK N   1      19.672  17.131   2.929  0.00  0.00    -0.370 N 
HETATM   13  H   UNK N   1      18.718  17.134   3.170  0.00  0.00     0.161 HD
BRANCH  12  14
HETATM   14  C   UNK N   1      20.099  16.908   1.561  0.00  0.00     0.160 C 
BRANCH  14  15
HETATM   15  C   UNK N   1      20.373  15.493   1.207  0.00  0.00    -0.038 A 
HETATM   16  C   UNK N   1      19.288  14.680   0.873  0.00  0.00     0.025 A 
HETATM   17  C   UNK N   1      19.508  13.346   0.535  0.00  0.00     0.088 A 
HETATM   18  N   UNK N   1      20.773  12.847   0.531  0.00  0.00    -0.375 N 
HETATM   19  C   UNK N   1      21.846  13.622   0.853  0.00  0.00     0.088 A 
ATOM     20  HN  UNK N   1      20.922  11.869   0.281  1.00  0.00     0.164 HD
HETATM   21  C   UNK N   1      21.664  14.962   1.197  0.00  0.00     0.025 A 
ENDBRANCH  14  15
ENDBRANCH  12  14
ENDBRANCH   3  12
BRANCH   1  22
HETATM   22  C   UNK N   1      24.016  19.025   4.070  0.00  0.00    -0.008 A 
HETATM   23  C   UNK N   1      25.266  18.669   4.605  0.00  0.00     0.032 A 
HETATM   24  C   UNK N   1      26.425  19.333   4.235  0.00  0.00     0.011 A 
HETATM   25 Br   UNK N   1      28.085  18.794   5.004  0.00  0.00    -0.051 Br
HETATM   26  C   UNK N   1      26.357  20.377   3.313  0.00  0.00     0.019 A 
HETATM   27  C   UNK N   1      25.118  20.747   2.767  0.00  0.00     0.002 A 
HETATM   28  C   UNK N   1      23.946  20.072   3.144  0.00  0.00     0.014 A 
ENDBRANCH   1  22
TORSDOF 4
ENDMDL
MODEL 8
REMARK VINA RESULT:      -6.6      3.190      6.065
REMARK  4 active torsions:
REMARK  status: ('A' for Active; 'I' for Inactive)
REMARK    1  A    between atoms: C_4  and  C_8 
REMARK    2  A    between atoms: C_10  and  N_18 
REMARK    3  A    between atoms: N_18  and  C_19 
REMARK    4  A    between atoms: C_19  and  C_20 
ROOT
HETATM    1  C   UNK N   1      32.128  16.830   7.633  0.00  0.00     0.047 A 
HETATM    2  C   UNK N   1      33.052  16.845   8.679  0.00  0.00     0.080 A 
HETATM    3  C   UNK N   1      34.307  16.279   8.520  0.00  0.00     0.127 A 
HETATM    4  N   UNK N   1      34.596  15.716   7.320  0.00  0.00    -0.224 N 
HETATM    5  N   UNK N   1      35.713  15.126   6.948  0.00  0.00    -0.302 N 
HETATM    6  C   UNK N   1      35.550  14.715   5.664  0.00  0.00     0.111 A 
HETATM    7  C   UNK N   1      33.713  15.699   6.316  0.00  0.00     0.131 A 
HETATM    8  C   UNK N   1      34.266  15.070   5.224  0.00  0.00     0.069 A 
HETATM    9  N   UNK N   1      32.468  16.247   6.436  0.00  0.00    -0.340 N 
ATOM     10  HN  UNK N   1      31.808  16.225   5.659  1.00  0.00     0.167 HD
HETATM   11  H   UNK N   1      36.519  15.005   7.500  0.00  0.00     0.186 HD
ENDROOT
BRANCH   3  12
HETATM   12  N   UNK N   1      35.229  16.306   9.597  0.00  0.00    -0.370 N 
HETATM   13  H   UNK N   1      36.112  16.728   9.501  0.00  0.00     0.161 HD
BRANCH  12  14
HETATM   14  C   UNK N   1      34.825  15.692  10.847  0.00  0.00     0.160 C 
BRANCH  14  15
HETATM   15  C   UNK N   1      35.761  14.673  11.383  0.00  0.00    -0.038 A 
HETATM   16  C   UNK N   1      36.745  14.173  10.528  0.00  0.00     0.025 A 
HETATM   17  C   UNK N   1      37.641  13.216  10.997  0.00  0.00     0.088 A 
HETATM   18  N   UNK N   1      37.553  12.775  12.281  0.00  0.00    -0.375 N 
HETATM   19  C   UNK N   1      36.602  13.249  13.133  0.00  0.00     0.088 A 
ATOM     20  HN  UNK N   1      38.216  12.074  12.614  1.00  0.00     0.164 HD
HETATM   21  C   UNK N   1      35.687  14.209  12.698  0.00  0.00     0.025 A 
ENDBRANCH  14  15
ENDBRANCH  12  14
ENDBRANCH   3  12
BRANCH   1  22
HETATM   22  C   UNK N   1      30.812  17.456   7.886  0.00  0.00    -0.008 A 
HETATM   23  C   UNK N   1      29.847  17.406   6.866  0.00  0.00     0.032 A 
HETATM   24  C   UNK N   1      28.592  17.971   7.032  0.00  0.00     0.011 A 
HETATM   25 Br   UNK N   1      27.334  17.865   5.603  0.00  0.00    -0.051 Br
HETATM   26  C   UNK N   1      28.274  18.604   8.234  0.00  0.00     0.019 A 
HETATM   27  C   UNK N   1      29.225  18.663   9.264  0.00  0.00     0.002 A 
HETATM   28  C   UNK N   1      30.495  18.089   9.093  0.00  0.00     0.014 A 
ENDBRANCH   1  22
TORSDOF 4
ENDMDL
MODEL 9
REMARK VINA RESULT:      -6.6      5.947     10.603
REMARK  4 active torsions:
REMARK  status: ('A' for Active; 'I' for Inactive)
REMARK    1  A    between atoms: C_4  and  C_8 
REMARK    2  A    between atoms: C_10  and  N_18 
REMARK    3  A    between atoms: N_18  and  C_19 
REMARK    4  A    between atoms: C_19  and  C_20 
ROOT
HETATM    1  C   UNK N   1      35.009  13.199  11.851  0.00  0.00     0.047 A 
HETATM    2  C   UNK N   1      35.306  14.419  11.238  0.00  0.00     0.080 A 
HETATM    3  C   UNK N   1      35.086  14.598   9.882  0.00  0.00     0.127 A 
HETATM    4  N   UNK N   1      34.576  13.553   9.183  0.00  0.00    -0.224 N 
HETATM    5  N   UNK N   1      34.289  13.497   7.899  0.00  0.00    -0.302 N 
HETATM    6  C   UNK N   1      33.803  12.256   7.642  0.00  0.00     0.111 A 
HETATM    7  C   UNK N   1      34.291  12.384   9.767  0.00  0.00     0.131 A 
HETATM    8  C   UNK N   1      33.790  11.509   8.829  0.00  0.00     0.069 A 
HETATM    9  N   UNK N   1      34.494  12.171  11.101  0.00  0.00    -0.340 N 
ATOM     10  HN  UNK N   1      34.271  11.273  11.528  1.00  0.00     0.167 HD
HETATM   11  H   UNK N   1      34.407  14.224   7.244  0.00  0.00     0.186 HD
ENDROOT
BRANCH   3  12
HETATM   12  N   UNK N   1      35.396  15.845   9.282  0.00  0.00    -0.370 N 
HETATM   13  H   UNK N   1      36.248  15.985   8.812  0.00  0.00     0.161 HD
BRANCH  12  14
HETATM   14  C   UNK N   1      34.413  16.906   9.383  0.00  0.00     0.160 C 
BRANCH  14  15
HETATM   15  C   UNK N   1      33.515  17.052   8.210  0.00  0.00    -0.038 A 
HETATM   16  C   UNK N   1      34.100  17.270   6.961  0.00  0.00     0.025 A 
HETATM   17  C   UNK N   1      33.288  17.412   5.839  0.00  0.00     0.088 A 
HETATM   18  N   UNK N   1      31.936  17.337   5.964  0.00  0.00    -0.375 N 
HETATM   19  C   UNK N   1      31.345  17.124   7.172  0.00  0.00     0.088 A 
ATOM     20  HN  UNK N   1      31.352  17.441   5.135  1.00  0.00     0.164 HD
HETATM   21  C   UNK N   1      32.126  16.977   8.320  0.00  0.00     0.025 A 
ENDBRANCH  14  15
ENDBRANCH  12  14
ENDBRANCH   3  12
BRANCH   1  22
HETATM   22  C   UNK N   1      35.274  13.092  13.302  0.00  0.00    -0.008 A 
HETATM   23  C   UNK N   1      36.047  14.095  13.911  0.00  0.00     0.032 A 
HETATM   24  C   UNK N   1      36.336  14.061  15.266  0.00  0.00     0.011 A 
HETATM   25 Br   UNK N   1      37.390  15.458  16.023  0.00  0.00    -0.051 Br
HETATM   26  C   UNK N   1      35.853  13.011  16.048  0.00  0.00     0.019 A 
HETATM   27  C   UNK N   1      35.080  11.999  15.458  0.00  0.00     0.002 A 
HETATM   28  C   UNK N   1      34.789  12.037  14.084  0.00  0.00     0.014 A 
ENDBRANCH   1  22
TORSDOF 4
ENDMDL
