MODEL 1
REMARK VINA RESULT:      -8.8      0.000      0.000
REMARK  5 active torsions:
REMARK  status: ('A' for Active; 'I' for Inactive)
REMARK    1  A    between atoms: C_1  and  O_9 
REMARK    2  A    between atoms: C_4  and  O_12 
REMARK    3  A    between atoms: S_7  and  N_8 
REMARK    4  A    between atoms: S_7  and  O_9 
REMARK    5  A    between atoms: C_23  and  C_26 
ROOT
HETATM    1  C   UNK N   1      25.638  19.194   3.647  0.00  0.00     0.129 C 
HETATM    2  C   UNK N   1      24.580  20.144   3.284  0.00  0.00     0.059 C 
HETATM    3  N   UNK N   1      23.746  20.893   2.998  0.00  0.00    -0.197 NA
ENDROOT
BRANCH   1   4
HETATM    4  C   UNK N   1      26.098  19.311   5.107  0.00  0.00     0.007 C 
HETATM    5  C   UNK N   1      27.607  19.093   5.259  0.00  0.00    -0.035 C 
HETATM    6  C   UNK N   1      28.155  17.738   4.788  0.00  0.00     0.010 C 
HETATM    7  C   UNK N   1      27.865  19.500   6.744  0.00  0.00    -0.001 C 
HETATM    8  C   UNK N   1      28.364  20.075   4.346  0.00  0.00     0.016 C 
HETATM    9  C   UNK N   1      28.109  16.631   5.805  0.00  0.00     0.010 C 
HETATM   10  C   UNK N   1      28.762  17.084   7.102  0.00  0.00     0.024 C 
HETATM   11  C   UNK N   1      30.261  17.215   7.123  0.00  0.00    -0.044 C 
HETATM   12  C   UNK N   1      27.981  18.241   7.709  0.00  0.00    -0.001 C 
HETATM   13  C   UNK N   1      31.049  16.488   6.221  0.00  0.00     0.047 C 
HETATM   14  C   UNK N   1      30.861  17.808   8.246  0.00  0.00    -0.049 C 
HETATM   15  C   UNK N   1      32.416  16.272   6.471  0.00  0.00     0.103 C 
HETATM   16  C   UNK N   1      32.964  16.719   7.683  0.00  0.00     0.124 C 
HETATM   17  C   UNK N   1      32.198  17.532   8.532  0.00  0.00     0.049 C 
HETATM   18  C   UNK N   1      30.080  18.686   9.192  0.00  0.00     0.039 C 
HETATM   19  C   UNK N   1      28.551  18.560   9.107  0.00  0.00     0.010 C 
HETATM   20  C   UNK N   1      27.089  20.838   6.775  0.00  0.00     0.006 C 
HETATM   21  C   UNK N   1      25.929  20.716   5.720  0.00  0.00     0.007 C 
BRANCH  15  22
HETATM   22  O   UNK N   1      33.191  15.585   5.596  0.00  0.00    -0.353 OA
HETATM   23  C   UNK N   1      33.465  16.036   4.324  0.00  0.00     0.210 C 
ENDBRANCH  15  22
BRANCH  16  24
HETATM   24  O   UNK N   1      34.210  16.323   8.042  0.00  0.00    -0.214 OA
BRANCH  24  25
HETATM   25  S   UNK N   1      34.594  15.927   9.660  0.00  0.00     0.360 S 
HETATM   26  O   UNK N   1      35.848  15.036   9.696  0.00  0.00    -0.176 OA
HETATM   27  O   UNK N   1      34.989  17.193  10.432  0.00  0.00    -0.176 OA
BRANCH  25  28
HETATM   28  N   UNK N   1      33.300  15.108  10.534  0.00  0.00    -0.305 N 
HETATM   29  H   UNK N   1      32.661  14.385  10.203  0.00  0.00     0.171 HD
HETATM   30  H   UNK N   1      33.173  15.395  11.504  0.00  0.00     0.171 HD
ENDBRANCH  25  28
ENDBRANCH  24  25
ENDBRANCH  16  24
ENDBRANCH   1   4
TORSDOF 5
ENDMDL
MODEL 2
REMARK VINA RESULT:      -7.7     12.162     15.623
REMARK  5 active torsions:
REMARK  status: ('A' for Active; 'I' for Inactive)
REMARK    1  A    between atoms: C_1  and  O_9 
REMARK    2  A    between atoms: C_4  and  O_12 
REMARK    3  A    between atoms: S_7  and  N_8 
REMARK    4  A    between atoms: S_7  and  O_9 
REMARK    5  A    between atoms: C_23  and  C_26 
ROOT
HETATM    1  C   UNK N   1      33.768   6.618  21.501  0.00  0.00     0.129 C 
HETATM    2  C   UNK N   1      33.355   6.163  22.832  0.00  0.00     0.059 C 
HETATM    3  N   UNK N   1      33.028   5.804  23.883  0.00  0.00    -0.197 NA
ENDROOT
BRANCH   1   4
HETATM    4  C   UNK N   1      34.223   8.084  21.464  0.00  0.00     0.007 C 
HETATM    5  C   UNK N   1      33.842   8.776  20.151  0.00  0.00    -0.035 C 
HETATM    6  C   UNK N   1      34.409   8.163  18.862  0.00  0.00     0.010 C 
HETATM    7  C   UNK N   1      34.173  10.274  20.443  0.00  0.00    -0.001 C 
HETATM    8  C   UNK N   1      32.325   8.649  19.921  0.00  0.00     0.016 C 
HETATM    9  C   UNK N   1      35.780   8.637  18.466  0.00  0.00     0.010 C 
HETATM   10  C   UNK N   1      35.818  10.158  18.431  0.00  0.00     0.024 C 
HETATM   11  C   UNK N   1      35.111  10.850  17.298  0.00  0.00    -0.044 C 
HETATM   12  C   UNK N   1      35.567  10.723  19.821  0.00  0.00    -0.001 C 
HETATM   13  C   UNK N   1      34.884  10.180  16.087  0.00  0.00     0.047 C 
HETATM   14  C   UNK N   1      34.977  12.247  17.352  0.00  0.00    -0.049 C 
HETATM   15  C   UNK N   1      34.610  10.896  14.909  0.00  0.00     0.103 C 
HETATM   16  C   UNK N   1      34.653  12.298  14.939  0.00  0.00     0.124 C 
HETATM   17  C   UNK N   1      34.778  12.961  16.170  0.00  0.00     0.049 C 
HETATM   18  C   UNK N   1      35.107  13.007  18.648  0.00  0.00     0.039 C 
HETATM   19  C   UNK N   1      35.791  12.250  19.797  0.00  0.00     0.010 C 
HETATM   20  C   UNK N   1      33.492  10.415  21.826  0.00  0.00     0.006 C 
HETATM   21  C   UNK N   1      33.534   8.995  22.499  0.00  0.00     0.007 C 
BRANCH  15  22
HETATM   22  O   UNK N   1      34.372  10.257  13.737  0.00  0.00    -0.353 OA
HETATM   23  C   UNK N   1      35.291   9.423  13.140  0.00  0.00     0.210 C 
ENDBRANCH  15  22
BRANCH  16  24
HETATM   24  O   UNK N   1      34.620  12.996  13.778  0.00  0.00    -0.214 OA
BRANCH  24  25
HETATM   25  S   UNK N   1      36.042  13.620  13.065  0.00  0.00     0.360 S 
HETATM   26  O   UNK N   1      35.787  13.939  11.581  0.00  0.00    -0.176 OA
HETATM   27  O   UNK N   1      36.402  14.970  13.700  0.00  0.00    -0.176 OA
BRANCH  25  28
HETATM   28  N   UNK N   1      37.440  12.549  13.175  0.00  0.00    -0.305 N 
HETATM   29  H   UNK N   1      37.619  11.797  13.840  0.00  0.00     0.171 HD
HETATM   30  H   UNK N   1      38.169  12.703  12.478  0.00  0.00     0.171 HD
ENDBRANCH  25  28
ENDBRANCH  24  25
ENDBRANCH  16  24
ENDBRANCH   1   4
TORSDOF 5
ENDMDL
MODEL 3
REMARK VINA RESULT:      -7.2      8.777     12.597
REMARK  5 active torsions:
REMARK  status: ('A' for Active; 'I' for Inactive)
REMARK    1  A    between atoms: C_1  and  O_9 
REMARK    2  A    between atoms: C_4  and  O_12 
REMARK    3  A    between atoms: S_7  and  N_8 
REMARK    4  A    between atoms: S_7  and  O_9 
REMARK    5  A    between atoms: C_23  and  C_26 
ROOT
HETATM    1  C   UNK N   1      35.650   8.529  17.053  0.00  0.00     0.129 C 
HETATM    2  C   UNK N   1      35.360   8.002  18.391  0.00  0.00     0.059 C 
HETATM    3  N   UNK N   1      35.131   7.587  19.447  0.00  0.00    -0.197 NA
ENDROOT
BRANCH   1   4
HETATM    4  C   UNK N   1      35.978  10.028  17.038  0.00  0.00     0.007 C 
HETATM    5  C   UNK N   1      35.539  10.705  15.735  0.00  0.00    -0.035 C 
HETATM    6  C   UNK N   1      36.156  10.161  14.438  0.00  0.00     0.010 C 
HETATM    7  C   UNK N   1      35.740  12.221  16.050  0.00  0.00    -0.001 C 
HETATM    8  C   UNK N   1      34.038  10.451  15.502  0.00  0.00     0.016 C 
HETATM    9  C   UNK N   1      37.482  10.757  14.051  0.00  0.00     0.010 C 
HETATM   10  C   UNK N   1      37.390  12.276  14.038  0.00  0.00     0.024 C 
HETATM   11  C   UNK N   1      36.625  12.922  12.915  0.00  0.00    -0.044 C 
HETATM   12  C   UNK N   1      37.090  12.797  15.437  0.00  0.00    -0.001 C 
HETATM   13  C   UNK N   1      36.457  12.252  11.694  0.00  0.00     0.047 C 
HETATM   14  C   UNK N   1      36.372  14.301  12.989  0.00  0.00    -0.049 C 
HETATM   15  C   UNK N   1      36.121  12.960  10.526  0.00  0.00     0.103 C 
HETATM   16  C   UNK N   1      36.045  14.360  10.577  0.00  0.00     0.124 C 
HETATM   17  C   UNK N   1      36.113  15.013  11.818  0.00  0.00     0.049 C 
HETATM   18  C   UNK N   1      36.437  15.050  14.297  0.00  0.00     0.039 C 
HETATM   19  C   UNK N   1      37.183  14.337  15.435  0.00  0.00     0.010 C 
HETATM   20  C   UNK N   1      35.050  12.282  17.434  0.00  0.00     0.006 C 
HETATM   21  C   UNK N   1      35.213  10.862  18.087  0.00  0.00     0.007 C 
BRANCH  15  22
HETATM   22  O   UNK N   1      35.940  12.321   9.345  0.00  0.00    -0.353 OA
HETATM   23  C   UNK N   1      35.331  11.089   9.246  0.00  0.00     0.210 C 
ENDBRANCH  15  22
BRANCH  16  24
HETATM   24  O   UNK N   1      35.952  15.069   9.426  0.00  0.00    -0.214 OA
BRANCH  24  25
HETATM   25  S   UNK N   1      34.712  16.220   9.178  0.00  0.00     0.360 S 
HETATM   26  O   UNK N   1      35.109  17.563   9.815  0.00  0.00    -0.176 OA
HETATM   27  O   UNK N   1      34.567  16.523   7.681  0.00  0.00    -0.176 OA
BRANCH  25  28
HETATM   28  N   UNK N   1      33.139  15.740   9.816  0.00  0.00    -0.305 N 
HETATM   29  H   UNK N   1      32.923  15.053  10.539  0.00  0.00     0.171 HD
HETATM   30  H   UNK N   1      32.334  16.216   9.408  0.00  0.00     0.171 HD
ENDBRANCH  25  28
ENDBRANCH  24  25
ENDBRANCH  16  24
ENDBRANCH   1   4
TORSDOF 5
ENDMDL
MODEL 4
REMARK VINA RESULT:      -7.1      4.441      5.556
REMARK  5 active torsions:
REMARK  status: ('A' for Active; 'I' for Inactive)
REMARK    1  A    between atoms: C_1  and  O_9 
REMARK    2  A    between atoms: C_4  and  O_12 
REMARK    3  A    between atoms: S_7  and  N_8 
REMARK    4  A    between atoms: S_7  and  O_9 
REMARK    5  A    between atoms: C_23  and  C_26 
ROOT
HETATM    1  C   UNK N   1      30.838  15.167   3.156  0.00  0.00     0.129 C 
HETATM    2  C   UNK N   1      29.417  15.354   2.842  0.00  0.00     0.059 C 
HETATM    3  N   UNK N   1      28.296  15.503   2.595  0.00  0.00    -0.197 NA
ENDROOT
BRANCH   1   4
HETATM    4  C   UNK N   1      31.396  16.210   4.134  0.00  0.00     0.007 C 
HETATM    5  C   UNK N   1      32.540  15.651   4.987  0.00  0.00    -0.035 C 
HETATM    6  C   UNK N   1      32.209  14.435   5.865  0.00  0.00     0.010 C 
HETATM    7  C   UNK N   1      33.093  16.926   5.699  0.00  0.00    -0.001 C 
HETATM    8  C   UNK N   1      33.640  15.089   4.069  0.00  0.00     0.016 C 
HETATM    9  C   UNK N   1      31.637  14.748   7.220  0.00  0.00     0.010 C 
HETATM   10  C   UNK N   1      32.530  15.743   7.947  0.00  0.00     0.024 C 
HETATM   11  C   UNK N   1      33.847  15.246   8.476  0.00  0.00    -0.044 C 
HETATM   12  C   UNK N   1      32.568  17.066   7.194  0.00  0.00    -0.001 C 
HETATM   13  C   UNK N   1      34.030  13.885   8.759  0.00  0.00     0.047 C 
HETATM   14  C   UNK N   1      34.759  16.187   8.981  0.00  0.00    -0.049 C 
HETATM   15  C   UNK N   1      35.065  13.460   9.611  0.00  0.00     0.103 C 
HETATM   16  C   UNK N   1      35.860  14.424  10.249  0.00  0.00     0.124 C 
HETATM   17  C   UNK N   1      35.739  15.774   9.884  0.00  0.00     0.049 C 
HETATM   18  C   UNK N   1      34.670  17.649   8.623  0.00  0.00     0.039 C 
HETATM   19  C   UNK N   1      33.325  18.110   8.040  0.00  0.00     0.010 C 
HETATM   20  C   UNK N   1      33.191  17.871   4.477  0.00  0.00     0.006 C 
HETATM   21  C   UNK N   1      32.080  17.417   3.462  0.00  0.00     0.007 C 
BRANCH  15  22
HETATM   22  O   UNK N   1      35.261  12.145   9.877  0.00  0.00    -0.353 OA
HETATM   23  C   UNK N   1      34.229  11.275  10.153  0.00  0.00     0.210 C 
ENDBRANCH  15  22
BRANCH  16  24
HETATM   24  O   UNK N   1      36.703  14.048  11.242  0.00  0.00    -0.214 OA
BRANCH  24  25
HETATM   25  S   UNK N   1      36.138  13.716  12.821  0.00  0.00     0.360 S 
HETATM   26  O   UNK N   1      34.605  13.843  12.866  0.00  0.00    -0.176 OA
HETATM   27  O   UNK N   1      36.421  12.252  13.183  0.00  0.00    -0.176 OA
BRANCH  25  28
HETATM   28  N   UNK N   1      36.824  14.754  14.071  0.00  0.00    -0.305 N 
HETATM   29  H   UNK N   1      37.782  14.791  14.418  0.00  0.00     0.171 HD
HETATM   30  H   UNK N   1      36.173  15.408  14.506  0.00  0.00     0.171 HD
ENDBRANCH  25  28
ENDBRANCH  24  25
ENDBRANCH  16  24
ENDBRANCH   1   4
TORSDOF 5
ENDMDL
MODEL 5
REMARK VINA RESULT:      -6.9     10.560     13.493
REMARK  5 active torsions:
REMARK  status: ('A' for Active; 'I' for Inactive)
REMARK    1  A    between atoms: C_1  and  O_9 
REMARK    2  A    between atoms: C_4  and  O_12 
REMARK    3  A    between atoms: S_7  and  N_8 
REMARK    4  A    between atoms: S_7  and  O_9 
REMARK    5  A    between atoms: C_23  and  C_26 
ROOT
HETATM    1  C   UNK N   1      35.403  12.394  10.899  0.00  0.00     0.129 C 
HETATM    2  C   UNK N   1      35.209  13.329   9.786  0.00  0.00     0.059 C 
HETATM    3  N   UNK N   1      35.057  14.067   8.907  0.00  0.00    -0.197 NA
ENDROOT
BRANCH   1   4
HETATM    4  C   UNK N   1      35.262  13.045  12.282  0.00  0.00     0.007 C 
HETATM    5  C   UNK N   1      35.792  12.143  13.403  0.00  0.00    -0.035 C 
HETATM    6  C   UNK N   1      35.122  10.769  13.553  0.00  0.00     0.010 C 
HETATM    7  C   UNK N   1      35.777  13.092  14.643  0.00  0.00    -0.001 C 
HETATM    8  C   UNK N   1      37.251  11.754  13.106  0.00  0.00     0.016 C 
HETATM    9  C   UNK N   1      33.883  10.740  14.405  0.00  0.00     0.010 C 
HETATM   10  C   UNK N   1      34.162  11.381  15.756  0.00  0.00     0.024 C 
HETATM   11  C   UNK N   1      35.009  10.613  16.734  0.00  0.00    -0.044 C 
HETATM   12  C   UNK N   1      34.513  12.852  15.579  0.00  0.00    -0.001 C 
HETATM   13  C   UNK N   1      35.103   9.217  16.648  0.00  0.00     0.047 C 
HETATM   14  C   UNK N   1      35.430  11.266  17.905  0.00  0.00    -0.049 C 
HETATM   15  C   UNK N   1      35.532   8.456  17.750  0.00  0.00     0.103 C 
HETATM   16  C   UNK N   1      35.781   9.104  18.969  0.00  0.00     0.124 C 
HETATM   17  C   UNK N   1      35.784  10.507  19.020  0.00  0.00     0.049 C 
HETATM   18  C   UNK N   1      35.448  12.770  18.012  0.00  0.00     0.039 C 
HETATM   19  C   UNK N   1      34.611  13.521  16.966  0.00  0.00     0.010 C 
HETATM   20  C   UNK N   1      36.458  14.332  14.017  0.00  0.00     0.006 C 
HETATM   21  C   UNK N   1      36.116  14.313  12.483  0.00  0.00     0.007 C 
BRANCH  15  22
HETATM   22  O   UNK N   1      35.643   7.107  17.672  0.00  0.00    -0.353 OA
HETATM   23  C   UNK N   1      35.864   6.441  16.486  0.00  0.00     0.210 C 
ENDBRANCH  15  22
BRANCH  16  24
HETATM   24  O   UNK N   1      35.969   8.370  20.093  0.00  0.00    -0.214 OA
BRANCH  24  25
HETATM   25  S   UNK N   1      34.877   8.442  21.406  0.00  0.00     0.360 S 
HETATM   26  O   UNK N   1      33.437   8.575  20.881  0.00  0.00    -0.176 OA
HETATM   27  O   UNK N   1      34.893   7.115  22.177  0.00  0.00    -0.176 OA
BRANCH  25  28
HETATM   28  N   UNK N   1      35.186   9.760  22.536  0.00  0.00    -0.305 N 
HETATM   29  H   UNK N   1      35.983  10.395  22.576  0.00  0.00     0.171 HD
HETATM   30  H   UNK N   1      34.470   9.909  23.247  0.00  0.00     0.171 HD
ENDBRANCH  25  28
ENDBRANCH  24  25
ENDBRANCH  16  24
ENDBRANCH   1   4
TORSDOF 5
ENDMDL
MODEL 6
REMARK VINA RESULT:      -6.7      3.148      4.883
REMARK  5 active torsions:
REMARK  status: ('A' for Active; 'I' for Inactive)
REMARK    1  A    between atoms: C_1  and  O_9 
REMARK    2  A    between atoms: C_4  and  O_12 
REMARK    3  A    between atoms: S_7  and  N_8 
REMARK    4  A    between atoms: S_7  and  O_9 
REMARK    5  A    between atoms: C_23  and  C_26 
ROOT
HETATM    1  C   UNK N   1      24.902  15.084   2.470  0.00  0.00     0.129 C 
HETATM    2  C   UNK N   1      24.107  14.572   1.349  0.00  0.00     0.059 C 
HETATM    3  N   UNK N   1      23.480  14.168   0.464  0.00  0.00    -0.197 NA
ENDROOT
BRANCH   1   4
HETATM    4  C   UNK N   1      26.402  14.782   2.351  0.00  0.00     0.007 C 
HETATM    5  C   UNK N   1      27.138  14.966   3.683  0.00  0.00    -0.035 C 
HETATM    6  C   UNK N   1      27.074  16.364   4.315  0.00  0.00     0.010 C 
HETATM    7  C   UNK N   1      28.551  14.375   3.379  0.00  0.00    -0.001 C 
HETATM    8  C   UNK N   1      26.470  14.098   4.765  0.00  0.00     0.016 C 
HETATM    9  C   UNK N   1      28.121  17.337   3.847  0.00  0.00     0.010 C 
HETATM   10  C   UNK N   1      29.506  16.720   3.982  0.00  0.00     0.024 C 
HETATM   11  C   UNK N   1      30.076  16.574   5.366  0.00  0.00    -0.044 C 
HETATM   12  C   UNK N   1      29.631  15.503   3.075  0.00  0.00    -0.001 C 
HETATM   13  C   UNK N   1      29.631  17.400   6.408  0.00  0.00     0.047 C 
HETATM   14  C   UNK N   1      31.263  15.840   5.522  0.00  0.00    -0.049 C 
HETATM   15  C   UNK N   1      30.403  17.570   7.571  0.00  0.00     0.103 C 
HETATM   16  C   UNK N   1      31.670  16.971   7.640  0.00  0.00     0.124 C 
HETATM   17  C   UNK N   1      32.064  16.065   6.642  0.00  0.00     0.049 C 
HETATM   18  C   UNK N   1      31.732  14.858   4.478  0.00  0.00     0.039 C 
HETATM   19  C   UNK N   1      31.092  15.007   3.090  0.00  0.00     0.010 C 
HETATM   20  C   UNK N   1      28.128  13.051   2.700  0.00  0.00     0.006 C 
HETATM   21  C   UNK N   1      26.736  13.314   2.019  0.00  0.00     0.007 C 
BRANCH  15  22
HETATM   22  O   UNK N   1      29.974  18.353   8.591  0.00  0.00    -0.353 OA
HETATM   23  C   UNK N   1      28.882  18.038   9.369  0.00  0.00     0.210 C 
ENDBRANCH  15  22
BRANCH  16  24
HETATM   24  O   UNK N   1      32.517  17.307   8.643  0.00  0.00    -0.214 OA
BRANCH  24  25
HETATM   25  S   UNK N   1      34.214  17.241   8.444  0.00  0.00     0.360 S 
HETATM   26  O   UNK N   1      34.660  18.284   7.405  0.00  0.00    -0.176 OA
HETATM   27  O   UNK N   1      34.913  17.660   9.745  0.00  0.00    -0.176 OA
BRANCH  25  28
HETATM   28  N   UNK N   1      34.827  15.662   7.953  0.00  0.00    -0.305 N 
HETATM   29  H   UNK N   1      35.621  15.139   8.323  0.00  0.00     0.171 HD
HETATM   30  H   UNK N   1      34.317  15.208   7.195  0.00  0.00     0.171 HD
ENDBRANCH  25  28
ENDBRANCH  24  25
ENDBRANCH  16  24
ENDBRANCH   1   4
TORSDOF 5
ENDMDL
MODEL 7
REMARK VINA RESULT:      -6.6     12.872     15.421
REMARK  5 active torsions:
REMARK  status: ('A' for Active; 'I' for Inactive)
REMARK    1  A    between atoms: C_1  and  O_9 
REMARK    2  A    between atoms: C_4  and  O_12 
REMARK    3  A    between atoms: S_7  and  N_8 
REMARK    4  A    between atoms: S_7  and  O_9 
REMARK    5  A    between atoms: C_23  and  C_26 
ROOT
HETATM    1  C   UNK N   1      27.340  28.593  -3.547  0.00  0.00     0.129 C 
HETATM    2  C   UNK N   1      26.875  29.971  -3.359  0.00  0.00     0.059 C 
HETATM    3  N   UNK N   1      26.507  31.059  -3.211  0.00  0.00    -0.197 NA
ENDROOT
BRANCH   1   4
HETATM    4  C   UNK N   1      26.760  27.910  -4.793  0.00  0.00     0.007 C 
HETATM    5  C   UNK N   1      27.041  26.404  -4.813  0.00  0.00    -0.035 C 
HETATM    6  C   UNK N   1      28.517  25.981  -4.793  0.00  0.00     0.010 C 
HETATM    7  C   UNK N   1      26.163  25.906  -6.005  0.00  0.00    -0.001 C 
HETATM    8  C   UNK N   1      26.511  25.763  -3.518  0.00  0.00     0.016 C 
HETATM    9  C   UNK N   1      29.190  25.908  -6.137  0.00  0.00     0.010 C 
HETATM   10  C   UNK N   1      28.369  25.048  -7.086  0.00  0.00     0.024 C 
HETATM   11  C   UNK N   1      28.370  23.560  -6.861  0.00  0.00    -0.044 C 
HETATM   12  C   UNK N   1      27.010  25.686  -7.334  0.00  0.00    -0.001 C 
HETATM   13  C   UNK N   1      29.433  22.945  -6.184  0.00  0.00     0.047 C 
HETATM   14  C   UNK N   1      27.476  22.774  -7.606  0.00  0.00    -0.049 C 
HETATM   15  C   UNK N   1      29.665  21.565  -6.313  0.00  0.00     0.103 C 
HETATM   16  C   UNK N   1      28.872  20.821  -7.200  0.00  0.00     0.124 C 
HETATM   17  C   UNK N   1      27.749  21.419  -7.793  0.00  0.00     0.049 C 
HETATM   18  C   UNK N   1      26.258  23.369  -8.267  0.00  0.00     0.039 C 
HETATM   19  C   UNK N   1      26.272  24.897  -8.435  0.00  0.00     0.010 C 
HETATM   20  C   UNK N   1      24.838  26.623  -5.655  0.00  0.00     0.006 C 
HETATM   21  C   UNK N   1      25.220  27.934  -4.878  0.00  0.00     0.007 C 
BRANCH  15  22
HETATM   22  O   UNK N   1      30.679  20.957  -5.650  0.00  0.00    -0.353 OA
HETATM   23  C   UNK N   1      30.747  20.900  -4.275  0.00  0.00     0.210 C 
ENDBRANCH  15  22
BRANCH  16  24
HETATM   24  O   UNK N   1      29.223  19.549  -7.510  0.00  0.00    -0.214 OA
BRANCH  24  25
HETATM   25  S   UNK N   1      30.417  19.209  -8.684  0.00  0.00     0.360 S 
HETATM   26  O   UNK N   1      30.424  17.703  -9.001  0.00  0.00    -0.176 OA
HETATM   27  O   UNK N   1      30.058  19.888 -10.013  0.00  0.00    -0.176 OA
BRANCH  25  28
HETATM   28  N   UNK N   1      32.049  19.692  -8.221  0.00  0.00    -0.305 N 
HETATM   29  H   UNK N   1      32.568  20.529  -8.485  0.00  0.00     0.171 HD
HETATM   30  H   UNK N   1      32.542  19.046  -7.604  0.00  0.00     0.171 HD
ENDBRANCH  25  28
ENDBRANCH  24  25
ENDBRANCH  16  24
ENDBRANCH   1   4
TORSDOF 5
ENDMDL
MODEL 8
REMARK VINA RESULT:      -6.6      6.141      8.696
REMARK  5 active torsions:
REMARK  status: ('A' for Active; 'I' for Inactive)
REMARK    1  A    between atoms: C_1  and  O_9 
REMARK    2  A    between atoms: C_4  and  O_12 
REMARK    3  A    between atoms: S_7  and  N_8 
REMARK    4  A    between atoms: S_7  and  O_9 
REMARK    5  A    between atoms: C_23  and  C_26 
ROOT
HETATM    1  C   UNK N   1      19.982  13.124   2.230  0.00  0.00     0.129 C 
HETATM    2  C   UNK N   1      18.677  12.460   2.320  0.00  0.00     0.059 C 
HETATM    3  N   UNK N   1      17.647  11.937   2.389  0.00  0.00    -0.197 NA
ENDROOT
BRANCH   1   4
HETATM    4  C   UNK N   1      19.895  14.657   2.215  0.00  0.00     0.007 C 
HETATM    5  C   UNK N   1      21.273  15.317   2.334  0.00  0.00    -0.035 C 
HETATM    6  C   UNK N   1      22.084  14.989   3.595  0.00  0.00     0.010 C 
HETATM    7  C   UNK N   1      20.959  16.820   2.048  0.00  0.00    -0.001 C 
HETATM    8  C   UNK N   1      22.195  14.791   1.219  0.00  0.00     0.016 C 
HETATM    9  C   UNK N   1      21.802  15.855   4.792  0.00  0.00     0.010 C 
HETATM   10  C   UNK N   1      21.918  17.325   4.414  0.00  0.00     0.024 C 
HETATM   11  C   UNK N   1      23.296  17.880   4.175  0.00  0.00    -0.044 C 
HETATM   12  C   UNK N   1      20.862  17.686   3.378  0.00  0.00    -0.001 C 
HETATM   13  C   UNK N   1      24.417  17.271   4.755  0.00  0.00     0.047 C 
HETATM   14  C   UNK N   1      23.407  19.176   3.645  0.00  0.00    -0.049 C 
HETATM   15  C   UNK N   1      25.627  17.973   4.891  0.00  0.00     0.103 C 
HETATM   16  C   UNK N   1      25.675  19.325   4.519  0.00  0.00     0.124 C 
HETATM   17  C   UNK N   1      24.584  19.897   3.846  0.00  0.00     0.049 C 
HETATM   18  C   UNK N   1      22.264  19.837   2.918  0.00  0.00     0.039 C 
HETATM   19  C   UNK N   1      20.879  19.212   3.148  0.00  0.00     0.010 C 
HETATM   20  C   UNK N   1      20.088  16.656   0.779  0.00  0.00     0.006 C 
HETATM   21  C   UNK N   1      19.383  15.256   0.889  0.00  0.00     0.007 C 
BRANCH  15  22
HETATM   22  O   UNK N   1      26.722  17.388   5.435  0.00  0.00    -0.353 OA
HETATM   23  C   UNK N   1      26.766  16.055   5.779  0.00  0.00     0.210 C 
ENDBRANCH  15  22
BRANCH  16  24
HETATM   24  O   UNK N   1      26.753  20.075   4.852  0.00  0.00    -0.214 OA
BRANCH  24  25
HETATM   25  S   UNK N   1      27.001  20.631   6.450  0.00  0.00     0.360 S 
HETATM   26  O   UNK N   1      28.034  21.771   6.453  0.00  0.00    -0.176 OA
HETATM   27  O   UNK N   1      25.713  21.266   6.992  0.00  0.00    -0.176 OA
BRANCH  25  28
HETATM   28  N   UNK N   1      27.538  19.385   7.577  0.00  0.00    -0.305 N 
HETATM   29  H   UNK N   1      28.415  18.862   7.584  0.00  0.00     0.171 HD
HETATM   30  H   UNK N   1      26.884  19.155   8.325  0.00  0.00     0.171 HD
ENDBRANCH  25  28
ENDBRANCH  24  25
ENDBRANCH  16  24
ENDBRANCH   1   4
TORSDOF 5
ENDMDL
MODEL 9
REMARK VINA RESULT:      -6.4      9.339     13.522
REMARK  5 active torsions:
REMARK  status: ('A' for Active; 'I' for Inactive)
REMARK    1  A    between atoms: C_1  and  O_9 
REMARK    2  A    between atoms: C_4  and  O_12 
REMARK    3  A    between atoms: S_7  and  N_8 
REMARK    4  A    between atoms: S_7  and  O_9 
REMARK    5  A    between atoms: C_23  and  C_26 
ROOT
HETATM    1  C   UNK N   1      37.614   6.864  16.082  0.00  0.00     0.129 C 
HETATM    2  C   UNK N   1      37.964   6.105  17.288  0.00  0.00     0.059 C 
HETATM    3  N   UNK N   1      38.239   5.506  18.239  0.00  0.00    -0.197 NA
ENDROOT
BRANCH   1   4
HETATM    4  C   UNK N   1      37.001   8.240  16.376  0.00  0.00     0.007 C 
HETATM    5  C   UNK N   1      36.643   9.001  15.094  0.00  0.00    -0.035 C 
HETATM    6  C   UNK N   1      37.797   9.291  14.124  0.00  0.00     0.010 C 
HETATM    7  C   UNK N   1      35.830  10.220  15.634  0.00  0.00    -0.001 C 
HETATM    8  C   UNK N   1      35.709   8.138  14.227  0.00  0.00     0.016 C 
HETATM    9  C   UNK N   1      38.576  10.549  14.398  0.00  0.00     0.010 C 
HETATM   10  C   UNK N   1      37.629  11.734  14.520  0.00  0.00     0.024 C 
HETATM   11  C   UNK N   1      36.990  12.252  13.260  0.00  0.00    -0.044 C 
HETATM   12  C   UNK N   1      36.702  11.548  15.713  0.00  0.00    -0.001 C 
HETATM   13  C   UNK N   1      37.594  12.030  12.014  0.00  0.00     0.047 C 
HETATM   14  C   UNK N   1      35.976  13.217  13.377  0.00  0.00    -0.049 C 
HETATM   15  C   UNK N   1      37.259  12.822  10.902  0.00  0.00     0.103 C 
HETATM   16  C   UNK N   1      36.375  13.898  11.074  0.00  0.00     0.124 C 
HETATM   17  C   UNK N   1      35.698  14.050  12.294  0.00  0.00     0.049 C 
HETATM   18  C   UNK N   1      35.222  13.422  14.667  0.00  0.00     0.039 C 
HETATM   19  C   UNK N   1      35.882  12.838  15.925  0.00  0.00     0.010 C 
HETATM   20  C   UNK N   1      34.875   9.476  16.598  0.00  0.00     0.006 C 
HETATM   21  C   UNK N   1      35.637   8.194  17.093  0.00  0.00     0.007 C 
BRANCH  15  22
HETATM   22  O   UNK N   1      37.825  12.606   9.689  0.00  0.00    -0.353 OA
HETATM   23  C   UNK N   1      38.861  11.720   9.494  0.00  0.00     0.210 C 
ENDBRANCH  15  22
BRANCH  16  24
HETATM   24  O   UNK N   1      36.220  14.805  10.079  0.00  0.00    -0.214 OA
BRANCH  24  25
HETATM   25  S   UNK N   1      34.906  15.898  10.057  0.00  0.00     0.360 S 
HETATM   26  O   UNK N   1      35.201  17.089  10.985  0.00  0.00    -0.176 OA
HETATM   27  O   UNK N   1      34.758  16.516   8.660  0.00  0.00    -0.176 OA
BRANCH  25  28
HETATM   28  N   UNK N   1      33.362  15.188  10.531  0.00  0.00    -0.305 N 
HETATM   29  H   UNK N   1      32.548  14.981   9.953  0.00  0.00     0.171 HD
HETATM   30  H   UNK N   1      33.271  14.950  11.519  0.00  0.00     0.171 HD
ENDBRANCH  25  28
ENDBRANCH  24  25
ENDBRANCH  16  24
ENDBRANCH   1   4
TORSDOF 5
ENDMDL
