MODEL 1
REMARK VINA RESULT:      -5.7      0.000      0.000
REMARK  2 active torsions:
REMARK  status: ('A' for Active; 'I' for Inactive)
REMARK    1  A    between atoms: C_1  and  O_11 
REMARK    2  A    between atoms: C_2  and  N_12 
ROOT
HETATM    1  C   UNK N   1      36.289  13.755  15.141  0.00  0.00     0.173 C 
HETATM    2  C   UNK N   1      36.517  12.820  13.938  0.00  0.00     0.107 C 
HETATM    3  C   UNK N   1      37.377  11.633  14.338  0.00  0.00     0.032 C 
HETATM    4  C   UNK N   1      36.617  10.780  15.355  0.00  0.00     0.041 C 
HETATM    5  C   UNK N   1      36.055  11.594  16.490  0.00  0.00    -0.049 A 
HETATM    6  C   UNK N   1      35.713  10.940  17.676  0.00  0.00     0.007 A 
HETATM    7  C   UNK N   1      35.914  13.001  16.395  0.00  0.00    -0.021 A 
HETATM    8  C   UNK N   1      35.462  13.719  17.514  0.00  0.00     0.010 A 
HETATM    9  C   UNK N   1      35.128  13.054  18.694  0.00  0.00     0.001 A 
HETATM   10  C   UNK N   1      35.244  11.666  18.774  0.00  0.00     0.001 A 
ENDROOT
BRANCH   2  11
HETATM   11  N   UNK N   1      37.142  13.543  12.841  0.00  0.00    -0.423 N 
HETATM   12  H   UNK N   1      36.785  14.440  12.512  0.00  0.00     0.150 HD
HETATM   13  H   UNK N   1      37.963  13.141  12.388  0.00  0.00     0.150 HD
ENDBRANCH   2  11
BRANCH   1  14
HETATM   14  O   UNK N   1      37.439  14.504  15.407  0.00  0.00    -0.389 OA
HETATM   15  H   UNK N   1      38.193  15.023  15.085  0.00  0.00     0.210 HD
ENDBRANCH   1  14
TORSDOF 2
ENDMDL
MODEL 2
REMARK VINA RESULT:      -5.3      9.800     11.965
REMARK  2 active torsions:
REMARK  status: ('A' for Active; 'I' for Inactive)
REMARK    1  A    between atoms: C_1  and  O_11 
REMARK    2  A    between atoms: C_2  and  N_12 
ROOT
HETATM    1  C   UNK N   1      33.926  17.120   7.167  0.00  0.00     0.173 C 
HETATM    2  C   UNK N   1      33.180  16.894   8.496  0.00  0.00     0.107 C 
HETATM    3  C   UNK N   1      31.928  17.751   8.559  0.00  0.00     0.032 C 
HETATM    4  C   UNK N   1      30.947  17.290   7.479  0.00  0.00     0.041 C 
HETATM    5  C   UNK N   1      31.591  17.170   6.123  0.00  0.00    -0.049 A 
HETATM    6  C   UNK N   1      30.772  17.172   4.992  0.00  0.00     0.007 A 
HETATM    7  C   UNK N   1      32.999  17.106   5.974  0.00  0.00    -0.021 A 
HETATM    8  C   UNK N   1      33.549  17.078   4.682  0.00  0.00     0.010 A 
HETATM    9  C   UNK N   1      32.720  17.086   3.560  0.00  0.00     0.001 A 
HETATM   10  C   UNK N   1      31.334  17.124   3.712  0.00  0.00     0.001 A 
ENDROOT
BRANCH   2  11
HETATM   11  N   UNK N   1      34.047  17.192   9.625  0.00  0.00    -0.423 N 
HETATM   12  H   UNK N   1      34.060  18.111  10.069  0.00  0.00     0.150 HD
HETATM   13  H   UNK N   1      34.661  16.461   9.985  0.00  0.00     0.150 HD
ENDBRANCH   2  11
BRANCH   1  14
HETATM   14  O   UNK N   1      34.600  18.345   7.183  0.00  0.00    -0.389 OA
HETATM   15  H   UNK N   1      35.325  18.906   6.864  0.00  0.00     0.210 HD
ENDBRANCH   1  14
TORSDOF 2
ENDMDL
MODEL 3
REMARK VINA RESULT:      -5.3     12.589     14.066
REMARK  2 active torsions:
REMARK  status: ('A' for Active; 'I' for Inactive)
REMARK    1  A    between atoms: C_1  and  O_11 
REMARK    2  A    between atoms: C_2  and  N_12 
ROOT
HETATM    1  C   UNK N   1      28.502  18.955   8.455  0.00  0.00     0.173 C 
HETATM    2  C   UNK N   1      29.679  17.964   8.361  0.00  0.00     0.107 C 
HETATM    3  C   UNK N   1      29.402  16.905   7.308  0.00  0.00     0.032 C 
HETATM    4  C   UNK N   1      29.339  17.566   5.930  0.00  0.00     0.041 C 
HETATM    5  C   UNK N   1      28.432  18.768   5.905  0.00  0.00    -0.049 A 
HETATM    6  C   UNK N   1      27.950  19.215   4.673  0.00  0.00     0.007 A 
HETATM    7  C   UNK N   1      28.023  19.414   7.099  0.00  0.00    -0.021 A 
HETATM    8  C   UNK N   1      27.110  20.478   7.021  0.00  0.00     0.010 A 
HETATM    9  C   UNK N   1      26.633  20.913   5.784  0.00  0.00     0.001 A 
HETATM   10  C   UNK N   1      27.057  20.289   4.610  0.00  0.00     0.001 A 
ENDROOT
BRANCH   2  11
HETATM   11  N   UNK N   1      29.922  17.337   9.651  0.00  0.00    -0.423 N 
HETATM   12  H   UNK N   1      30.804  16.873   9.868  0.00  0.00     0.150 HD
HETATM   13  H   UNK N   1      29.188  17.362  10.359  0.00  0.00     0.150 HD
ENDBRANCH   2  11
BRANCH   1  14
HETATM   14  O   UNK N   1      27.422  18.375   9.127  0.00  0.00    -0.389 OA
HETATM   15  H   UNK N   1      26.597  18.473   9.628  0.00  0.00     0.210 HD
ENDBRANCH   1  14
TORSDOF 2
ENDMDL
MODEL 4
REMARK VINA RESULT:      -5.1     27.862     28.409
REMARK  2 active torsions:
REMARK  status: ('A' for Active; 'I' for Inactive)
REMARK    1  A    between atoms: C_1  and  O_11 
REMARK    2  A    between atoms: C_2  and  N_12 
ROOT
HETATM    1  C   UNK N   1      25.978  29.010  -3.991  0.00  0.00     0.173 C 
HETATM    2  C   UNK N   1      26.780  30.313  -4.176  0.00  0.00     0.107 C 
HETATM    3  C   UNK N   1      28.180  30.011  -4.683  0.00  0.00     0.032 C 
HETATM    4  C   UNK N   1      28.089  29.406  -6.086  0.00  0.00     0.041 C 
HETATM    5  C   UNK N   1      27.104  28.271  -6.165  0.00  0.00    -0.049 A 
HETATM    6  C   UNK N   1      27.208  27.369  -7.226  0.00  0.00     0.007 A 
HETATM    7  C   UNK N   1      26.117  28.074  -5.167  0.00  0.00    -0.021 A 
HETATM    8  C   UNK N   1      25.278  26.950  -5.248  0.00  0.00     0.010 A 
HETATM    9  C   UNK N   1      25.395  26.054  -6.311  0.00  0.00     0.001 A 
HETATM   10  C   UNK N   1      26.353  26.266  -7.304  0.00  0.00     0.001 A 
ENDROOT
BRANCH   2  11
HETATM   11  N   UNK N   1      26.850  31.052  -2.925  0.00  0.00    -0.423 N 
HETATM   12  H   UNK N   1      26.216  31.823  -2.717  0.00  0.00     0.150 HD
HETATM   13  H   UNK N   1      27.555  30.791  -2.235  0.00  0.00     0.150 HD
ENDBRANCH   2  11
BRANCH   1  14
HETATM   14  O   UNK N   1      26.396  28.334  -2.841  0.00  0.00    -0.389 OA
HETATM   15  H   UNK N   1      26.714  27.521  -2.417  0.00  0.00     0.210 HD
ENDBRANCH   1  14
TORSDOF 2
ENDMDL
MODEL 5
REMARK VINA RESULT:      -5.0     27.927     28.517
REMARK  2 active torsions:
REMARK  status: ('A' for Active; 'I' for Inactive)
REMARK    1  A    between atoms: C_1  and  O_11 
REMARK    2  A    between atoms: C_2  and  N_12 
ROOT
HETATM    1  C   UNK N   1      25.651  26.736  -5.347  0.00  0.00     0.173 C 
HETATM    2  C   UNK N   1      26.318  25.867  -6.431  0.00  0.00     0.107 C 
HETATM    3  C   UNK N   1      26.639  26.700  -7.661  0.00  0.00     0.032 C 
HETATM    4  C   UNK N   1      27.693  27.749  -7.299  0.00  0.00     0.041 C 
HETATM    5  C   UNK N   1      27.337  28.523  -6.058  0.00  0.00    -0.049 A 
HETATM    6  C   UNK N   1      27.957  29.756  -5.840  0.00  0.00     0.007 A 
HETATM    7  C   UNK N   1      26.361  28.053  -5.144  0.00  0.00    -0.021 A 
HETATM    8  C   UNK N   1      26.011  28.857  -4.047  0.00  0.00     0.010 A 
HETATM    9  C   UNK N   1      26.634  30.088  -3.843  0.00  0.00     0.001 A 
HETATM   10  C   UNK N   1      27.611  30.535  -4.732  0.00  0.00     0.001 A 
ENDROOT
BRANCH   2  11
HETATM   11  N   UNK N   1      25.457  24.752  -6.793  0.00  0.00    -0.423 N 
HETATM   12  H   UNK N   1      24.478  24.712  -6.510  0.00  0.00     0.150 HD
HETATM   13  H   UNK N   1      25.844  23.988  -7.346  0.00  0.00     0.150 HD
ENDBRANCH   2  11
BRANCH   1  14
HETATM   14  O   UNK N   1      24.320  27.004  -5.681  0.00  0.00    -0.389 OA
HETATM   15  H   UNK N   1      23.610  27.646  -5.841  0.00  0.00     0.210 HD
ENDBRANCH   1  14
TORSDOF 2
ENDMDL
MODEL 6
REMARK VINA RESULT:      -5.0      9.553     11.411
REMARK  2 active torsions:
REMARK  status: ('A' for Active; 'I' for Inactive)
REMARK    1  A    between atoms: C_1  and  O_11 
REMARK    2  A    between atoms: C_2  and  N_12 
ROOT
HETATM    1  C   UNK N   1      32.269  17.294   8.601  0.00  0.00     0.173 C 
HETATM    2  C   UNK N   1      33.785  17.557   8.527  0.00  0.00     0.107 C 
HETATM    3  C   UNK N   1      34.414  16.746   7.407  0.00  0.00     0.032 C 
HETATM    4  C   UNK N   1      33.868  17.233   6.063  0.00  0.00     0.041 C 
HETATM    5  C   UNK N   1      32.365  17.320   6.045  0.00  0.00    -0.049 A 
HETATM    6  C   UNK N   1      31.712  17.338   4.811  0.00  0.00     0.007 A 
HETATM    7  C   UNK N   1      31.608  17.333   7.244  0.00  0.00    -0.021 A 
HETATM    8  C   UNK N   1      30.206  17.331   7.166  0.00  0.00     0.010 A 
HETATM    9  C   UNK N   1      29.566  17.345   5.927  0.00  0.00     0.001 A 
HETATM   10  C   UNK N   1      30.315  17.357   4.750  0.00  0.00     0.001 A 
ENDROOT
BRANCH   2  11
HETATM   11  N   UNK N   1      34.422  17.237   9.795  0.00  0.00    -0.423 N 
HETATM   12  H   UNK N   1      35.101  16.480   9.883  0.00  0.00     0.150 HD
HETATM   13  H   UNK N   1      34.184  17.786  10.621  0.00  0.00     0.150 HD
ENDBRANCH   2  11
BRANCH   1  14
HETATM   14  O   UNK N   1      32.014  16.047   9.177  0.00  0.00    -0.389 OA
HETATM   15  H   UNK N   1      31.379  15.368   9.457  0.00  0.00     0.210 HD
ENDBRANCH   1  14
TORSDOF 2
ENDMDL
MODEL 7
REMARK VINA RESULT:      -5.0     11.024     12.587
REMARK  2 active torsions:
REMARK  status: ('A' for Active; 'I' for Inactive)
REMARK    1  A    between atoms: C_1  and  O_11 
REMARK    2  A    between atoms: C_2  and  N_12 
ROOT
HETATM    1  C   UNK N   1      30.245  17.020   4.935  0.00  0.00     0.173 C 
HETATM    2  C   UNK N   1      30.996  16.542   3.677  0.00  0.00     0.107 C 
HETATM    3  C   UNK N   1      32.236  17.388   3.441  0.00  0.00     0.032 C 
HETATM    4  C   UNK N   1      33.223  17.170   4.590  0.00  0.00     0.041 C 
HETATM    5  C   UNK N   1      32.578  17.315   5.942  0.00  0.00    -0.049 A 
HETATM    6  C   UNK N   1      33.395  17.558   7.049  0.00  0.00     0.007 A 
HETATM    7  C   UNK N   1      31.171  17.261   6.104  0.00  0.00    -0.021 A 
HETATM    8  C   UNK N   1      30.620  17.486   7.376  0.00  0.00     0.010 A 
HETATM    9  C   UNK N   1      31.447  17.732   8.472  0.00  0.00     0.001 A 
HETATM   10  C   UNK N   1      32.833  17.760   8.313  0.00  0.00     0.001 A 
ENDROOT
BRANCH   2  11
HETATM   11  N   UNK N   1      30.126  16.593   2.513  0.00  0.00    -0.423 N 
HETATM   12  H   UNK N   1      29.281  16.027   2.444  0.00  0.00     0.150 HD
HETATM   13  H   UNK N   1      30.369  17.215   1.741  0.00  0.00     0.150 HD
ENDBRANCH   2  11
BRANCH   1  14
HETATM   14  O   UNK N   1      29.553  18.206   4.673  0.00  0.00    -0.389 OA
HETATM   15  H   UNK N   1      29.457  19.024   4.159  0.00  0.00     0.210 HD
ENDBRANCH   1  14
TORSDOF 2
ENDMDL
MODEL 8
REMARK VINA RESULT:      -4.9     10.517     11.859
REMARK  2 active torsions:
REMARK  status: ('A' for Active; 'I' for Inactive)
REMARK    1  A    between atoms: C_1  and  O_11 
REMARK    2  A    between atoms: C_2  and  N_12 
ROOT
HETATM    1  C   UNK N   1      30.318  17.752   8.839  0.00  0.00     0.173 C 
HETATM    2  C   UNK N   1      28.983  17.286   8.226  0.00  0.00     0.107 C 
HETATM    3  C   UNK N   1      28.821  17.837   6.819  0.00  0.00     0.032 C 
HETATM    4  C   UNK N   1      29.896  17.234   5.914  0.00  0.00     0.041 C 
HETATM    5  C   UNK N   1      31.277  17.341   6.504  0.00  0.00    -0.049 A 
HETATM    6  C   UNK N   1      32.378  17.227   5.652  0.00  0.00     0.007 A 
HETATM    7  C   UNK N   1      31.477  17.602   7.883  0.00  0.00    -0.021 A 
HETATM    8  C   UNK N   1      32.785  17.774   8.363  0.00  0.00     0.010 A 
HETATM    9  C   UNK N   1      33.876  17.662   7.500  0.00  0.00     0.001 A 
HETATM   10  C   UNK N   1      33.676  17.381   6.149  0.00  0.00     0.001 A 
ENDROOT
BRANCH   2  11
HETATM   11  N   UNK N   1      27.866  17.704   9.058  0.00  0.00    -0.423 N 
HETATM   12  H   UNK N   1      27.184  17.037   9.421  0.00  0.00     0.150 HD
HETATM   13  H   UNK N   1      27.761  18.692   9.287  0.00  0.00     0.150 HD
ENDBRANCH   2  11
BRANCH   1  14
HETATM   14  O   UNK N   1      30.241  19.093   9.226  0.00  0.00    -0.389 OA
HETATM   15  H   UNK N   1      30.592  19.837   9.741  0.00  0.00     0.210 HD
ENDBRANCH   1  14
TORSDOF 2
ENDMDL
MODEL 9
REMARK VINA RESULT:      -4.8     21.965     23.536
REMARK  2 active torsions:
REMARK  status: ('A' for Active; 'I' for Inactive)
REMARK    1  A    between atoms: C_1  and  O_11 
REMARK    2  A    between atoms: C_2  and  N_12 
ROOT
HETATM    1  C   UNK N   1      31.313  22.990  -2.995  0.00  0.00     0.173 C 
HETATM    2  C   UNK N   1      31.967  21.698  -3.521  0.00  0.00     0.107 C 
HETATM    3  C   UNK N   1      30.907  20.698  -3.949  0.00  0.00     0.032 C 
HETATM    4  C   UNK N   1      30.138  21.260  -5.146  0.00  0.00     0.041 C 
HETATM    5  C   UNK N   1      29.656  22.667  -4.917  0.00  0.00    -0.049 A 
HETATM    6  C   UNK N   1      28.615  23.154  -5.710  0.00  0.00     0.007 A 
HETATM    7  C   UNK N   1      30.199  23.480  -3.890  0.00  0.00    -0.021 A 
HETATM    8  C   UNK N   1      29.654  24.754  -3.668  0.00  0.00     0.010 A 
HETATM    9  C   UNK N   1      28.611  25.228  -4.464  0.00  0.00     0.001 A 
HETATM   10  C   UNK N   1      28.096  24.433  -5.489  0.00  0.00     0.001 A 
ENDROOT
BRANCH   2  11
HETATM   11  N   UNK N   1      32.827  21.111  -2.504  0.00  0.00    -0.423 N 
HETATM   12  H   UNK N   1      33.835  21.266  -2.494  0.00  0.00     0.150 HD
HETATM   13  H   UNK N   1      32.409  20.528  -1.780  0.00  0.00     0.150 HD
ENDBRANCH   2  11
BRANCH   1  14
HETATM   14  O   UNK N   1      30.789  22.790  -1.714  0.00  0.00    -0.389 OA
HETATM   15  H   UNK N   1      30.669  22.220  -0.938  0.00  0.00     0.210 HD
ENDBRANCH   1  14
TORSDOF 2
ENDMDL
