MODEL 1
REMARK VINA RESULT:      -6.3      0.000      0.000
REMARK  0 active torsions:
REMARK  status: ('A' for Active; 'I' for Inactive)
ROOT
HETATM    1  O   UNK N   1      36.174  14.973  13.078  0.00  0.00    -0.325 OA
HETATM    2  O   UNK N   1      34.632  11.768  11.272  0.00  0.00    -0.267 OA
HETATM    3  N   UNK N   1      35.854  12.617  12.953  0.00  0.00    -0.321 N 
HETATM    4  C   UNK N   1      36.509  13.726  13.596  0.00  0.00     0.232 C 
HETATM    5  C   UNK N   1      36.135  13.516  15.041  0.00  0.00     0.056 C 
HETATM    6  C   UNK N   1      36.171  11.981  15.166  0.00  0.00     0.024 C 
HETATM    7  C   UNK N   1      35.797  11.446  13.777  0.00  0.00     0.129 C 
HETATM    8  C   UNK N   1      35.191  12.734  11.774  0.00  0.00     0.258 C 
HETATM    9  C   UNK N   1      35.134  14.049  11.129  0.00  0.00     0.068 A 
HETATM   10  C   UNK N   1      35.625  15.148  11.850  0.00  0.00     0.090 A 
HETATM   11  C   UNK N   1      35.571  16.427  11.288  0.00  0.00     0.077 A 
HETATM   12  C   UNK N   1      35.048  16.606  10.003  0.00  0.00     0.104 A 
HETATM   13  C   UNK N   1      34.559  15.510   9.286  0.00  0.00     0.103 A 
HETATM   14  C   UNK N   1      34.590  14.232   9.851  0.00  0.00     0.059 A 
HETATM   15  O   UNK N   1      35.036  17.835   9.448  0.00  0.00    -0.346 OA
HETATM   16  O   UNK N   1      34.054  15.686   8.047  0.00  0.00    -0.346 OA
HETATM   17  C   UNK N   1      33.953  16.917   7.418  0.00  0.00     0.202 C 
HETATM   18  C   UNK N   1      34.634  18.094   8.148  0.00  0.00     0.202 C 
ENDROOT
TORSDOF 0
ENDMDL
MODEL 2
REMARK VINA RESULT:      -6.2      3.276      7.228
REMARK  0 active torsions:
REMARK  status: ('A' for Active; 'I' for Inactive)
ROOT
HETATM    1  O   UNK N   1      31.342  15.558   7.520  0.00  0.00    -0.325 OA
HETATM    2  O   UNK N   1      34.113  17.973   5.971  0.00  0.00    -0.267 OA
HETATM    3  N   UNK N   1      32.184  16.855   5.710  0.00  0.00    -0.321 N 
HETATM    4  C   UNK N   1      31.201  15.916   6.183  0.00  0.00     0.232 C 
HETATM    5  C   UNK N   1      29.910  16.618   5.846  0.00  0.00     0.056 C 
HETATM    6  C   UNK N   1      30.247  17.289   4.501  0.00  0.00     0.024 C 
HETATM    7  C   UNK N   1      31.753  17.583   4.554  0.00  0.00     0.129 C 
HETATM    8  C   UNK N   1      33.313  17.154   6.403  0.00  0.00     0.258 C 
HETATM    9  C   UNK N   1      33.537  16.497   7.694  0.00  0.00     0.068 A 
HETATM   10  C   UNK N   1      32.493  15.723   8.220  0.00  0.00     0.090 A 
HETATM   11  C   UNK N   1      32.649  15.096   9.460  0.00  0.00     0.077 A 
HETATM   12  C   UNK N   1      33.851  15.224  10.163  0.00  0.00     0.104 A 
HETATM   13  C   UNK N   1      34.891  15.997   9.639  0.00  0.00     0.103 A 
HETATM   14  C   UNK N   1      34.733  16.644   8.409  0.00  0.00     0.059 A 
HETATM   15  O   UNK N   1      34.013  14.583  11.338  0.00  0.00    -0.346 OA
HETATM   16  O   UNK N   1      36.050  16.120  10.319  0.00  0.00    -0.346 OA
HETATM   17  C   UNK N   1      36.287  15.542  11.556  0.00  0.00     0.202 C 
HETATM   18  C   UNK N   1      35.198  14.568  12.054  0.00  0.00     0.202 C 
ENDROOT
TORSDOF 0
ENDMDL
MODEL 3
REMARK VINA RESULT:      -6.2     11.120     13.950
REMARK  0 active torsions:
REMARK  status: ('A' for Active; 'I' for Inactive)
ROOT
HETATM    1  O   UNK N   1      26.402  19.716   3.650  0.00  0.00    -0.325 OA
HETATM    2  O   UNK N   1      25.004  16.510   5.568  0.00  0.00    -0.267 OA
HETATM    3  N   UNK N   1      26.768  17.649   4.772  0.00  0.00    -0.321 N 
HETATM    4  C   UNK N   1      27.322  18.736   4.010  0.00  0.00     0.232 C 
HETATM    5  C   UNK N   1      28.437  19.211   4.906  0.00  0.00     0.056 C 
HETATM    6  C   UNK N   1      28.963  17.889   5.498  0.00  0.00     0.024 C 
HETATM    7  C   UNK N   1      27.750  16.949   5.546  0.00  0.00     0.129 C 
HETATM    8  C   UNK N   1      25.432  17.438   4.894  0.00  0.00     0.258 C 
HETATM    9  C   UNK N   1      24.512  18.363   4.225  0.00  0.00     0.068 A 
HETATM   10  C   UNK N   1      25.060  19.512   3.635  0.00  0.00     0.090 A 
HETATM   11  C   UNK N   1      24.222  20.436   3.006  0.00  0.00     0.077 A 
HETATM   12  C   UNK N   1      22.844  20.206   2.948  0.00  0.00     0.104 A 
HETATM   13  C   UNK N   1      22.298  19.062   3.537  0.00  0.00     0.103 A 
HETATM   14  C   UNK N   1      23.129  18.144   4.186  0.00  0.00     0.059 A 
HETATM   15  O   UNK N   1      22.044  21.080   2.304  0.00  0.00    -0.346 OA
HETATM   16  O   UNK N   1      20.968  18.842   3.480  0.00  0.00    -0.346 OA
HETATM   17  C   UNK N   1      20.064  19.709   2.887  0.00  0.00     0.202 C 
HETATM   18  C   UNK N   1      20.687  20.886   2.106  0.00  0.00     0.202 C 
ENDROOT
TORSDOF 0
ENDMDL
MODEL 4
REMARK VINA RESULT:      -6.2      1.829      6.301
REMARK  0 active torsions:
REMARK  status: ('A' for Active; 'I' for Inactive)
ROOT
HETATM    1  O   UNK N   1      33.905  14.348   8.749  0.00  0.00    -0.325 OA
HETATM    2  O   UNK N   1      35.343  17.924   9.779  0.00  0.00    -0.267 OA
HETATM    3  N   UNK N   1      34.487  16.588   8.191  0.00  0.00    -0.321 N 
HETATM    4  C   UNK N   1      34.045  15.295   7.740  0.00  0.00     0.232 C 
HETATM    5  C   UNK N   1      32.770  15.637   7.009  0.00  0.00     0.056 C 
HETATM    6  C   UNK N   1      33.127  16.982   6.347  0.00  0.00     0.024 C 
HETATM    7  C   UNK N   1      34.146  17.644   7.285  0.00  0.00     0.129 C 
HETATM    8  C   UNK N   1      34.996  16.803   9.431  0.00  0.00     0.258 C 
HETATM    9  C   UNK N   1      35.093  15.669  10.355  0.00  0.00     0.068 A 
HETATM   10  C   UNK N   1      34.500  14.459   9.964  0.00  0.00     0.090 A 
HETATM   11  C   UNK N   1      34.545  13.355  10.821  0.00  0.00     0.077 A 
HETATM   12  C   UNK N   1      35.197  13.452  12.054  0.00  0.00     0.104 A 
HETATM   13  C   UNK N   1      35.787  14.657  12.443  0.00  0.00     0.103 A 
HETATM   14  C   UNK N   1      35.727  15.771  11.600  0.00  0.00     0.059 A 
HETATM   15  O   UNK N   1      35.274  12.372  12.859  0.00  0.00    -0.346 OA
HETATM   16  O   UNK N   1      36.415  14.748  13.634  0.00  0.00    -0.346 OA
HETATM   17  C   UNK N   1      36.499  13.709  14.547  0.00  0.00     0.202 C 
HETATM   18  C   UNK N   1      35.984  12.342  14.048  0.00  0.00     0.202 C 
ENDROOT
TORSDOF 0
ENDMDL
MODEL 5
REMARK VINA RESULT:      -6.1      1.047      2.461
REMARK  0 active torsions:
REMARK  status: ('A' for Active; 'I' for Inactive)
ROOT
HETATM    1  O   UNK N   1      36.179  12.324  11.317  0.00  0.00    -0.325 OA
HETATM    2  O   UNK N   1      36.539  15.176  14.083  0.00  0.00    -0.267 OA
HETATM    3  N   UNK N   1      36.487  12.988  13.582  0.00  0.00    -0.321 N 
HETATM    4  C   UNK N   1      36.275  11.918  12.644  0.00  0.00     0.232 C 
HETATM    5  C   UNK N   1      37.434  11.002  12.946  0.00  0.00     0.056 C 
HETATM    6  C   UNK N   1      37.557  11.128  14.476  0.00  0.00     0.024 C 
HETATM    7  C   UNK N   1      37.076  12.547  14.812  0.00  0.00     0.129 C 
HETATM    8  C   UNK N   1      36.329  14.297  13.258  0.00  0.00     0.258 C 
HETATM    9  C   UNK N   1      35.929  14.636  11.888  0.00  0.00     0.068 A 
HETATM   10  C   UNK N   1      35.897  13.598  10.945  0.00  0.00     0.090 A 
HETATM   11  C   UNK N   1      35.545  13.875   9.621  0.00  0.00     0.077 A 
HETATM   12  C   UNK N   1      35.208  15.179   9.243  0.00  0.00     0.104 A 
HETATM   13  C   UNK N   1      35.242  16.212  10.184  0.00  0.00     0.103 A 
HETATM   14  C   UNK N   1      35.614  15.946  11.505  0.00  0.00     0.059 A 
HETATM   15  O   UNK N   1      34.830  15.434   7.974  0.00  0.00    -0.346 OA
HETATM   16  O   UNK N   1      34.918  17.469   9.817  0.00  0.00    -0.346 OA
HETATM   17  C   UNK N   1      34.568  17.835   8.526  0.00  0.00     0.202 C 
HETATM   18  C   UNK N   1      34.382  16.668   7.533  0.00  0.00     0.202 C 
ENDROOT
TORSDOF 0
ENDMDL
MODEL 6
REMARK VINA RESULT:      -6.1     11.938     15.282
REMARK  0 active torsions:
REMARK  status: ('A' for Active; 'I' for Inactive)
ROOT
HETATM    1  O   UNK N   1      22.499  17.486   3.827  0.00  0.00    -0.325 OA
HETATM    2  O   UNK N   1      22.349  21.313   2.711  0.00  0.00    -0.267 OA
HETATM    3  N   UNK N   1      21.390  19.282   2.727  0.00  0.00    -0.321 N 
HETATM    4  C   UNK N   1      21.432  17.875   3.024  0.00  0.00     0.232 C 
HETATM    5  C   UNK N   1      20.068  17.640   3.621  0.00  0.00     0.056 C 
HETATM    6  C   UNK N   1      19.178  18.570   2.774  0.00  0.00     0.024 C 
HETATM    7  C   UNK N   1      20.083  19.740   2.360  0.00  0.00     0.129 C 
HETATM    8  C   UNK N   1      22.435  20.118   2.962  0.00  0.00     0.258 C 
HETATM    9  C   UNK N   1      23.658  19.563   3.550  0.00  0.00     0.068 A 
HETATM   10  C   UNK N   1      23.620  18.232   3.993  0.00  0.00     0.090 A 
HETATM   11  C   UNK N   1      24.754  17.665   4.583  0.00  0.00     0.077 A 
HETATM   12  C   UNK N   1      25.926  18.416   4.712  0.00  0.00     0.104 A 
HETATM   13  C   UNK N   1      25.962  19.742   4.272  0.00  0.00     0.103 A 
HETATM   14  C   UNK N   1      24.825  20.322   3.701  0.00  0.00     0.059 A 
HETATM   15  O   UNK N   1      27.029  17.851   5.244  0.00  0.00    -0.346 OA
HETATM   16  O   UNK N   1      27.094  20.464   4.399  0.00  0.00    -0.346 OA
HETATM   17  C   UNK N   1      28.258  19.986   4.979  0.00  0.00     0.202 C 
HETATM   18  C   UNK N   1      28.261  18.481   5.319  0.00  0.00     0.202 C 
ENDROOT
TORSDOF 0
ENDMDL
MODEL 7
REMARK VINA RESULT:      -6.1      3.420      7.276
REMARK  0 active torsions:
REMARK  status: ('A' for Active; 'I' for Inactive)
ROOT
HETATM    1  O   UNK N   1      33.331  17.593   5.942  0.00  0.00    -0.325 OA
HETATM    2  O   UNK N   1      31.388  14.126   6.280  0.00  0.00    -0.267 OA
HETATM    3  N   UNK N   1      31.674  16.063   5.181  0.00  0.00    -0.321 N 
HETATM    4  C   UNK N   1      32.277  17.364   5.063  0.00  0.00     0.232 C 
HETATM    5  C   UNK N   1      32.646  17.407   3.602  0.00  0.00     0.056 C 
HETATM    6  C   UNK N   1      31.464  16.668   2.947  0.00  0.00     0.024 C 
HETATM    7  C   UNK N   1      30.978  15.658   3.996  0.00  0.00     0.129 C 
HETATM    8  C   UNK N   1      31.908  15.232   6.230  0.00  0.00     0.258 C 
HETATM    9  C   UNK N   1      32.822  15.678   7.286  0.00  0.00     0.068 A 
HETATM   10  C   UNK N   1      33.533  16.868   7.071  0.00  0.00     0.090 A 
HETATM   11  C   UNK N   1      34.434  17.323   8.038  0.00  0.00     0.077 A 
HETATM   12  C   UNK N   1      34.611  16.603   9.224  0.00  0.00     0.104 A 
HETATM   13  C   UNK N   1      33.903  15.417   9.437  0.00  0.00     0.103 A 
HETATM   14  C   UNK N   1      33.016  14.946   8.464  0.00  0.00     0.059 A 
HETATM   15  O   UNK N   1      35.450  17.067  10.172  0.00  0.00    -0.346 OA
HETATM   16  O   UNK N   1      34.075  14.724  10.582  0.00  0.00    -0.346 OA
HETATM   17  C   UNK N   1      34.954  15.096  11.587  0.00  0.00     0.202 C 
HETATM   18  C   UNK N   1      35.613  16.481  11.416  0.00  0.00     0.202 C 
ENDROOT
TORSDOF 0
ENDMDL
MODEL 8
REMARK VINA RESULT:      -5.9     12.806     14.078
REMARK  0 active torsions:
REMARK  status: ('A' for Active; 'I' for Inactive)
ROOT
HETATM    1  O   UNK N   1      23.059  13.744   8.244  0.00  0.00    -0.325 OA
HETATM    2  O   UNK N   1      19.454  15.075   9.313  0.00  0.00    -0.267 OA
HETATM    3  N   UNK N   1      21.035  13.488   9.470  0.00  0.00    -0.321 N 
HETATM    4  C   UNK N   1      22.286  12.915   9.051  0.00  0.00     0.232 C 
HETATM    5  C   UNK N   1      22.917  12.543  10.369  0.00  0.00     0.056 C 
HETATM    6  C   UNK N   1      21.701  12.075  11.190  0.00  0.00     0.024 C 
HETATM    7  C   UNK N   1      20.509  12.881  10.656  0.00  0.00     0.129 C 
HETATM    8  C   UNK N   1      20.513  14.612   8.913  0.00  0.00     0.258 C 
HETATM    9  C   UNK N   1      21.262  15.274   7.841  0.00  0.00     0.068 A 
HETATM   10  C   UNK N   1      22.556  14.806   7.565  0.00  0.00     0.090 A 
HETATM   11  C   UNK N   1      23.319  15.421   6.569  0.00  0.00     0.077 A 
HETATM   12  C   UNK N   1      22.786  16.485   5.835  0.00  0.00     0.104 A 
HETATM   13  C   UNK N   1      21.498  16.952   6.111  0.00  0.00     0.103 A 
HETATM   14  C   UNK N   1      20.738  16.356   7.121  0.00  0.00     0.059 A 
HETATM   15  O   UNK N   1      23.511  17.048   4.846  0.00  0.00    -0.346 OA
HETATM   16  O   UNK N   1      20.987  17.980   5.402  0.00  0.00    -0.346 OA
HETATM   17  C   UNK N   1      21.676  18.653   4.405  0.00  0.00     0.202 C 
HETATM   18  C   UNK N   1      23.032  18.036   4.002  0.00  0.00     0.202 C 
ENDROOT
TORSDOF 0
ENDMDL
MODEL 9
REMARK VINA RESULT:      -5.8     11.856     15.071
REMARK  0 active torsions:
REMARK  status: ('A' for Active; 'I' for Inactive)
ROOT
HETATM    1  O   UNK N   1      22.451  20.201   3.252  0.00  0.00    -0.325 OA
HETATM    2  O   UNK N   1      22.214  16.322   4.150  0.00  0.00    -0.267 OA
HETATM    3  N   UNK N   1      21.160  18.249   3.683  0.00  0.00    -0.321 N 
HETATM    4  C   UNK N   1      21.181  19.668   3.446  0.00  0.00     0.232 C 
HETATM    5  C   UNK N   1      20.248  19.803   2.269  0.00  0.00     0.056 C 
HETATM    6  C   UNK N   1      19.172  18.747   2.585  0.00  0.00     0.024 C 
HETATM    7  C   UNK N   1      19.895  17.649   3.378  0.00  0.00     0.129 C 
HETATM    8  C   UNK N   1      22.276  17.532   3.974  0.00  0.00     0.258 C 
HETATM    9  C   UNK N   1      23.561  18.234   4.044  0.00  0.00     0.068 A 
HETATM   10  C   UNK N   1      23.591  19.577   3.641  0.00  0.00     0.090 A 
HETATM   11  C   UNK N   1      24.798  20.282   3.667  0.00  0.00     0.077 A 
HETATM   12  C   UNK N   1      25.966  19.656   4.112  0.00  0.00     0.104 A 
HETATM   13  C   UNK N   1      25.936  18.317   4.512  0.00  0.00     0.103 A 
HETATM   14  C   UNK N   1      24.736  17.600   4.468  0.00  0.00     0.059 A 
HETATM   15  O   UNK N   1      27.119  20.352   4.174  0.00  0.00    -0.346 OA
HETATM   16  O   UNK N   1      27.064  17.715   4.940  0.00  0.00    -0.346 OA
HETATM   17  C   UNK N   1      28.303  18.334   4.989  0.00  0.00     0.202 C 
HETATM   18  C   UNK N   1      28.300  19.849   4.695  0.00  0.00     0.202 C 
ENDROOT
TORSDOF 0
ENDMDL
