MODEL 1
REMARK VINA RESULT:      -7.5      0.000      0.000
REMARK  7 active torsions:
REMARK  status: ('A' for Active; 'I' for Inactive)
REMARK    1  A    between atoms: C_6  and  N_7 
REMARK    2  A    between atoms: N_7  and  C_8 
REMARK    3  A    between atoms: C_8  and  C_9 
REMARK    4  A    between atoms: C_9  and  N_10 
REMARK    5  A    between atoms: C_16  and  C_20 
REMARK    6  A    between atoms: C_23  and  O_27 
REMARK    7  A    between atoms: C_25  and  O_26 
ROOT
HETATM    1  C   UNK N   1      35.667  14.713  11.332  0.00  0.00     0.032 A 
HETATM    2  C   UNK N   1      36.026  16.049  11.078  0.00  0.00     0.042 A 
HETATM    3  C   UNK N   1      35.305  16.731  10.106  0.00  0.00     0.111 A 
HETATM    4  C   UNK N   1      34.288  16.153   9.401  0.00  0.00     0.031 A 
HETATM    5  C   UNK N   1      33.919  14.834   9.631  0.00  0.00     0.045 A 
HETATM    6  C   UNK N   1      34.617  14.105  10.608  0.00  0.00     0.029 A 
HETATM    7  C   UNK N   1      33.805  17.153   8.573  0.00  0.00     0.081 A 
HETATM    8  N   UNK N   1      34.541  18.269   8.817  0.00  0.00    -0.259 N 
ATOM      9  HN  UNK N   1      34.423  19.175   8.365  1.00  0.00     0.195 HD
HETATM   10  O   UNK N   1      35.429  17.978   9.729  0.00  0.00    -0.237 OA
ENDROOT
BRANCH   7  11
HETATM   11  C   UNK N   1      32.666  17.148   7.607  0.00  0.00     0.028 A 
HETATM   12  C   UNK N   1      32.990  17.235   6.244  0.00  0.00     0.043 A 
HETATM   13  C   UNK N   1      31.999  17.278   5.263  0.00  0.00     0.068 A 
HETATM   14  C   UNK N   1      30.651  17.224   5.633  0.00  0.00     0.090 A 
HETATM   15 Cl   UNK N   1      32.463  17.410   3.578  0.00  0.00    -0.081 Cl
HETATM   16  C   UNK N   1      30.307  17.120   6.978  0.00  0.00     0.075 A 
HETATM   17  C   UNK N   1      31.292  17.081   7.967  0.00  0.00     0.081 A 
BRANCH  14  18
HETATM   18  O   UNK N   1      29.685  17.273   4.701  0.00  0.00    -0.359 OA
HETATM   19  H   UNK N   1      28.967  17.866   4.801  0.00  0.00     0.217 HD
ENDBRANCH  14  18
BRANCH  17  20
HETATM   20  O   UNK N   1      30.894  16.960   9.240  0.00  0.00    -0.360 OA
HETATM   21  H   UNK N   1      31.035  16.157   9.703  0.00  0.00     0.217 HD
ENDBRANCH  17  20
ENDBRANCH   7  11
BRANCH   6  22
HETATM   22  N   UNK N   1      34.269  12.767  10.891  0.00  0.00    -0.388 N 
HETATM   23  H   UNK N   1      33.361  12.461  10.667  0.00  0.00     0.159 HD
BRANCH  22  24
HETATM   24  C   UNK N   1      35.184  11.824  11.493  0.00  0.00     0.150 C 
BRANCH  24  25
HETATM   25  C   UNK N   1      34.610  11.339  12.820  0.00  0.00     0.292 C 
BRANCH  25  26
HETATM   26  N   UNK N   1      34.891  12.323  13.855  0.00  0.00     0.094 N 
HETATM   27  C   UNK N   1      34.259  11.931  15.109  0.00  0.00     0.298 C 
HETATM   28  C   UNK N   1      34.634  12.973  16.170  0.00  0.00     0.198 C 
HETATM   29  O   UNK N   1      36.033  12.983  16.353  0.00  0.00    -0.388 OA
HETATM   30  C   UNK N   1      36.615  13.425  15.150  0.00  0.00     0.198 C 
HETATM   31  C   UNK N   1      36.340  12.399  14.054  0.00  0.00     0.298 C 
ENDBRANCH  25  26
ENDBRANCH  24  25
ENDBRANCH  22  24
ENDBRANCH   6  22
TORSDOF 7
ENDMDL
MODEL 2
REMARK VINA RESULT:      -7.4     16.141     19.718
REMARK  7 active torsions:
REMARK  status: ('A' for Active; 'I' for Inactive)
REMARK    1  A    between atoms: C_6  and  N_7 
REMARK    2  A    between atoms: N_7  and  C_8 
REMARK    3  A    between atoms: C_8  and  C_9 
REMARK    4  A    between atoms: C_9  and  N_10 
REMARK    5  A    between atoms: C_16  and  C_20 
REMARK    6  A    between atoms: C_23  and  O_27 
REMARK    7  A    between atoms: C_25  and  O_26 
ROOT
HETATM    1  C   UNK N   1      24.991  27.702  -4.959  0.00  0.00     0.032 A 
HETATM    2  C   UNK N   1      24.830  26.578  -5.789  0.00  0.00     0.042 A 
HETATM    3  C   UNK N   1      25.728  25.530  -5.626  0.00  0.00     0.111 A 
HETATM    4  C   UNK N   1      26.743  25.564  -4.712  0.00  0.00     0.031 A 
HETATM    5  C   UNK N   1      26.923  26.665  -3.887  0.00  0.00     0.045 A 
HETATM    6  C   UNK N   1      26.037  27.748  -4.011  0.00  0.00     0.029 A 
HETATM    7  C   UNK N   1      27.378  24.338  -4.830  0.00  0.00     0.081 A 
HETATM    8  N   UNK N   1      26.724  23.635  -5.791  0.00  0.00    -0.259 N 
ATOM      9  HN  UNK N   1      26.953  22.692  -6.104  1.00  0.00     0.195 HD
HETATM   10  O   UNK N   1      25.753  24.379  -6.248  0.00  0.00    -0.237 OA
ENDROOT
BRANCH   7  11
HETATM   11  C   UNK N   1      28.523  23.761  -4.064  0.00  0.00     0.028 A 
HETATM   12  C   UNK N   1      29.719  23.555  -4.770  0.00  0.00     0.043 A 
HETATM   13  C   UNK N   1      30.835  22.985  -4.158  0.00  0.00     0.068 A 
HETATM   14  C   UNK N   1      30.777  22.616  -2.810  0.00  0.00     0.090 A 
HETATM   15 Cl   UNK N   1      32.294  22.730  -5.096  0.00  0.00    -0.081 Cl
HETATM   16  C   UNK N   1      29.607  22.827  -2.085  0.00  0.00     0.075 A 
HETATM   17  C   UNK N   1      28.483  23.393  -2.691  0.00  0.00     0.081 A 
BRANCH  14  18
HETATM   18  O   UNK N   1      31.840  22.058  -2.208  0.00  0.00    -0.359 OA
HETATM   19  H   UNK N   1      32.050  21.159  -2.366  0.00  0.00     0.217 HD
ENDBRANCH  14  18
BRANCH  17  20
HETATM   20  O   UNK N   1      27.397  23.589  -1.932  0.00  0.00    -0.360 OA
HETATM   21  H   UNK N   1      26.750  22.915  -1.853  0.00  0.00     0.217 HD
ENDBRANCH  17  20
ENDBRANCH   7  11
BRANCH   6  22
HETATM   22  N   UNK N   1      26.168  28.883  -3.183  0.00  0.00    -0.388 N 
HETATM   23  H   UNK N   1      26.041  28.773  -2.213  0.00  0.00     0.159 HD
BRANCH  22  24
HETATM   24  C   UNK N   1      26.480  30.198  -3.692  0.00  0.00     0.150 C 
BRANCH  24  25
HETATM   25  C   UNK N   1      27.935  30.232  -4.150  0.00  0.00     0.292 C 
BRANCH  25  26
HETATM   26  N   UNK N   1      28.783  29.690  -3.099  0.00  0.00     0.094 N 
HETATM   27  C   UNK N   1      30.021  29.170  -3.668  0.00  0.00     0.298 C 
HETATM   28  C   UNK N   1      30.893  28.665  -2.513  0.00  0.00     0.198 C 
HETATM   29  O   UNK N   1      31.208  29.736  -1.650  0.00  0.00    -0.388 OA
HETATM   30  C   UNK N   1      30.006  30.178  -1.066  0.00  0.00     0.198 C 
HETATM   31  C   UNK N   1      29.106  30.761  -2.154  0.00  0.00     0.298 C 
ENDBRANCH  25  26
ENDBRANCH  24  25
ENDBRANCH  22  24
ENDBRANCH   6  22
TORSDOF 7
ENDMDL
MODEL 3
REMARK VINA RESULT:      -7.2      8.043     11.899
REMARK  7 active torsions:
REMARK  status: ('A' for Active; 'I' for Inactive)
REMARK    1  A    between atoms: C_6  and  N_7 
REMARK    2  A    between atoms: N_7  and  C_8 
REMARK    3  A    between atoms: C_8  and  C_9 
REMARK    4  A    between atoms: C_9  and  N_10 
REMARK    5  A    between atoms: C_16  and  C_20 
REMARK    6  A    between atoms: C_23  and  O_27 
REMARK    7  A    between atoms: C_25  and  O_26 
ROOT
HETATM    1  C   UNK N   1      26.266  20.049   3.499  0.00  0.00     0.032 A 
HETATM    2  C   UNK N   1      25.246  20.843   2.944  0.00  0.00     0.042 A 
HETATM    3  C   UNK N   1      23.939  20.393   3.083  0.00  0.00     0.111 A 
HETATM    4  C   UNK N   1      23.625  19.226   3.720  0.00  0.00     0.031 A 
HETATM    5  C   UNK N   1      24.615  18.425   4.271  0.00  0.00     0.045 A 
HETATM    6  C   UNK N   1      25.953  18.841   4.160  0.00  0.00     0.029 A 
HETATM    7  C   UNK N   1      22.242  19.153   3.683  0.00  0.00     0.081 A 
HETATM    8  N   UNK N   1      21.796  20.263   3.039  0.00  0.00    -0.259 N 
ATOM      9  HN  UNK N   1      20.821  20.499   2.857  1.00  0.00     0.195 HD
HETATM   10  O   UNK N   1      22.834  20.973   2.689  0.00  0.00    -0.237 OA
ENDROOT
BRANCH   7  11
HETATM   11  C   UNK N   1      21.308  18.139   4.259  0.00  0.00     0.028 A 
HETATM   12  C   UNK N   1      21.446  17.855   5.627  0.00  0.00     0.043 A 
HETATM   13  C   UNK N   1      20.649  16.896   6.253  0.00  0.00     0.068 A 
HETATM   14  C   UNK N   1      19.684  16.204   5.515  0.00  0.00     0.090 A 
HETATM   15 Cl   UNK N   1      20.882  16.566   7.959  0.00  0.00    -0.081 Cl
HETATM   16  C   UNK N   1      19.518  16.482   4.161  0.00  0.00     0.075 A 
HETATM   17  C   UNK N   1      20.314  17.437   3.524  0.00  0.00     0.081 A 
BRANCH  14  18
HETATM   18  O   UNK N   1      18.914  15.271   6.101  0.00  0.00    -0.359 OA
HETATM   19  H   UNK N   1      18.402  15.492   6.853  0.00  0.00     0.217 HD
ENDBRANCH  14  18
BRANCH  17  20
HETATM   20  O   UNK N   1      20.089  17.672   2.225  0.00  0.00    -0.360 OA
HETATM   21  H   UNK N   1      20.178  16.980   1.599  0.00  0.00     0.217 HD
ENDBRANCH  17  20
ENDBRANCH   7  11
BRANCH   6  22
HETATM   22  N   UNK N   1      26.994  18.069   4.718  0.00  0.00    -0.388 N 
HETATM   23  H   UNK N   1      27.378  17.341   4.179  0.00  0.00     0.159 HD
BRANCH  22  24
HETATM   24  C   UNK N   1      27.523  18.298   6.042  0.00  0.00     0.150 C 
BRANCH  24  25
HETATM   25  C   UNK N   1      27.723  16.960   6.746  0.00  0.00     0.292 C 
BRANCH  25  26
HETATM   26  N   UNK N   1      28.676  17.125   7.833  0.00  0.00     0.094 N 
HETATM   27  C   UNK N   1      30.037  17.158   7.311  0.00  0.00     0.298 C 
HETATM   28  C   UNK N   1      30.988  17.388   8.491  0.00  0.00     0.198 C 
HETATM   29  O   UNK N   1      30.706  18.631   9.094  0.00  0.00    -0.388 OA
HETATM   30  C   UNK N   1      29.413  18.552   9.646  0.00  0.00     0.198 C 
HETATM   31  C   UNK N   1      28.398  18.390   8.517  0.00  0.00     0.298 C 
ENDBRANCH  25  26
ENDBRANCH  24  25
ENDBRANCH  22  24
ENDBRANCH   6  22
TORSDOF 7
ENDMDL
MODEL 4
REMARK VINA RESULT:      -7.1      7.816     11.815
REMARK  7 active torsions:
REMARK  status: ('A' for Active; 'I' for Inactive)
REMARK    1  A    between atoms: C_6  and  N_7 
REMARK    2  A    between atoms: N_7  and  C_8 
REMARK    3  A    between atoms: C_8  and  C_9 
REMARK    4  A    between atoms: C_9  and  N_10 
REMARK    5  A    between atoms: C_16  and  C_20 
REMARK    6  A    between atoms: C_23  and  O_27 
REMARK    7  A    between atoms: C_25  and  O_26 
ROOT
HETATM    1  C   UNK N   1      25.609  19.970   3.035  0.00  0.00     0.032 A 
HETATM    2  C   UNK N   1      24.336  20.519   2.798  0.00  0.00     0.042 A 
HETATM    3  C   UNK N   1      23.246  19.881   3.379  0.00  0.00     0.111 A 
HETATM    4  C   UNK N   1      23.372  18.759   4.147  0.00  0.00     0.031 A 
HETATM    5  C   UNK N   1      24.618  18.197   4.391  0.00  0.00     0.045 A 
HETATM    6  C   UNK N   1      25.751  18.809   3.829  0.00  0.00     0.029 A 
HETATM    7  C   UNK N   1      22.087  18.458   4.565  0.00  0.00     0.081 A 
HETATM    8  N   UNK N   1      21.261  19.400   4.038  0.00  0.00    -0.259 N 
ATOM      9  HN  UNK N   1      20.250  19.453   4.170  1.00  0.00     0.195 HD
HETATM   10  O   UNK N   1      21.985  20.226   3.332  0.00  0.00    -0.237 OA
ENDROOT
BRANCH   7  11
HETATM   11  C   UNK N   1      21.587  17.379   5.468  0.00  0.00     0.028 A 
HETATM   12  C   UNK N   1      21.693  16.060   4.999  0.00  0.00     0.043 A 
HETATM   13  C   UNK N   1      21.220  14.982   5.748  0.00  0.00     0.068 A 
HETATM   14  C   UNK N   1      20.634  15.208   6.998  0.00  0.00     0.090 A 
HETATM   15 Cl   UNK N   1      21.360  13.359   5.102  0.00  0.00    -0.081 Cl
HETATM   16  C   UNK N   1      20.533  16.506   7.490  0.00  0.00     0.075 A 
HETATM   17  C   UNK N   1      21.000  17.591   6.746  0.00  0.00     0.081 A 
BRANCH  14  18
HETATM   18  O   UNK N   1      20.166  14.181   7.728  0.00  0.00    -0.359 OA
HETATM   19  H   UNK N   1      20.627  13.366   7.740  0.00  0.00     0.217 HD
ENDBRANCH  14  18
BRANCH  17  20
HETATM   20  O   UNK N   1      20.892  18.812   7.286  0.00  0.00    -0.360 OA
HETATM   21  H   UNK N   1      21.565  19.138   7.851  0.00  0.00     0.217 HD
ENDBRANCH  17  20
ENDBRANCH   7  11
BRANCH   6  22
HETATM   22  N   UNK N   1      27.040  18.286   4.061  0.00  0.00    -0.388 N 
HETATM   23  H   UNK N   1      27.377  17.585   3.458  0.00  0.00     0.159 HD
BRANCH  22  24
HETATM   24  C   UNK N   1      27.889  18.731   5.141  0.00  0.00     0.150 C 
BRANCH  24  25
HETATM   25  C   UNK N   1      28.913  17.646   5.460  0.00  0.00     0.292 C 
BRANCH  25  26
HETATM   26  N   UNK N   1      28.993  17.468   6.903  0.00  0.00     0.094 N 
HETATM   27  C   UNK N   1      30.385  17.368   7.323  0.00  0.00     0.298 C 
HETATM   28  C   UNK N   1      30.408  17.237   8.850  0.00  0.00     0.198 C 
HETATM   29  O   UNK N   1      29.841  18.389   9.434  0.00  0.00    -0.388 OA
HETATM   30  C   UNK N   1      28.482  18.427   9.067  0.00  0.00     0.198 C 
HETATM   31  C   UNK N   1      28.379  18.625   7.556  0.00  0.00     0.298 C 
ENDBRANCH  25  26
ENDBRANCH  24  25
ENDBRANCH  22  24
ENDBRANCH   6  22
TORSDOF 7
ENDMDL
MODEL 5
REMARK VINA RESULT:      -7.1      1.543      2.045
REMARK  7 active torsions:
REMARK  status: ('A' for Active; 'I' for Inactive)
REMARK    1  A    between atoms: C_6  and  N_7 
REMARK    2  A    between atoms: N_7  and  C_8 
REMARK    3  A    between atoms: C_8  and  C_9 
REMARK    4  A    between atoms: C_9  and  N_10 
REMARK    5  A    between atoms: C_16  and  C_20 
REMARK    6  A    between atoms: C_23  and  O_27 
REMARK    7  A    between atoms: C_25  and  O_26 
ROOT
HETATM    1  C   UNK N   1      35.548  14.176  11.671  0.00  0.00     0.032 A 
HETATM    2  C   UNK N   1      35.954  15.520  11.596  0.00  0.00     0.042 A 
HETATM    3  C   UNK N   1      35.405  16.298  10.583  0.00  0.00     0.111 A 
HETATM    4  C   UNK N   1      34.511  15.803   9.676  0.00  0.00     0.031 A 
HETATM    5  C   UNK N   1      34.099  14.478   9.730  0.00  0.00     0.045 A 
HETATM    6  C   UNK N   1      34.623  13.654  10.739  0.00  0.00     0.029 A 
HETATM    7  C   UNK N   1      34.176  16.879   8.871  0.00  0.00     0.081 A 
HETATM    8  N   UNK N   1      34.872  17.955   9.326  0.00  0.00    -0.259 N 
ATOM      9  HN  UNK N   1      34.836  18.899   8.941  1.00  0.00     0.195 HD
HETATM   10  O   UNK N   1      35.598  17.569  10.340  0.00  0.00    -0.237 OA
ENDROOT
BRANCH   7  11
HETATM   11  C   UNK N   1      33.209  16.981   7.739  0.00  0.00     0.028 A 
HETATM   12  C   UNK N   1      31.862  17.197   8.072  0.00  0.00     0.043 A 
HETATM   13  C   UNK N   1      30.873  17.267   7.091  0.00  0.00     0.068 A 
HETATM   14  C   UNK N   1      31.219  17.131   5.743  0.00  0.00     0.090 A 
HETATM   15 Cl   UNK N   1      29.204  17.516   7.569  0.00  0.00    -0.081 Cl
HETATM   16  C   UNK N   1      32.550  16.934   5.388  0.00  0.00     0.075 A 
HETATM   17  C   UNK N   1      33.547  16.857   6.363  0.00  0.00     0.081 A 
BRANCH  14  18
HETATM   18  O   UNK N   1      30.277  17.189   4.787  0.00  0.00    -0.359 OA
HETATM   19  H   UNK N   1      30.415  17.715   4.024  0.00  0.00     0.217 HD
ENDBRANCH  14  18
BRANCH  17  20
HETATM   20  O   UNK N   1      34.811  16.688   5.953  0.00  0.00    -0.360 OA
HETATM   21  H   UNK N   1      35.064  15.893   5.525  0.00  0.00     0.217 HD
ENDBRANCH  17  20
ENDBRANCH   7  11
BRANCH   6  22
HETATM   22  N   UNK N   1      34.224  12.305  10.845  0.00  0.00    -0.388 N 
HETATM   23  H   UNK N   1      33.347  12.046  10.483  0.00  0.00     0.159 HD
BRANCH  22  24
HETATM   24  C   UNK N   1      35.043  11.286  11.459  0.00  0.00     0.150 C 
BRANCH  24  25
HETATM   25  C   UNK N   1      34.324  10.729  12.684  0.00  0.00     0.292 C 
BRANCH  25  26
HETATM   26  N   UNK N   1      35.157  10.925  13.862  0.00  0.00     0.094 N 
HETATM   27  C   UNK N   1      36.538  11.173  13.467  0.00  0.00     0.298 C 
HETATM   28  C   UNK N   1      37.353  11.424  14.740  0.00  0.00     0.198 C 
HETATM   29  O   UNK N   1      36.861  12.568  15.403  0.00  0.00    -0.388 OA
HETATM   30  C   UNK N   1      35.550  12.280  15.829  0.00  0.00     0.198 C 
HETATM   31  C   UNK N   1      34.659  12.083  14.606  0.00  0.00     0.298 C 
ENDBRANCH  25  26
ENDBRANCH  24  25
ENDBRANCH  22  24
ENDBRANCH   6  22
TORSDOF 7
ENDMDL
MODEL 6
REMARK VINA RESULT:      -7.0      8.731     12.229
REMARK  7 active torsions:
REMARK  status: ('A' for Active; 'I' for Inactive)
REMARK    1  A    between atoms: C_6  and  N_7 
REMARK    2  A    between atoms: N_7  and  C_8 
REMARK    3  A    between atoms: C_8  and  C_9 
REMARK    4  A    between atoms: C_9  and  N_10 
REMARK    5  A    between atoms: C_16  and  C_20 
REMARK    6  A    between atoms: C_23  and  O_27 
REMARK    7  A    between atoms: C_25  and  O_26 
ROOT
HETATM    1  C   UNK N   1      21.581  19.470   3.429  0.00  0.00     0.032 A 
HETATM    2  C   UNK N   1      22.392  20.340   2.677  0.00  0.00     0.042 A 
HETATM    3  C   UNK N   1      23.759  20.318   2.927  0.00  0.00     0.111 A 
HETATM    4  C   UNK N   1      24.322  19.501   3.866  0.00  0.00     0.031 A 
HETATM    5  C   UNK N   1      23.542  18.637   4.622  0.00  0.00     0.045 A 
HETATM    6  C   UNK N   1      22.154  18.621   4.401  0.00  0.00     0.029 A 
HETATM    7  C   UNK N   1      25.684  19.741   3.785  0.00  0.00     0.081 A 
HETATM    8  N   UNK N   1      25.872  20.675   2.816  0.00  0.00    -0.259 N 
ATOM      9  HN  UNK N   1      26.770  21.057   2.518  1.00  0.00     0.195 HD
HETATM   10  O   UNK N   1      24.704  21.000   2.333  0.00  0.00    -0.237 OA
ENDROOT
BRANCH   7  11
HETATM   11  C   UNK N   1      26.825  19.115   4.518  0.00  0.00     0.028 A 
HETATM   12  C   UNK N   1      27.639  18.233   3.790  0.00  0.00     0.043 A 
HETATM   13  C   UNK N   1      28.707  17.566   4.391  0.00  0.00     0.068 A 
HETATM   14  C   UNK N   1      28.988  17.781   5.744  0.00  0.00     0.090 A 
HETATM   15 Cl   UNK N   1      29.674  16.458   3.438  0.00  0.00    -0.081 Cl
HETATM   16  C   UNK N   1      28.205  18.665   6.481  0.00  0.00     0.075 A 
HETATM   17  C   UNK N   1      27.131  19.334   5.889  0.00  0.00     0.081 A 
BRANCH  14  18
HETATM   18  O   UNK N   1      30.008  17.140   6.340  0.00  0.00    -0.359 OA
HETATM   19  H   UNK N   1      30.880  17.243   6.014  0.00  0.00     0.217 HD
ENDBRANCH  14  18
BRANCH  17  20
HETATM   20  O   UNK N   1      26.432  20.187   6.648  0.00  0.00    -0.360 OA
HETATM   21  H   UNK N   1      25.547  20.401   6.424  0.00  0.00     0.217 HD
ENDBRANCH  17  20
ENDBRANCH   7  11
BRANCH   6  22
HETATM   22  N   UNK N   1      21.320  17.750   5.133  0.00  0.00    -0.388 N 
HETATM   23  H   UNK N   1      20.419  17.562   4.786  0.00  0.00     0.159 HD
BRANCH  22  24
HETATM   24  C   UNK N   1      21.727  17.121   6.368  0.00  0.00     0.150 C 
BRANCH  24  25
HETATM   25  C   UNK N   1      22.071  15.659   6.103  0.00  0.00     0.292 C 
BRANCH  25  26
HETATM   26  N   UNK N   1      21.974  14.908   7.347  0.00  0.00     0.094 N 
HETATM   27  C   UNK N   1      20.871  15.412   8.155  0.00  0.00     0.298 C 
HETATM   28  C   UNK N   1      20.785  14.552   9.421  0.00  0.00     0.198 C 
HETATM   29  O   UNK N   1      20.512  13.213   9.069  0.00  0.00    -0.388 OA
HETATM   30  C   UNK N   1      21.619  12.731   8.345  0.00  0.00     0.198 C 
HETATM   31  C   UNK N   1      21.729  13.500   7.031  0.00  0.00     0.298 C 
ENDBRANCH  25  26
ENDBRANCH  24  25
ENDBRANCH  22  24
ENDBRANCH   6  22
TORSDOF 7
ENDMDL
MODEL 7
REMARK VINA RESULT:      -6.9      9.096     13.599
REMARK  7 active torsions:
REMARK  status: ('A' for Active; 'I' for Inactive)
REMARK    1  A    between atoms: C_6  and  N_7 
REMARK    2  A    between atoms: N_7  and  C_8 
REMARK    3  A    between atoms: C_8  and  C_9 
REMARK    4  A    between atoms: C_9  and  N_10 
REMARK    5  A    between atoms: C_16  and  C_20 
REMARK    6  A    between atoms: C_23  and  O_27 
REMARK    7  A    between atoms: C_25  and  O_26 
ROOT
HETATM    1  C   UNK N   1      21.339  19.492   3.540  0.00  0.00     0.032 A 
HETATM    2  C   UNK N   1      22.121  20.299   2.694  0.00  0.00     0.042 A 
HETATM    3  C   UNK N   1      23.497  20.281   2.886  0.00  0.00     0.111 A 
HETATM    4  C   UNK N   1      24.096  19.526   3.854  0.00  0.00     0.031 A 
HETATM    5  C   UNK N   1      23.344  18.725   4.702  0.00  0.00     0.045 A 
HETATM    6  C   UNK N   1      21.948  18.708   4.544  0.00  0.00     0.029 A 
HETATM    7  C   UNK N   1      25.455  19.747   3.698  0.00  0.00     0.081 A 
HETATM    8  N   UNK N   1      25.607  20.608   2.658  0.00  0.00    -0.259 N 
ATOM      9  HN  UNK N   1      26.493  20.960   2.295  1.00  0.00     0.195 HD
HETATM   10  O   UNK N   1      24.420  20.910   2.205  0.00  0.00    -0.237 OA
ENDROOT
BRANCH   7  11
HETATM   11  C   UNK N   1      26.623  19.163   4.423  0.00  0.00     0.028 A 
HETATM   12  C   UNK N   1      27.428  18.262   3.707  0.00  0.00     0.043 A 
HETATM   13  C   UNK N   1      28.519  17.632   4.304  0.00  0.00     0.068 A 
HETATM   14  C   UNK N   1      28.834  17.901   5.640  0.00  0.00     0.090 A 
HETATM   15 Cl   UNK N   1      29.475  16.499   3.368  0.00  0.00    -0.081 Cl
HETATM   16  C   UNK N   1      28.060  18.804   6.364  0.00  0.00     0.075 A 
HETATM   17  C   UNK N   1      26.962  19.437   5.776  0.00  0.00     0.081 A 
BRANCH  14  18
HETATM   18  O   UNK N   1      29.877  17.296   6.232  0.00  0.00    -0.359 OA
HETATM   19  H   UNK N   1      30.455  17.789   6.781  0.00  0.00     0.217 HD
ENDBRANCH  14  18
BRANCH  17  20
HETATM   20  O   UNK N   1      26.272  20.310   6.521  0.00  0.00    -0.360 OA
HETATM   21  H   UNK N   1      26.686  20.746   7.240  0.00  0.00     0.217 HD
ENDBRANCH  17  20
ENDBRANCH   7  11
BRANCH   6  22
HETATM   22  N   UNK N   1      21.141  17.898   5.371  0.00  0.00    -0.388 N 
HETATM   23  H   UNK N   1      21.090  18.112   6.331  0.00  0.00     0.159 HD
BRANCH  22  24
HETATM   24  C   UNK N   1      20.387  16.770   4.877  0.00  0.00     0.150 C 
BRANCH  24  25
HETATM   25  C   UNK N   1      21.316  15.571   4.717  0.00  0.00     0.292 C 
BRANCH  25  26
HETATM   26  N   UNK N   1      21.171  15.025   3.375  0.00  0.00     0.094 N 
HETATM   27  C   UNK N   1      20.111  15.724   2.658  0.00  0.00     0.298 C 
HETATM   28  C   UNK N   1      20.042  15.146   1.240  0.00  0.00     0.198 C 
HETATM   29  O   UNK N   1      21.265  15.374   0.574  0.00  0.00    -0.388 OA
HETATM   30  C   UNK N   1      22.259  14.638   1.246  0.00  0.00     0.198 C 
HETATM   31  C   UNK N   1      22.433  15.204   2.654  0.00  0.00     0.298 C 
ENDBRANCH  25  26
ENDBRANCH  24  25
ENDBRANCH  22  24
ENDBRANCH   6  22
TORSDOF 7
ENDMDL
MODEL 8
REMARK VINA RESULT:      -6.9     10.378     13.778
REMARK  7 active torsions:
REMARK  status: ('A' for Active; 'I' for Inactive)
REMARK    1  A    between atoms: C_6  and  N_7 
REMARK    2  A    between atoms: N_7  and  C_8 
REMARK    3  A    between atoms: C_8  and  C_9 
REMARK    4  A    between atoms: C_9  and  N_10 
REMARK    5  A    between atoms: C_16  and  C_20 
REMARK    6  A    between atoms: C_23  and  O_27 
REMARK    7  A    between atoms: C_25  and  O_26 
ROOT
HETATM    1  C   UNK N   1      19.892  19.459   2.738  0.00  0.00     0.032 A 
HETATM    2  C   UNK N   1      20.733  20.575   2.580  0.00  0.00     0.042 A 
HETATM    3  C   UNK N   1      22.074  20.416   2.908  0.00  0.00     0.111 A 
HETATM    4  C   UNK N   1      22.584  19.239   3.377  0.00  0.00     0.031 A 
HETATM    5  C   UNK N   1      21.771  18.126   3.544  0.00  0.00     0.045 A 
HETATM    6  C   UNK N   1      20.409  18.236   3.221  0.00  0.00     0.029 A 
HETATM    7  C   UNK N   1      23.939  19.471   3.545  0.00  0.00     0.081 A 
HETATM    8  N   UNK N   1      24.177  20.756   3.174  0.00  0.00    -0.259 N 
ATOM      9  HN  UNK N   1      25.084  21.224   3.181  1.00  0.00     0.195 HD
HETATM   10  O   UNK N   1      23.043  21.290   2.808  0.00  0.00    -0.237 OA
ENDROOT
BRANCH   7  11
HETATM   11  C   UNK N   1      25.035  18.553   3.980  0.00  0.00     0.028 A 
HETATM   12  C   UNK N   1      25.252  17.409   3.196  0.00  0.00     0.043 A 
HETATM   13  C   UNK N   1      26.224  16.469   3.537  0.00  0.00     0.068 A 
HETATM   14  C   UNK N   1      27.011  16.664   4.676  0.00  0.00     0.090 A 
HETATM   15 Cl   UNK N   1      26.434  15.047   2.533  0.00  0.00    -0.081 Cl
HETATM   16  C   UNK N   1      26.825  17.800   5.459  0.00  0.00     0.075 A 
HETATM   17  C   UNK N   1      25.851  18.745   5.128  0.00  0.00     0.081 A 
BRANCH  14  18
HETATM   18  O   UNK N   1      27.946  15.763   5.023  0.00  0.00    -0.359 OA
HETATM   19  H   UNK N   1      28.412  15.293   4.361  0.00  0.00     0.217 HD
ENDBRANCH  14  18
BRANCH  17  20
HETATM   20  O   UNK N   1      25.738  19.826   5.910  0.00  0.00    -0.360 OA
HETATM   21  H   UNK N   1      25.339  19.755   6.756  0.00  0.00     0.217 HD
ENDBRANCH  17  20
ENDBRANCH   7  11
BRANCH   6  22
HETATM   22  N   UNK N   1      19.545  17.129   3.359  0.00  0.00    -0.388 N 
HETATM   23  H   UNK N   1      18.597  17.241   3.120  0.00  0.00     0.159 HD
BRANCH  22  24
HETATM   24  C   UNK N   1      19.986  15.839   3.836  0.00  0.00     0.150 C 
BRANCH  24  25
HETATM   25  C   UNK N   1      18.993  15.314   4.868  0.00  0.00     0.292 C 
BRANCH  25  26
HETATM   26  N   UNK N   1      19.642  15.245   6.169  0.00  0.00     0.094 N 
HETATM   27  C   UNK N   1      21.088  15.362   6.019  0.00  0.00     0.298 C 
HETATM   28  C   UNK N   1      21.710  15.337   7.420  0.00  0.00     0.198 C 
HETATM   29  O   UNK N   1      21.243  16.439   8.167  0.00  0.00    -0.388 OA
HETATM   30  C   UNK N   1      19.858  16.271   8.352  0.00  0.00     0.198 C 
HETATM   31  C   UNK N   1      19.159  16.351   6.998  0.00  0.00     0.298 C 
ENDBRANCH  25  26
ENDBRANCH  24  25
ENDBRANCH  22  24
ENDBRANCH   6  22
TORSDOF 7
ENDMDL
MODEL 9
REMARK VINA RESULT:      -6.8      2.991      7.553
REMARK  7 active torsions:
REMARK  status: ('A' for Active; 'I' for Inactive)
REMARK    1  A    between atoms: C_6  and  N_7 
REMARK    2  A    between atoms: N_7  and  C_8 
REMARK    3  A    between atoms: C_8  and  C_9 
REMARK    4  A    between atoms: C_9  and  N_10 
REMARK    5  A    between atoms: C_16  and  C_20 
REMARK    6  A    between atoms: C_23  and  O_27 
REMARK    7  A    between atoms: C_25  and  O_26 
ROOT
HETATM    1  C   UNK N   1      33.843  17.909   7.173  0.00  0.00     0.032 A 
HETATM    2  C   UNK N   1      34.563  18.312   8.312  0.00  0.00     0.042 A 
HETATM    3  C   UNK N   1      34.908  17.329   9.232  0.00  0.00     0.111 A 
HETATM    4  C   UNK N   1      34.570  16.016   9.069  0.00  0.00     0.031 A 
HETATM    5  C   UNK N   1      33.857  15.596   7.955  0.00  0.00     0.045 A 
HETATM    6  C   UNK N   1      33.488  16.553   6.995  0.00  0.00     0.029 A 
HETATM    7  C   UNK N   1      35.121  15.362  10.158  0.00  0.00     0.081 A 
HETATM    8  N   UNK N   1      35.757  16.297  10.912  0.00  0.00    -0.259 N 
ATOM      9  HN  UNK N   1      36.265  16.124  11.780  1.00  0.00     0.195 HD
HETATM   10  O   UNK N   1      35.602  17.457  10.334  0.00  0.00    -0.237 OA
ENDROOT
BRANCH   7  11
HETATM   11  C   UNK N   1      35.138  13.911  10.513  0.00  0.00     0.028 A 
HETATM   12  C   UNK N   1      35.260  13.000   9.451  0.00  0.00     0.043 A 
HETATM   13  C   UNK N   1      35.246  11.623   9.670  0.00  0.00     0.068 A 
HETATM   14  C   UNK N   1      35.118  11.127  10.972  0.00  0.00     0.090 A 
HETATM   15 Cl   UNK N   1      35.379  10.533   8.303  0.00  0.00    -0.081 Cl
HETATM   16  C   UNK N   1      35.013  12.011  12.041  0.00  0.00     0.075 A 
HETATM   17  C   UNK N   1      35.021  13.392  11.831  0.00  0.00     0.081 A 
BRANCH  14  18
HETATM   18  O   UNK N   1      35.094   9.802  11.199  0.00  0.00    -0.359 OA
HETATM   19  H   UNK N   1      35.818   9.388  11.625  0.00  0.00     0.217 HD
ENDBRANCH  14  18
BRANCH  17  20
HETATM   20  O   UNK N   1      34.937  14.187  12.905  0.00  0.00    -0.360 OA
HETATM   21  H   UNK N   1      34.666  13.837  13.731  0.00  0.00     0.217 HD
ENDBRANCH  17  20
ENDBRANCH   7  11
BRANCH   6  22
HETATM   22  N   UNK N   1      32.777  16.173   5.838  0.00  0.00    -0.388 N 
HETATM   23  H   UNK N   1      33.183  15.510   5.234  0.00  0.00     0.159 HD
BRANCH  22  24
HETATM   24  C   UNK N   1      31.481  16.712   5.496  0.00  0.00     0.150 C 
BRANCH  24  25
HETATM   25  C   UNK N   1      30.469  16.314   6.566  0.00  0.00     0.292 C 
BRANCH  25  26
HETATM   26  N   UNK N   1      30.037  17.503   7.285  0.00  0.00     0.094 N 
HETATM   27  C   UNK N   1      28.587  17.635   7.218  0.00  0.00     0.298 C 
HETATM   28  C   UNK N   1      28.188  18.868   8.035  0.00  0.00     0.198 C 
HETATM   29  O   UNK N   1      28.562  18.688   9.383  0.00  0.00    -0.388 OA
HETATM   30  C   UNK N   1      29.968  18.628   9.429  0.00  0.00     0.198 C 
HETATM   31  C   UNK N   1      30.439  17.379   8.688  0.00  0.00     0.298 C 
ENDBRANCH  25  26
ENDBRANCH  24  25
ENDBRANCH  22  24
ENDBRANCH   6  22
TORSDOF 7
ENDMDL
