MODEL 1
REMARK VINA RESULT:      -7.2      0.000      0.000
REMARK  11 active torsions:
REMARK  status: ('A' for Active; 'I' for Inactive)
REMARK    1  A    between atoms: C_6  and  N_7 
REMARK    2  A    between atoms: N_7  and  C_8 
REMARK    3  A    between atoms: C_19  and  N_20 
REMARK       I    between atoms: N_20  and  C_21 
REMARK    4  A    between atoms: C_21  and  C_23 
REMARK    5  A    between atoms: C_23  and  C_24 
REMARK    6  A    between atoms: C_24  and  S_25 
REMARK    7  A    between atoms: S_25  and  C_26 
REMARK    8  A    between atoms: C_26  and  C_27 
REMARK    9  A    between atoms: C_27  and  C_28 
REMARK   10  A    between atoms: C_27  and  N_30 
REMARK   11  A    between atoms: C_28  and  O_31 
ROOT
HETATM    1  C   UNK N   1      20.987  18.467   2.768  0.00  0.00     0.119 A 
HETATM    2  C   UNK N   1      20.647  17.239   3.349  0.00  0.00     0.037 A 
HETATM    3  C   UNK N   1      20.967  16.942   4.675  0.00  0.00     0.047 A 
HETATM    4  N   UNK N   1      20.646  18.708   1.474  0.00  0.00    -0.338 N 
ATOM      5  HN  UNK N   1      20.894  19.601   1.050  1.00  0.00     0.168 HD
HETATM    6  C   UNK N   1      19.981  17.780   0.734  0.00  0.00     0.182 A 
HETATM    7  N   UNK N   1      19.671  16.569   1.271  0.00  0.00    -0.352 N 
ATOM      8  HN  UNK N   1      19.190  15.873   0.701  1.00  0.00     0.166 HD
HETATM    9  C   UNK N   1      19.994  16.276   2.554  0.00  0.00     0.047 A 
HETATM   10  C   UNK N   1      19.706  15.015   3.086  0.00  0.00     0.033 A 
HETATM   11  C   UNK N   1      20.053  14.714   4.406  0.00  0.00     0.032 A 
HETATM   12  C   UNK N   1      20.659  15.684   5.213  0.00  0.00     0.035 A 
ENDROOT
BRANCH  12  13
HETATM   13  N   UNK N   1      20.979  15.384   6.559  0.00  0.00    -0.327 N 
HETATM   14  C   UNK N   1      20.157  15.696   7.597  0.00  0.00     0.222 C 
HETATM   15  O   UNK N   1      19.016  16.085   7.388  0.00  0.00    -0.273 OA
HETATM   16  H   UNK N   1      21.831  14.930   6.753  0.00  0.00     0.169 HD
BRANCH  14  17
HETATM   17  C   UNK N   1      20.612  15.531   9.015  0.00  0.00     0.113 C 
BRANCH  17  18
HETATM   18  C   UNK N   1      20.279  14.165   9.601  0.00  0.00     0.083 C 
BRANCH  18  19
HETATM   19  S   UNK N   1      21.394  12.880   8.956  0.00  0.00    -0.166 SA
BRANCH  19  20
HETATM   20  C   UNK N   1      22.550  13.166  10.330  0.00  0.00     0.109 C 
BRANCH  20  21
HETATM   21  C   UNK N   1      22.722  11.910  11.174  0.00  0.00     0.182 C 
BRANCH  21  22
HETATM   22  C   UNK N   1      23.863  12.070  12.136  0.00  0.00     0.163 C 
HETATM   23  O   UNK N   1      23.651  12.124  13.337  0.00  0.00    -0.648 OA
BRANCH  22  24
HETATM   24  O   UNK N   1      25.128  12.138  11.679  0.00  0.00    -0.775 OA
HETATM   25  H   UNK N   1      25.527  12.878  11.264  0.00  0.00     0.167 HD
ENDBRANCH  22  24
ENDBRANCH  21  22
BRANCH  21  26
HETATM   26  N   UNK N   1      21.497  11.673  11.916  0.00  0.00    -0.417 N 
HETATM   27  H   UNK N   1      21.079  12.274  12.627  0.00  0.00     0.150 HD
HETATM   28  H   UNK N   1      20.997  10.811  11.702  0.00  0.00     0.150 HD
ENDBRANCH  21  26
ENDBRANCH  20  21
ENDBRANCH  19  20
ENDBRANCH  18  19
ENDBRANCH  17  18
ENDBRANCH  14  17
ENDBRANCH  12  13
BRANCH   1  29
HETATM   29  N   UNK N   1      21.723  19.426   3.526  0.00  0.00    -0.342 N 
HETATM   30  H   UNK N   1      21.208  20.030   4.109  0.00  0.00     0.167 HD
BRANCH  29  31
HETATM   31  C   UNK N   1      23.136  19.584   3.512  0.00  0.00     0.033 A 
HETATM   32  C   UNK N   1      23.760  20.612   2.787  0.00  0.00     0.029 A 
HETATM   33  C   UNK N   1      25.155  20.701   2.743  0.00  0.00     0.002 A 
HETATM   34  C   UNK N   1      25.935  19.757   3.414  0.00  0.00     0.000 A 
HETATM   35  C   UNK N   1      25.323  18.727   4.131  0.00  0.00     0.002 A 
HETATM   36  C   UNK N   1      23.927  18.639   4.176  0.00  0.00     0.029 A 
ENDBRANCH  29  31
ENDBRANCH   1  29
TORSDOF 11
ENDMDL
MODEL 2
REMARK VINA RESULT:      -7.2      3.171      4.771
REMARK  11 active torsions:
REMARK  status: ('A' for Active; 'I' for Inactive)
REMARK    1  A    between atoms: C_6  and  N_7 
REMARK    2  A    between atoms: N_7  and  C_8 
REMARK    3  A    between atoms: C_19  and  N_20 
REMARK       I    between atoms: N_20  and  C_21 
REMARK    4  A    between atoms: C_21  and  C_23 
REMARK    5  A    between atoms: C_23  and  C_24 
REMARK    6  A    between atoms: C_24  and  S_25 
REMARK    7  A    between atoms: S_25  and  C_26 
REMARK    8  A    between atoms: C_26  and  C_27 
REMARK    9  A    between atoms: C_27  and  C_28 
REMARK   10  A    between atoms: C_27  and  N_30 
REMARK   11  A    between atoms: C_28  and  O_31 
ROOT
HETATM    1  C   UNK N   1      26.218  18.608   4.993  0.00  0.00     0.119 A 
HETATM    2  C   UNK N   1      24.848  18.655   4.706  0.00  0.00     0.037 A 
HETATM    3  C   UNK N   1      23.939  17.804   5.336  0.00  0.00     0.047 A 
HETATM    4  N   UNK N   1      27.061  19.465   4.357  0.00  0.00    -0.338 N 
ATOM      5  HN  UNK N   1      28.059  19.430   4.564  1.00  0.00     0.168 HD
HETATM    6  C   UNK N   1      26.598  20.367   3.449  0.00  0.00     0.182 A 
HETATM    7  N   UNK N   1      25.276  20.406   3.134  0.00  0.00    -0.352 N 
ATOM      8  HN  UNK N   1      24.943  21.073   2.437  1.00  0.00     0.166 HD
HETATM    9  C   UNK N   1      24.395  19.569   3.735  0.00  0.00     0.047 A 
HETATM   10  C   UNK N   1      23.043  19.590   3.377  0.00  0.00     0.033 A 
HETATM   11  C   UNK N   1      22.141  18.716   3.991  0.00  0.00     0.032 A 
HETATM   12  C   UNK N   1      22.580  17.840   4.990  0.00  0.00     0.035 A 
ENDROOT
BRANCH  12  13
HETATM   13  N   UNK N   1      21.656  16.980   5.631  0.00  0.00    -0.327 N 
HETATM   14  C   UNK N   1      21.034  17.305   6.796  0.00  0.00     0.222 C 
HETATM   15  O   UNK N   1      21.110  18.442   7.241  0.00  0.00    -0.273 OA
HETATM   16  H   UNK N   1      21.454  16.109   5.216  0.00  0.00     0.169 HD
BRANCH  14  17
HETATM   17  C   UNK N   1      20.210  16.297   7.536  0.00  0.00     0.113 C 
BRANCH  17  18
HETATM   18  C   UNK N   1      20.961  15.622   8.677  0.00  0.00     0.083 C 
BRANCH  18  19
HETATM   19  S   UNK N   1      21.885  14.168   8.093  0.00  0.00    -0.166 SA
BRANCH  19  20
HETATM   20  C   UNK N   1      22.149  13.622   9.806  0.00  0.00     0.109 C 
BRANCH  20  21
HETATM   21  C   UNK N   1      23.056  12.400   9.860  0.00  0.00     0.182 C 
BRANCH  21  22
HETATM   22  C   UNK N   1      24.465  12.799  10.190  0.00  0.00     0.163 C 
HETATM   23  O   UNK N   1      25.124  13.445   9.390  0.00  0.00    -0.648 OA
BRANCH  22  24
HETATM   24  O   UNK N   1      25.002  12.460  11.377  0.00  0.00    -0.775 OA
HETATM   25  H   UNK N   1      25.852  12.090  11.514  0.00  0.00     0.167 HD
ENDBRANCH  22  24
ENDBRANCH  21  22
BRANCH  21  26
HETATM   26  N   UNK N   1      22.561  11.493  10.880  0.00  0.00    -0.417 N 
HETATM   27  H   UNK N   1      21.756  10.870  10.815  0.00  0.00     0.150 HD
HETATM   28  H   UNK N   1      23.077  11.477  11.760  0.00  0.00     0.150 HD
ENDBRANCH  21  26
ENDBRANCH  20  21
ENDBRANCH  19  20
ENDBRANCH  18  19
ENDBRANCH  17  18
ENDBRANCH  14  17
ENDBRANCH  12  13
BRANCH   1  29
HETATM   29  N   UNK N   1      26.714  17.636   5.912  0.00  0.00    -0.342 N 
HETATM   30  H   UNK N   1      26.162  16.834   6.061  0.00  0.00     0.167 HD
BRANCH  29  31
HETATM   31  C   UNK N   1      27.939  17.724   6.629  0.00  0.00     0.033 A 
HETATM   32  C   UNK N   1      29.072  16.985   6.255  0.00  0.00     0.029 A 
HETATM   33  C   UNK N   1      30.242  17.046   7.019  0.00  0.00     0.002 A 
HETATM   34  C   UNK N   1      30.283  17.839   8.167  0.00  0.00     0.000 A 
HETATM   35  C   UNK N   1      29.157  18.573   8.551  0.00  0.00     0.002 A 
HETATM   36  C   UNK N   1      27.988  18.512   7.785  0.00  0.00     0.029 A 
ENDBRANCH  29  31
ENDBRANCH   1  29
TORSDOF 11
ENDMDL
MODEL 3
REMARK VINA RESULT:      -7.1      4.293      8.318
REMARK  11 active torsions:
REMARK  status: ('A' for Active; 'I' for Inactive)
REMARK    1  A    between atoms: C_6  and  N_7 
REMARK    2  A    between atoms: N_7  and  C_8 
REMARK    3  A    between atoms: C_19  and  N_20 
REMARK       I    between atoms: N_20  and  C_21 
REMARK    4  A    between atoms: C_21  and  C_23 
REMARK    5  A    between atoms: C_23  and  C_24 
REMARK    6  A    between atoms: C_24  and  S_25 
REMARK    7  A    between atoms: S_25  and  C_26 
REMARK    8  A    between atoms: C_26  and  C_27 
REMARK    9  A    between atoms: C_27  and  C_28 
REMARK   10  A    between atoms: C_27  and  N_30 
REMARK   11  A    between atoms: C_28  and  O_31 
ROOT
HETATM    1  C   UNK N   1      20.944  14.636   8.301  0.00  0.00     0.119 A 
HETATM    2  C   UNK N   1      21.477  15.534   7.367  0.00  0.00     0.037 A 
HETATM    3  C   UNK N   1      22.540  15.179   6.535  0.00  0.00     0.047 A 
HETATM    4  N   UNK N   1      19.903  15.029   9.082  0.00  0.00    -0.338 N 
ATOM      5  HN  UNK N   1      19.515  14.376   9.763  1.00  0.00     0.168 HD
HETATM    6  C   UNK N   1      19.369  16.276   8.973  0.00  0.00     0.182 A 
HETATM    7  N   UNK N   1      19.894  17.172   8.095  0.00  0.00    -0.352 N 
ATOM      8  HN  UNK N   1      19.499  18.111   8.035  1.00  0.00     0.166 HD
HETATM    9  C   UNK N   1      20.936  16.832   7.297  0.00  0.00     0.047 A 
HETATM   10  C   UNK N   1      21.494  17.772   6.425  0.00  0.00     0.033 A 
HETATM   11  C   UNK N   1      22.577  17.420   5.614  0.00  0.00     0.032 A 
HETATM   12  C   UNK N   1      23.086  16.117   5.646  0.00  0.00     0.035 A 
ENDROOT
BRANCH  12  13
HETATM   13  N   UNK N   1      24.162  15.758   4.799  0.00  0.00    -0.327 N 
HETATM   14  C   UNK N   1      25.464  15.866   5.178  0.00  0.00     0.222 C 
HETATM   15  O   UNK N   1      25.751  16.103   6.343  0.00  0.00    -0.273 OA
HETATM   16  H   UNK N   1      23.960  15.416   3.897  0.00  0.00     0.169 HD
BRANCH  14  17
HETATM   17  C   UNK N   1      26.572  15.654   4.193  0.00  0.00     0.113 C 
BRANCH  17  18
HETATM   18  C   UNK N   1      27.050  16.943   3.536  0.00  0.00     0.083 C 
BRANCH  18  19
HETATM   19  S   UNK N   1      28.477  17.645   4.419  0.00  0.00    -0.166 SA
BRANCH  19  20
HETATM   20  C   UNK N   1      27.479  19.071   4.942  0.00  0.00     0.109 C 
BRANCH  20  21
HETATM   21  C   UNK N   1      27.803  19.474   6.374  0.00  0.00     0.182 C 
BRANCH  21  22
HETATM   22  C   UNK N   1      26.987  20.664   6.788  0.00  0.00     0.163 C 
HETATM   23  O   UNK N   1      26.982  21.674   6.103  0.00  0.00    -0.648 OA
BRANCH  22  24
HETATM   24  O   UNK N   1      26.244  20.616   7.910  0.00  0.00    -0.775 OA
HETATM   25  H   UNK N   1      26.221  21.263   8.587  0.00  0.00     0.167 HD
ENDBRANCH  22  24
ENDBRANCH  21  22
BRANCH  21  26
HETATM   26  N   UNK N   1      27.507  18.358   7.253  0.00  0.00    -0.417 N 
HETATM   27  H   UNK N   1      27.596  17.364   7.042  0.00  0.00     0.150 HD
HETATM   28  H   UNK N   1      27.174  18.594   8.188  0.00  0.00     0.150 HD
ENDBRANCH  21  26
ENDBRANCH  20  21
ENDBRANCH  19  20
ENDBRANCH  18  19
ENDBRANCH  17  18
ENDBRANCH  14  17
ENDBRANCH  12  13
BRANCH   1  29
HETATM   29  N   UNK N   1      21.528  13.343   8.449  0.00  0.00    -0.342 N 
HETATM   30  H   UNK N   1      21.291  12.662   7.778  0.00  0.00     0.167 HD
BRANCH  29  31
HETATM   31  C   UNK N   1      22.424  12.953   9.482  0.00  0.00     0.033 A 
HETATM   32  C   UNK N   1      23.816  12.970   9.301  0.00  0.00     0.029 A 
HETATM   33  C   UNK N   1      24.667  12.520  10.315  0.00  0.00     0.002 A 
HETATM   34  C   UNK N   1      24.133  12.042  11.513  0.00  0.00     0.000 A 
HETATM   35  C   UNK N   1      22.749  12.015  11.699  0.00  0.00     0.002 A 
HETATM   36  C   UNK N   1      21.897  12.466  10.684  0.00  0.00     0.029 A 
ENDBRANCH  29  31
ENDBRANCH   1  29
TORSDOF 11
ENDMDL
MODEL 4
REMARK VINA RESULT:      -7.0      8.255     10.871
REMARK  11 active torsions:
REMARK  status: ('A' for Active; 'I' for Inactive)
REMARK    1  A    between atoms: C_6  and  N_7 
REMARK    2  A    between atoms: N_7  and  C_8 
REMARK    3  A    between atoms: C_19  and  N_20 
REMARK       I    between atoms: N_20  and  C_21 
REMARK    4  A    between atoms: C_21  and  C_23 
REMARK    5  A    between atoms: C_23  and  C_24 
REMARK    6  A    between atoms: C_24  and  S_25 
REMARK    7  A    between atoms: S_25  and  C_26 
REMARK    8  A    between atoms: C_26  and  C_27 
REMARK    9  A    between atoms: C_27  and  C_28 
REMARK   10  A    between atoms: C_27  and  N_30 
REMARK   11  A    between atoms: C_28  and  O_31 
ROOT
HETATM    1  C   UNK N   1      28.851  17.859   5.405  0.00  0.00     0.119 A 
HETATM    2  C   UNK N   1      29.207  17.859   6.759  0.00  0.00     0.037 A 
HETATM    3  C   UNK N   1      30.277  17.099   7.235  0.00  0.00     0.047 A 
HETATM    4  N   UNK N   1      27.805  18.623   4.992  0.00  0.00    -0.338 N 
ATOM      5  HN  UNK N   1      27.545  18.623   4.006  1.00  0.00     0.168 HD
HETATM    6  C   UNK N   1      27.099  19.387   5.869  0.00  0.00     0.182 A 
HETATM    7  N   UNK N   1      27.409  19.375   7.193  0.00  0.00    -0.352 N 
ATOM      8  HN  UNK N   1      26.860  19.936   7.845  1.00  0.00     0.166 HD
HETATM    9  C   UNK N   1      28.438  18.626   7.657  0.00  0.00     0.047 A 
HETATM   10  C   UNK N   1      28.726  18.589   9.025  0.00  0.00     0.033 A 
HETATM   11  C   UNK N   1      29.781  17.805   9.500  0.00  0.00     0.032 A 
HETATM   12  C   UNK N   1      30.576  17.079   8.605  0.00  0.00     0.035 A 
ENDROOT
BRANCH  12  13
HETATM   13  N   UNK N   1      31.664  16.312   9.089  0.00  0.00    -0.327 N 
HETATM   14  C   UNK N   1      32.960  16.685   8.916  0.00  0.00     0.222 C 
HETATM   15  O   UNK N   1      33.233  17.801   8.496  0.00  0.00    -0.273 OA
HETATM   16  H   UNK N   1      31.474  15.474   9.570  0.00  0.00     0.169 HD
BRANCH  14  17
HETATM   17  C   UNK N   1      34.081  15.758   9.277  0.00  0.00     0.113 C 
BRANCH  17  18
HETATM   18  C   UNK N   1      34.865  15.260   8.068  0.00  0.00     0.083 C 
BRANCH  18  19
HETATM   19  S   UNK N   1      33.804  14.306   6.940  0.00  0.00    -0.166 SA
BRANCH  19  20
HETATM   20  C   UNK N   1      34.440  15.243   5.518  0.00  0.00     0.109 C 
BRANCH  20  21
HETATM   21  C   UNK N   1      33.302  15.822   4.688  0.00  0.00     0.182 C 
BRANCH  21  22
HETATM   22  C   UNK N   1      33.194  17.305   4.898  0.00  0.00     0.163 C 
HETATM   23  O   UNK N   1      32.360  17.953   4.285  0.00  0.00    -0.648 OA
BRANCH  22  24
HETATM   24  O   UNK N   1      34.006  17.923   5.776  0.00  0.00    -0.775 OA
HETATM   25  H   UNK N   1      33.792  18.675   6.293  0.00  0.00     0.167 HD
ENDBRANCH  22  24
ENDBRANCH  21  22
BRANCH  21  26
HETATM   26  N   UNK N   1      33.560  15.552   3.285  0.00  0.00    -0.417 N 
HETATM   27  H   UNK N   1      34.215  16.039   2.673  0.00  0.00     0.150 HD
HETATM   28  H   UNK N   1      33.028  14.790   2.865  0.00  0.00     0.150 HD
ENDBRANCH  21  26
ENDBRANCH  20  21
ENDBRANCH  19  20
ENDBRANCH  18  19
ENDBRANCH  17  18
ENDBRANCH  14  17
ENDBRANCH  12  13
BRANCH   1  29
HETATM   29  N   UNK N   1      29.561  17.027   4.489  0.00  0.00    -0.342 N 
HETATM   30  H   UNK N   1      30.486  17.285   4.270  0.00  0.00     0.167 HD
BRANCH  29  31
HETATM   31  C   UNK N   1      29.047  15.857   3.866  0.00  0.00     0.033 A 
HETATM   32  C   UNK N   1      29.110  15.669   2.475  0.00  0.00     0.029 A 
HETATM   33  C   UNK N   1      28.538  14.536   1.888  0.00  0.00     0.002 A 
HETATM   34  C   UNK N   1      27.891  13.589   2.684  0.00  0.00     0.000 A 
HETATM   35  C   UNK N   1      27.818  13.772   4.067  0.00  0.00     0.002 A 
HETATM   36  C   UNK N   1      28.391  14.905   4.655  0.00  0.00     0.029 A 
ENDBRANCH  29  31
ENDBRANCH   1  29
TORSDOF 11
ENDMDL
MODEL 5
REMARK VINA RESULT:      -7.0     15.037     16.929
REMARK  11 active torsions:
REMARK  status: ('A' for Active; 'I' for Inactive)
REMARK    1  A    between atoms: C_6  and  N_7 
REMARK    2  A    between atoms: N_7  and  C_8 
REMARK    3  A    between atoms: C_19  and  N_20 
REMARK       I    between atoms: N_20  and  C_21 
REMARK    4  A    between atoms: C_21  and  C_23 
REMARK    5  A    between atoms: C_23  and  C_24 
REMARK    6  A    between atoms: C_24  and  S_25 
REMARK    7  A    between atoms: S_25  and  C_26 
REMARK    8  A    between atoms: C_26  and  C_27 
REMARK    9  A    between atoms: C_27  and  C_28 
REMARK   10  A    between atoms: C_27  and  N_30 
REMARK   11  A    between atoms: C_28  and  O_31 
ROOT
HETATM    1  C   UNK N   1      27.196  24.243  -4.554  0.00  0.00     0.119 A 
HETATM    2  C   UNK N   1      26.596  25.507  -4.597  0.00  0.00     0.037 A 
HETATM    3  C   UNK N   1      26.881  26.486  -3.643  0.00  0.00     0.047 A 
HETATM    4  N   UNK N   1      26.890  23.328  -5.512  0.00  0.00    -0.338 N 
ATOM      5  HN  UNK N   1      27.326  22.407  -5.480  1.00  0.00     0.168 HD
HETATM    6  C   UNK N   1      26.012  23.618  -6.510  0.00  0.00     0.182 A 
HETATM    7  N   UNK N   1      25.394  24.829  -6.550  0.00  0.00    -0.352 N 
ATOM      8  HN  UNK N   1      24.723  25.029  -7.292  1.00  0.00     0.166 HD
HETATM    9  C   UNK N   1      25.661  25.774  -5.616  0.00  0.00     0.047 A 
HETATM   10  C   UNK N   1      24.993  27.003  -5.642  0.00  0.00     0.033 A 
HETATM   11  C   UNK N   1      25.261  27.969  -4.668  0.00  0.00     0.032 A 
HETATM   12  C   UNK N   1      26.225  27.725  -3.683  0.00  0.00     0.035 A 
ENDROOT
BRANCH  12  13
HETATM   13  N   UNK N   1      26.516  28.720  -2.719  0.00  0.00    -0.327 N 
HETATM   14  C   UNK N   1      27.534  29.610  -2.865  0.00  0.00     0.222 C 
HETATM   15  O   UNK N   1      28.125  29.704  -3.932  0.00  0.00    -0.273 OA
HETATM   16  H   UNK N   1      25.959  28.771  -1.908  0.00  0.00     0.169 HD
BRANCH  14  17
HETATM   17  C   UNK N   1      27.926  30.522  -1.743  0.00  0.00     0.113 C 
BRANCH  17  18
HETATM   18  C   UNK N   1      29.128  30.024  -0.951  0.00  0.00     0.083 C 
BRANCH  18  19
HETATM   19  S   UNK N   1      30.662  30.835  -1.495  0.00  0.00    -0.166 SA
BRANCH  19  20
HETATM   20  C   UNK N   1      31.462  29.218  -1.717  0.00  0.00     0.109 C 
BRANCH  20  21
HETATM   21  C   UNK N   1      31.627  28.884  -3.194  0.00  0.00     0.182 C 
BRANCH  21  22
HETATM   22  C   UNK N   1      30.903  27.614  -3.534  0.00  0.00     0.163 C 
HETATM   23  O   UNK N   1      31.073  26.610  -2.861  0.00  0.00    -0.648 OA
BRANCH  22  24
HETATM   24  O   UNK N   1      30.050  27.581  -4.576  0.00  0.00    -0.775 OA
HETATM   25  H   UNK N   1      30.262  27.764  -5.471  0.00  0.00     0.167 HD
ENDBRANCH  22  24
ENDBRANCH  21  22
BRANCH  21  26
HETATM   26  N   UNK N   1      31.084  29.974  -3.984  0.00  0.00    -0.417 N 
HETATM   27  H   UNK N   1      31.166  30.974  -3.796  0.00  0.00     0.150 HD
HETATM   28  H   UNK N   1      30.564  29.712  -4.821  0.00  0.00     0.150 HD
ENDBRANCH  21  26
ENDBRANCH  20  21
ENDBRANCH  19  20
ENDBRANCH  18  19
ENDBRANCH  17  18
ENDBRANCH  14  17
ENDBRANCH  12  13
BRANCH   1  29
HETATM   29  N   UNK N   1      28.084  23.920  -3.485  0.00  0.00    -0.342 N 
HETATM   30  H   UNK N   1      27.733  23.996  -2.568  0.00  0.00     0.167 HD
BRANCH  29  31
HETATM   31  C   UNK N   1      29.433  23.495  -3.631  0.00  0.00     0.033 A 
HETATM   32  C   UNK N   1      30.246  23.953  -4.681  0.00  0.00     0.029 A 
HETATM   33  C   UNK N   1      31.548  23.466  -4.833  0.00  0.00     0.002 A 
HETATM   34  C   UNK N   1      32.044  22.512  -3.942  0.00  0.00     0.000 A 
HETATM   35  C   UNK N   1      31.240  22.045  -2.899  0.00  0.00     0.002 A 
HETATM   36  C   UNK N   1      29.938  22.533  -2.747  0.00  0.00     0.029 A 
ENDBRANCH  29  31
ENDBRANCH   1  29
TORSDOF 11
ENDMDL
MODEL 6
REMARK VINA RESULT:      -7.0      4.086      6.822
REMARK  11 active torsions:
REMARK  status: ('A' for Active; 'I' for Inactive)
REMARK    1  A    between atoms: C_6  and  N_7 
REMARK    2  A    between atoms: N_7  and  C_8 
REMARK    3  A    between atoms: C_19  and  N_20 
REMARK       I    between atoms: N_20  and  C_21 
REMARK    4  A    between atoms: C_21  and  C_23 
REMARK    5  A    between atoms: C_23  and  C_24 
REMARK    6  A    between atoms: C_24  and  S_25 
REMARK    7  A    between atoms: S_25  and  C_26 
REMARK    8  A    between atoms: C_26  and  C_27 
REMARK    9  A    between atoms: C_27  and  C_28 
REMARK   10  A    between atoms: C_27  and  N_30 
REMARK   11  A    between atoms: C_28  and  O_31 
ROOT
HETATM    1  C   UNK N   1      21.327  17.548   4.153  0.00  0.00     0.119 A 
HETATM    2  C   UNK N   1      22.292  18.476   3.745  0.00  0.00     0.037 A 
HETATM    3  C   UNK N   1      23.639  18.328   4.083  0.00  0.00     0.047 A 
HETATM    4  N   UNK N   1      20.030  17.734   3.791  0.00  0.00    -0.338 N 
ATOM      5  HN  UNK N   1      19.326  17.059   4.088  1.00  0.00     0.168 HD
HETATM    6  C   UNK N   1      19.653  18.805   3.040  0.00  0.00     0.182 A 
HETATM    7  N   UNK N   1      20.571  19.735   2.662  0.00  0.00    -0.352 N 
ATOM      8  HN  UNK N   1      20.275  20.544   2.116  1.00  0.00     0.166 HD
HETATM    9  C   UNK N   1      21.876  19.598   3.002  0.00  0.00     0.047 A 
HETATM   10  C   UNK N   1      22.807  20.578   2.642  0.00  0.00     0.033 A 
HETATM   11  C   UNK N   1      24.149  20.439   3.007  0.00  0.00     0.032 A 
HETATM   12  C   UNK N   1      24.574  19.302   3.704  0.00  0.00     0.035 A 
ENDROOT
BRANCH  12  13
HETATM   13  N   UNK N   1      25.941  19.152   4.042  0.00  0.00    -0.327 N 
HETATM   14  C   UNK N   1      26.508  19.776   5.109  0.00  0.00     0.222 C 
HETATM   15  O   UNK N   1      25.809  20.349   5.934  0.00  0.00    -0.273 OA
HETATM   16  H   UNK N   1      26.506  18.571   3.481  0.00  0.00     0.169 HD
BRANCH  14  17
HETATM   17  C   UNK N   1      27.990  19.740   5.323  0.00  0.00     0.113 C 
BRANCH  17  18
HETATM   18  C   UNK N   1      28.582  18.341   5.212  0.00  0.00     0.083 C 
BRANCH  18  19
HETATM   19  S   UNK N   1      27.663  17.151   6.235  0.00  0.00    -0.166 SA
BRANCH  19  20
HETATM   20  C   UNK N   1      28.889  17.316   7.567  0.00  0.00     0.109 C 
BRANCH  20  21
HETATM   21  C   UNK N   1      28.218  17.648   8.893  0.00  0.00     0.182 C 
BRANCH  21  22
HETATM   22  C   UNK N   1      29.241  17.793   9.983  0.00  0.00     0.163 C 
HETATM   23  O   UNK N   1      29.708  18.890  10.245  0.00  0.00    -0.648 OA
BRANCH  22  24
HETATM   24  O   UNK N   1      29.635  16.714  10.687  0.00  0.00    -0.775 OA
HETATM   25  H   UNK N   1      29.095  16.190  11.246  0.00  0.00     0.167 HD
ENDBRANCH  22  24
ENDBRANCH  21  22
BRANCH  21  26
HETATM   26  N   UNK N   1      27.487  18.894   8.750  0.00  0.00    -0.417 N 
HETATM   27  H   UNK N   1      27.480  19.517   7.943  0.00  0.00     0.150 HD
HETATM   28  H   UNK N   1      26.917  19.178   9.546  0.00  0.00     0.150 HD
ENDBRANCH  21  26
ENDBRANCH  20  21
ENDBRANCH  19  20
ENDBRANCH  18  19
ENDBRANCH  17  18
ENDBRANCH  14  17
ENDBRANCH  12  13
BRANCH   1  29
HETATM   29  N   UNK N   1      21.709  16.447   4.976  0.00  0.00    -0.342 N 
HETATM   30  H   UNK N   1      22.397  15.837   4.623  0.00  0.00     0.167 HD
BRANCH  29  31
HETATM   31  C   UNK N   1      21.183  16.156   6.264  0.00  0.00     0.033 A 
HETATM   32  C   UNK N   1      20.734  17.168   7.128  0.00  0.00     0.029 A 
HETATM   33  C   UNK N   1      20.281  16.852   8.413  0.00  0.00     0.002 A 
HETATM   34  C   UNK N   1      20.283  15.525   8.847  0.00  0.00     0.000 A 
HETATM   35  C   UNK N   1      20.735  14.513   7.997  0.00  0.00     0.002 A 
HETATM   36  C   UNK N   1      21.187  14.829   6.711  0.00  0.00     0.029 A 
ENDBRANCH  29  31
ENDBRANCH   1  29
TORSDOF 11
ENDMDL
MODEL 7
REMARK VINA RESULT:      -6.9      8.105     10.235
REMARK  11 active torsions:
REMARK  status: ('A' for Active; 'I' for Inactive)
REMARK    1  A    between atoms: C_6  and  N_7 
REMARK    2  A    between atoms: N_7  and  C_8 
REMARK    3  A    between atoms: C_19  and  N_20 
REMARK       I    between atoms: N_20  and  C_21 
REMARK    4  A    between atoms: C_21  and  C_23 
REMARK    5  A    between atoms: C_23  and  C_24 
REMARK    6  A    between atoms: C_24  and  S_25 
REMARK    7  A    between atoms: S_25  and  C_26 
REMARK    8  A    between atoms: C_26  and  C_27 
REMARK    9  A    between atoms: C_27  and  C_28 
REMARK   10  A    between atoms: C_27  and  N_30 
REMARK   11  A    between atoms: C_28  and  O_31 
ROOT
HETATM    1  C   UNK N   1      28.179  18.415   4.898  0.00  0.00     0.119 A 
HETATM    2  C   UNK N   1      28.821  18.047   6.087  0.00  0.00     0.037 A 
HETATM    3  C   UNK N   1      29.844  17.096   6.103  0.00  0.00     0.047 A 
HETATM    4  N   UNK N   1      27.195  19.351   4.936  0.00  0.00    -0.338 N 
ATOM      5  HN  UNK N   1      26.726  19.619   4.071  1.00  0.00     0.168 HD
HETATM    6  C   UNK N   1      26.822  19.938   6.106  0.00  0.00     0.182 A 
HETATM    7  N   UNK N   1      27.411  19.570   7.275  0.00  0.00    -0.352 N 
ATOM      8  HN  UNK N   1      27.110  20.001   8.150  1.00  0.00     0.166 HD
HETATM    9  C   UNK N   1      28.394  18.636   7.293  0.00  0.00     0.047 A 
HETATM   10  C   UNK N   1      28.968  18.236   8.504  0.00  0.00     0.033 A 
HETATM   11  C   UNK N   1      29.972  17.264   8.518  0.00  0.00     0.032 A 
HETATM   12  C   UNK N   1      30.432  16.711   7.317  0.00  0.00     0.035 A 
ENDROOT
BRANCH  12  13
HETATM   13  N   UNK N   1      31.471  15.750   7.335  0.00  0.00    -0.327 N 
HETATM   14  C   UNK N   1      32.788  16.091   7.315  0.00  0.00     0.222 C 
HETATM   15  O   UNK N   1      33.128  17.255   7.471  0.00  0.00    -0.273 OA
HETATM   16  H   UNK N   1      31.232  14.795   7.362  0.00  0.00     0.169 HD
BRANCH  14  17
HETATM   17  C   UNK N   1      33.850  15.048   7.147  0.00  0.00     0.113 C 
BRANCH  17  18
HETATM   18  C   UNK N   1      33.320  13.623   7.257  0.00  0.00     0.083 C 
BRANCH  18  19
HETATM   19  S   UNK N   1      33.569  12.952   8.928  0.00  0.00    -0.166 SA
BRANCH  19  20
HETATM   20  C   UNK N   1      34.906  14.146   9.231  0.00  0.00     0.109 C 
BRANCH  20  21
HETATM   21  C   UNK N   1      34.693  14.888  10.545  0.00  0.00     0.182 C 
BRANCH  21  22
HETATM   22  C   UNK N   1      35.347  16.238  10.504  0.00  0.00     0.163 C 
HETATM   23  O   UNK N   1      36.536  16.353  10.758  0.00  0.00    -0.648 OA
BRANCH  22  24
HETATM   24  O   UNK N   1      34.628  17.327  10.171  0.00  0.00    -0.775 OA
HETATM   25  H   UNK N   1      34.845  18.216  10.374  0.00  0.00     0.167 HD
ENDBRANCH  22  24
ENDBRANCH  21  22
BRANCH  21  26
HETATM   26  N   UNK N   1      33.267  15.050  10.766  0.00  0.00    -0.417 N 
HETATM   27  H   UNK N   1      32.653  14.444  11.309  0.00  0.00     0.150 HD
HETATM   28  H   UNK N   1      32.831  15.862  10.329  0.00  0.00     0.150 HD
ENDBRANCH  21  26
ENDBRANCH  20  21
ENDBRANCH  19  20
ENDBRANCH  18  19
ENDBRANCH  17  18
ENDBRANCH  14  17
ENDBRANCH  12  13
BRANCH   1  29
HETATM   29  N   UNK N   1      28.537  17.772   3.675  0.00  0.00    -0.342 N 
HETATM   30  H   UNK N   1      29.222  18.209   3.120  0.00  0.00     0.167 HD
BRANCH  29  31
HETATM   31  C   UNK N   1      27.988  16.553   3.191  0.00  0.00     0.033 A 
HETATM   32  C   UNK N   1      28.795  15.542   2.643  0.00  0.00     0.029 A 
HETATM   33  C   UNK N   1      28.218  14.382   2.117  0.00  0.00     0.002 A 
HETATM   34  C   UNK N   1      26.830  14.228   2.127  0.00  0.00     0.000 A 
HETATM   35  C   UNK N   1      26.019  15.232   2.663  0.00  0.00     0.002 A 
HETATM   36  C   UNK N   1      26.598  16.392   3.190  0.00  0.00     0.029 A 
ENDBRANCH  29  31
ENDBRANCH   1  29
TORSDOF 11
ENDMDL
MODEL 8
REMARK VINA RESULT:      -6.8      8.660     10.673
REMARK  11 active torsions:
REMARK  status: ('A' for Active; 'I' for Inactive)
REMARK    1  A    between atoms: C_6  and  N_7 
REMARK    2  A    between atoms: N_7  and  C_8 
REMARK    3  A    between atoms: C_19  and  N_20 
REMARK       I    between atoms: N_20  and  C_21 
REMARK    4  A    between atoms: C_21  and  C_23 
REMARK    5  A    between atoms: C_23  and  C_24 
REMARK    6  A    between atoms: C_24  and  S_25 
REMARK    7  A    between atoms: S_25  and  C_26 
REMARK    8  A    between atoms: C_26  and  C_27 
REMARK    9  A    between atoms: C_27  and  C_28 
REMARK   10  A    between atoms: C_27  and  N_30 
REMARK   11  A    between atoms: C_28  and  O_31 
ROOT
HETATM    1  C   UNK N   1      28.989  17.994   4.702  0.00  0.00     0.119 A 
HETATM    2  C   UNK N   1      29.208  17.890   6.081  0.00  0.00     0.037 A 
HETATM    3  C   UNK N   1      30.307  17.202   6.598  0.00  0.00     0.047 A 
HETATM    4  N   UNK N   1      27.907  18.682   4.250  0.00  0.00    -0.338 N 
ATOM      5  HN  UNK N   1      27.747  18.758   3.245  1.00  0.00     0.168 HD
HETATM    6  C   UNK N   1      27.034  19.271   5.112  0.00  0.00     0.182 A 
HETATM    7  N   UNK N   1      27.212  19.153   6.455  0.00  0.00    -0.352 N 
ATOM      8  HN  UNK N   1      26.540  19.581   7.092  1.00  0.00     0.166 HD
HETATM    9  C   UNK N   1      28.271  18.472   6.957  0.00  0.00     0.047 A 
HETATM   10  C   UNK N   1      28.425  18.323   8.339  0.00  0.00     0.033 A 
HETATM   11  C   UNK N   1      29.513  17.610   8.851  0.00  0.00     0.032 A 
HETATM   12  C   UNK N   1      30.471  17.070   7.985  0.00  0.00     0.035 A 
ENDROOT
BRANCH  12  13
HETATM   13  N   UNK N   1      31.587  16.376   8.511  0.00  0.00    -0.327 N 
HETATM   14  C   UNK N   1      32.834  16.918   8.557  0.00  0.00     0.222 C 
HETATM   15  O   UNK N   1      33.003  18.105   8.315  0.00  0.00    -0.273 OA
HETATM   16  H   UNK N   1      31.456  15.464   8.858  0.00  0.00     0.169 HD
BRANCH  14  17
HETATM   17  C   UNK N   1      34.019  16.087   8.947  0.00  0.00     0.113 C 
BRANCH  17  18
HETATM   18  C   UNK N   1      34.916  16.762   9.977  0.00  0.00     0.083 C 
BRANCH  18  19
HETATM   19  S   UNK N   1      36.159  15.606  10.630  0.00  0.00    -0.166 SA
BRANCH  19  20
HETATM   20  C   UNK N   1      34.861  14.660  11.481  0.00  0.00     0.109 C 
BRANCH  20  21
HETATM   21  C   UNK N   1      35.448  13.468  12.226  0.00  0.00     0.182 C 
BRANCH  21  22
HETATM   22  C   UNK N   1      35.734  13.825  13.656  0.00  0.00     0.163 C 
HETATM   23  O   UNK N   1      34.964  13.483  14.540  0.00  0.00    -0.648 OA
BRANCH  22  24
HETATM   24  O   UNK N   1      36.849  14.510  13.971  0.00  0.00    -0.775 OA
HETATM   25  H   UNK N   1      37.118  14.763  14.832  0.00  0.00     0.167 HD
ENDBRANCH  22  24
ENDBRANCH  21  22
BRANCH  21  26
HETATM   26  N   UNK N   1      34.494  12.374  12.184  0.00  0.00    -0.417 N 
HETATM   27  H   UNK N   1      33.490  12.422  12.356  0.00  0.00     0.150 HD
HETATM   28  H   UNK N   1      34.871  11.454  11.958  0.00  0.00     0.150 HD
ENDBRANCH  21  26
ENDBRANCH  20  21
ENDBRANCH  19  20
ENDBRANCH  18  19
ENDBRANCH  17  18
ENDBRANCH  14  17
ENDBRANCH  12  13
BRANCH   1  29
HETATM   29  N   UNK N   1      29.878  17.343   3.795  0.00  0.00    -0.342 N 
HETATM   30  H   UNK N   1      30.711  17.814   3.563  0.00  0.00     0.167 HD
BRANCH  29  31
HETATM   31  C   UNK N   1      29.664  16.070   3.198  0.00  0.00     0.033 A 
HETATM   32  C   UNK N   1      28.437  15.725   2.608  0.00  0.00     0.029 A 
HETATM   33  C   UNK N   1      28.238  14.443   2.087  0.00  0.00     0.002 A 
HETATM   34  C   UNK N   1      29.260  13.494   2.161  0.00  0.00     0.000 A 
HETATM   35  C   UNK N   1      30.481  13.826   2.753  0.00  0.00     0.002 A 
HETATM   36  C   UNK N   1      30.679  15.110   3.274  0.00  0.00     0.029 A 
ENDBRANCH  29  31
ENDBRANCH   1  29
TORSDOF 11
ENDMDL
MODEL 9
REMARK VINA RESULT:      -6.7     14.930     19.427
REMARK  11 active torsions:
REMARK  status: ('A' for Active; 'I' for Inactive)
REMARK    1  A    between atoms: C_6  and  N_7 
REMARK    2  A    between atoms: N_7  and  C_8 
REMARK    3  A    between atoms: C_19  and  N_20 
REMARK       I    between atoms: N_20  and  C_21 
REMARK    4  A    between atoms: C_21  and  C_23 
REMARK    5  A    between atoms: C_23  and  C_24 
REMARK    6  A    between atoms: C_24  and  S_25 
REMARK    7  A    between atoms: S_25  and  C_26 
REMARK    8  A    between atoms: C_26  and  C_27 
REMARK    9  A    between atoms: C_27  and  C_28 
REMARK   10  A    between atoms: C_27  and  N_30 
REMARK   11  A    between atoms: C_28  and  O_31 
ROOT
HETATM    1  C   UNK N   1      35.038  10.427  19.082  0.00  0.00     0.119 A 
HETATM    2  C   UNK N   1      35.050  11.251  17.950  0.00  0.00     0.037 A 
HETATM    3  C   UNK N   1      34.963  10.725  16.660  0.00  0.00     0.047 A 
HETATM    4  N   UNK N   1      35.118  10.991  20.316  0.00  0.00    -0.338 N 
ATOM      5  HN  UNK N   1      35.111  10.391  21.141  1.00  0.00     0.168 HD
HETATM    6  C   UNK N   1      35.208  12.340  20.472  0.00  0.00     0.182 A 
HETATM    7  N   UNK N   1      35.253  13.154  19.384  0.00  0.00    -0.352 N 
ATOM      8  HN  UNK N   1      35.341  14.163  19.512  1.00  0.00     0.166 HD
HETATM    9  C   UNK N   1      35.184  12.641  18.131  0.00  0.00     0.047 A 
HETATM   10  C   UNK N   1      35.269  13.483  17.017  0.00  0.00     0.033 A 
HETATM   11  C   UNK N   1      35.210  12.948  15.727  0.00  0.00     0.032 A 
HETATM   12  C   UNK N   1      35.029  11.572  15.544  0.00  0.00     0.035 A 
ENDROOT
BRANCH  12  13
HETATM   13  N   UNK N   1      34.937  11.040  14.235  0.00  0.00    -0.327 N 
HETATM   14  C   UNK N   1      36.030  10.777  13.470  0.00  0.00     0.222 C 
HETATM   15  O   UNK N   1      37.151  10.816  13.957  0.00  0.00    -0.273 OA
HETATM   16  H   UNK N   1      34.044  10.853  13.863  0.00  0.00     0.169 HD
BRANCH  14  17
HETATM   17  C   UNK N   1      35.885  10.393  12.029  0.00  0.00     0.113 C 
BRANCH  17  18
HETATM   18  C   UNK N   1      36.309  11.494  11.065  0.00  0.00     0.083 C 
BRANCH  18  19
HETATM   19  S   UNK N   1      34.925  12.615  10.692  0.00  0.00    -0.166 SA
BRANCH  19  20
HETATM   20  C   UNK N   1      35.634  13.886  11.780  0.00  0.00     0.109 C 
BRANCH  20  21
HETATM   21  C   UNK N   1      34.933  15.225  11.591  0.00  0.00     0.182 C 
BRANCH  21  22
HETATM   22  C   UNK N   1      35.839  16.205  10.903  0.00  0.00     0.163 C 
HETATM   23  O   UNK N   1      35.402  17.277  10.514  0.00  0.00    -0.648 OA
BRANCH  22  24
HETATM   24  O   UNK N   1      37.141  15.913  10.727  0.00  0.00    -0.775 OA
HETATM   25  H   UNK N   1      37.863  16.494  10.866  0.00  0.00     0.167 HD
ENDBRANCH  22  24
ENDBRANCH  21  22
BRANCH  21  26
HETATM   26  N   UNK N   1      33.744  15.021  10.784  0.00  0.00    -0.417 N 
HETATM   27  H   UNK N   1      33.342  14.130  10.489  0.00  0.00     0.150 HD
HETATM   28  H   UNK N   1      33.255  15.861  10.478  0.00  0.00     0.150 HD
ENDBRANCH  21  26
ENDBRANCH  20  21
ENDBRANCH  19  20
ENDBRANCH  18  19
ENDBRANCH  17  18
ENDBRANCH  14  17
ENDBRANCH  12  13
BRANCH   1  29
HETATM   29  N   UNK N   1      34.988   9.010  18.923  0.00  0.00    -0.342 N 
HETATM   30  H   UNK N   1      35.789   8.568  18.560  0.00  0.00     0.167 HD
BRANCH  29  31
HETATM   31  C   UNK N   1      33.878   8.181  19.244  0.00  0.00     0.033 A 
HETATM   32  C   UNK N   1      33.910   6.790  19.051  0.00  0.00     0.029 A 
HETATM   33  C   UNK N   1      32.779   6.012  19.317  0.00  0.00     0.002 A 
HETATM   34  C   UNK N   1      31.606   6.619  19.770  0.00  0.00     0.000 A 
HETATM   35  C   UNK N   1      31.563   8.003  19.959  0.00  0.00     0.002 A 
HETATM   36  C   UNK N   1      32.695   8.781  19.693  0.00  0.00     0.029 A 
ENDBRANCH  29  31
ENDBRANCH   1  29
TORSDOF 11
ENDMDL
