MODEL 1
REMARK VINA RESULT:      -4.8      0.000      0.000
REMARK  10 active torsions:
REMARK  status: ('A' for Active; 'I' for Inactive)
REMARK    1  A    between atoms: C_1  and  C_9 
REMARK    2  A    between atoms: C_6  and  C_1 
REMARK       I    between atoms: C_2  and  N_5 
REMARK    3  A    between atoms: C_11  and  C_2 
REMARK    4  A    between atoms: C_3  and  C_6 
REMARK    5  A    between atoms: C_3  and  O_7 
REMARK    6  A    between atoms: C_6  and  N_5 
REMARK    7  A    between atoms: C_9  and  S_10 
REMARK    8  A    between atoms: C_12  and  C_11 
REMARK    9  A    between atoms: C_12  and  C_13 
REMARK   10  A    between atoms: C_14  and  C_13 
ROOT
HETATM    1  C   UNK N   1      24.133  20.276   3.275  0.00  0.00     0.218 C 
HETATM    2  O   UNK N   1      24.205  20.930   2.241  0.00  0.00    -0.274 OA
HETATM    3  N   UNK N   1      23.020  19.562   3.567  0.00  0.00    -0.347 N 
HETATM    4  H   UNK N   1      22.998  19.062   4.414  0.00  0.00     0.163 HD
ENDROOT
BRANCH   3   5
HETATM    5  C   UNK N   1      21.856  19.493   2.704  0.00  0.00     0.183 C 
BRANCH   5   6
HETATM    6  C   UNK N   1      20.959  20.706   2.845  0.00  0.00     0.163 C 
HETATM    7  O   UNK N   1      20.141  20.779   3.750  0.00  0.00    -0.648 OA
BRANCH   6   8
HETATM    8  O   UNK N   1      21.066  21.725   1.971  0.00  0.00    -0.775 OA
HETATM    9  H   UNK N   1      21.275  21.577   1.070  0.00  0.00     0.167 HD
ENDBRANCH   6   8
ENDBRANCH   5   6
BRANCH   5  10
HETATM   10  C   UNK N   1      21.107  18.213   3.060  0.00  0.00     0.046 C 
BRANCH  10  11
HETATM   11  C   UNK N   1      21.913  17.295   3.961  0.00  0.00     0.073 C 
BRANCH  11  12
HETATM   12  S   UNK N   1      22.165  15.713   3.109  0.00  0.00    -0.182 SA
HETATM   13  H   UNK N   1      23.418  15.231   2.894  0.00  0.00     0.101 HD
ENDBRANCH  11  12
ENDBRANCH  10  11
ENDBRANCH   5  10
ENDBRANCH   3   5
BRANCH   1  14
HETATM   14  C   UNK N   1      25.308  20.210   4.193  0.00  0.00     0.103 C 
BRANCH  14  15
HETATM   15  C   UNK N   1      26.591  20.099   3.400  0.00  0.00     0.009 C 
BRANCH  15  16
HETATM   16  C   UNK N   1      27.759  20.019   4.358  0.00  0.00     0.000 C 
BRANCH  16  17
HETATM   17  C   UNK N   1      27.372  20.688   5.657  0.00  0.00    -0.005 C 
HETATM   18  C   UNK N   1      27.789  19.819   6.822  0.00  0.00     0.005 C 
ENDBRANCH  16  17
ENDBRANCH  15  16
ENDBRANCH  14  15
ENDBRANCH   1  14
TORSDOF 10
ENDMDL
MODEL 2
REMARK VINA RESULT:      -4.7     10.527     13.337
REMARK  10 active torsions:
REMARK  status: ('A' for Active; 'I' for Inactive)
REMARK    1  A    between atoms: C_1  and  C_9 
REMARK    2  A    between atoms: C_6  and  C_1 
REMARK       I    between atoms: C_2  and  N_5 
REMARK    3  A    between atoms: C_11  and  C_2 
REMARK    4  A    between atoms: C_3  and  C_6 
REMARK    5  A    between atoms: C_3  and  O_7 
REMARK    6  A    between atoms: C_6  and  N_5 
REMARK    7  A    between atoms: C_9  and  S_10 
REMARK    8  A    between atoms: C_12  and  C_11 
REMARK    9  A    between atoms: C_12  and  C_13 
REMARK   10  A    between atoms: C_14  and  C_13 
ROOT
HETATM    1  C   UNK N   1      34.779  15.824  10.244  0.00  0.00     0.218 C 
HETATM    2  O   UNK N   1      34.973  14.903   9.458  0.00  0.00    -0.274 OA
HETATM    3  N   UNK N   1      34.113  16.937   9.854  0.00  0.00    -0.347 N 
HETATM    4  H   UNK N   1      33.991  17.658  10.513  0.00  0.00     0.163 HD
ENDROOT
BRANCH   3   5
HETATM    5  C   UNK N   1      33.571  17.129   8.522  0.00  0.00     0.183 C 
BRANCH   5   6
HETATM    6  C   UNK N   1      34.374  18.126   7.710  0.00  0.00     0.163 C 
HETATM    7  O   UNK N   1      34.430  18.040   6.493  0.00  0.00    -0.648 OA
BRANCH   6   8
HETATM    8  O   UNK N   1      35.026  19.127   8.332  0.00  0.00    -0.775 OA
HETATM    9  H   UNK N   1      35.871  18.997   8.715  0.00  0.00     0.167 HD
ENDBRANCH   6   8
ENDBRANCH   5   6
BRANCH   5  10
HETATM   10  C   UNK N   1      32.128  17.592   8.686  0.00  0.00     0.046 C 
BRANCH  10  11
HETATM   11  C   UNK N   1      31.183  16.923   7.703  0.00  0.00     0.073 C 
BRANCH  11  12
HETATM   12  S   UNK N   1      29.496  17.510   8.022  0.00  0.00    -0.182 SA
HETATM   13  H   UNK N   1      28.915  18.430   7.208  0.00  0.00     0.101 HD
ENDBRANCH  11  12
ENDBRANCH  10  11
ENDBRANCH   5  10
ENDBRANCH   3   5
BRANCH   1  14
HETATM   14  C   UNK N   1      35.221  15.693  11.663  0.00  0.00     0.103 C 
BRANCH  14  15
HETATM   15  C   UNK N   1      35.214  14.240  12.085  0.00  0.00     0.009 C 
BRANCH  15  16
HETATM   16  C   UNK N   1      36.415  13.975  12.966  0.00  0.00     0.000 C 
BRANCH  16  17
HETATM   17  C   UNK N   1      35.939  13.733  14.380  0.00  0.00    -0.005 C 
HETATM   18  C   UNK N   1      36.952  14.282  15.360  0.00  0.00     0.005 C 
ENDBRANCH  16  17
ENDBRANCH  15  16
ENDBRANCH  14  15
ENDBRANCH   1  14
TORSDOF 10
ENDMDL
MODEL 3
REMARK VINA RESULT:      -4.7      2.238      2.745
REMARK  10 active torsions:
REMARK  status: ('A' for Active; 'I' for Inactive)
REMARK    1  A    between atoms: C_1  and  C_9 
REMARK    2  A    between atoms: C_6  and  C_1 
REMARK       I    between atoms: C_2  and  N_5 
REMARK    3  A    between atoms: C_11  and  C_2 
REMARK    4  A    between atoms: C_3  and  C_6 
REMARK    5  A    between atoms: C_3  and  O_7 
REMARK    6  A    between atoms: C_6  and  N_5 
REMARK    7  A    between atoms: C_9  and  S_10 
REMARK    8  A    between atoms: C_12  and  C_11 
REMARK    9  A    between atoms: C_12  and  C_13 
REMARK   10  A    between atoms: C_14  and  C_13 
ROOT
HETATM    1  C   UNK N   1      23.610  20.147   3.189  0.00  0.00     0.218 C 
HETATM    2  O   UNK N   1      22.704  20.933   2.935  0.00  0.00    -0.274 OA
HETATM    3  N   UNK N   1      23.360  18.994   3.854  0.00  0.00    -0.347 N 
HETATM    4  H   UNK N   1      24.119  18.398   4.050  0.00  0.00     0.163 HD
ENDROOT
BRANCH   3   5
HETATM    5  C   UNK N   1      22.040  18.587   4.297  0.00  0.00     0.183 C 
BRANCH   5   6
HETATM    6  C   UNK N   1      22.044  18.062   5.719  0.00  0.00     0.163 C 
HETATM    7  O   UNK N   1      22.705  17.079   6.022  0.00  0.00    -0.648 OA
BRANCH   6   8
HETATM    8  O   UNK N   1      21.321  18.688   6.667  0.00  0.00    -0.775 OA
HETATM    9  H   UNK N   1      20.566  19.198   6.450  0.00  0.00     0.167 HD
ENDBRANCH   6   8
ENDBRANCH   5   6
BRANCH   5  10
HETATM   10  C   UNK N   1      21.546  17.524   3.322  0.00  0.00     0.046 C 
BRANCH  10  11
HETATM   11  C   UNK N   1      20.039  17.549   3.144  0.00  0.00     0.073 C 
BRANCH  11  12
HETATM   12  S   UNK N   1      19.529  19.235   2.709  0.00  0.00    -0.182 SA
HETATM   13  H   UNK N   1      20.137  19.907   1.696  0.00  0.00     0.101 HD
ENDBRANCH  11  12
ENDBRANCH  10  11
ENDBRANCH   5  10
ENDBRANCH   3   5
BRANCH   1  14
HETATM   14  C   UNK N   1      24.993  20.429   2.704  0.00  0.00     0.103 C 
BRANCH  14  15
HETATM   15  C   UNK N   1      25.990  19.536   3.407  0.00  0.00     0.009 C 
BRANCH  15  16
HETATM   16  C   UNK N   1      26.962  20.396   4.184  0.00  0.00     0.000 C 
BRANCH  16  17
HETATM   17  C   UNK N   1      26.484  20.501   5.615  0.00  0.00    -0.005 C 
HETATM   18  C   UNK N   1      27.238  21.605   6.324  0.00  0.00     0.005 C 
ENDBRANCH  16  17
ENDBRANCH  15  16
ENDBRANCH  14  15
ENDBRANCH   1  14
TORSDOF 10
ENDMDL
MODEL 4
REMARK VINA RESULT:      -4.7      8.343     11.357
REMARK  10 active torsions:
REMARK  status: ('A' for Active; 'I' for Inactive)
REMARK    1  A    between atoms: C_1  and  C_9 
REMARK    2  A    between atoms: C_6  and  C_1 
REMARK       I    between atoms: C_2  and  N_5 
REMARK    3  A    between atoms: C_11  and  C_2 
REMARK    4  A    between atoms: C_3  and  C_6 
REMARK    5  A    between atoms: C_3  and  O_7 
REMARK    6  A    between atoms: C_6  and  N_5 
REMARK    7  A    between atoms: C_9  and  S_10 
REMARK    8  A    between atoms: C_12  and  C_11 
REMARK    9  A    between atoms: C_12  and  C_13 
REMARK   10  A    between atoms: C_14  and  C_13 
ROOT
HETATM    1  C   UNK N   1      31.183  17.567   8.268  0.00  0.00     0.218 C 
HETATM    2  O   UNK N   1      31.026  18.567   8.959  0.00  0.00    -0.274 OA
HETATM    3  N   UNK N   1      32.398  16.975   8.173  0.00  0.00    -0.347 N 
HETATM    4  H   UNK N   1      32.483  16.182   7.597  0.00  0.00     0.163 HD
ENDROOT
BRANCH   3   5
HETATM    5  C   UNK N   1      33.581  17.443   8.870  0.00  0.00     0.183 C 
BRANCH   5   6
HETATM    6  C   UNK N   1      34.490  18.264   7.978  0.00  0.00     0.163 C 
HETATM    7  O   UNK N   1      34.514  18.082   6.770  0.00  0.00    -0.648 OA
BRANCH   6   8
HETATM    8  O   UNK N   1      35.277  19.216   8.516  0.00  0.00    -0.775 OA
HETATM    9  H   UNK N   1      34.966  19.782   9.195  0.00  0.00     0.167 HD
ENDBRANCH   6   8
ENDBRANCH   5   6
BRANCH   5  10
HETATM   10  C   UNK N   1      34.304  16.213   9.406  0.00  0.00     0.046 C 
BRANCH  10  11
HETATM   11  C   UNK N   1      35.208  16.531  10.583  0.00  0.00     0.073 C 
BRANCH  11  12
HETATM   12  S   UNK N   1      35.431  15.028  11.574  0.00  0.00    -0.182 SA
HETATM   13  H   UNK N   1      36.665  14.484  11.745  0.00  0.00     0.101 HD
ENDBRANCH  11  12
ENDBRANCH  10  11
ENDBRANCH   5  10
ENDBRANCH   3   5
BRANCH   1  14
HETATM   14  C   UNK N   1      30.012  16.953   7.576  0.00  0.00     0.103 C 
BRANCH  14  15
HETATM   15  C   UNK N   1      29.893  17.490   6.167  0.00  0.00     0.009 C 
BRANCH  15  16
HETATM   16  C   UNK N   1      28.461  17.909   5.917  0.00  0.00     0.000 C 
BRANCH  16  17
HETATM   17  C   UNK N   1      28.074  18.956   6.938  0.00  0.00    -0.005 C 
HETATM   18  C   UNK N   1      27.582  20.200   6.231  0.00  0.00     0.005 C 
ENDBRANCH  16  17
ENDBRANCH  15  16
ENDBRANCH  14  15
ENDBRANCH   1  14
TORSDOF 10
ENDMDL
MODEL 5
REMARK VINA RESULT:      -4.6      6.121      8.146
REMARK  10 active torsions:
REMARK  status: ('A' for Active; 'I' for Inactive)
REMARK    1  A    between atoms: C_1  and  C_9 
REMARK    2  A    between atoms: C_6  and  C_1 
REMARK       I    between atoms: C_2  and  N_5 
REMARK    3  A    between atoms: C_11  and  C_2 
REMARK    4  A    between atoms: C_3  and  C_6 
REMARK    5  A    between atoms: C_3  and  O_7 
REMARK    6  A    between atoms: C_6  and  N_5 
REMARK    7  A    between atoms: C_9  and  S_10 
REMARK    8  A    between atoms: C_12  and  C_11 
REMARK    9  A    between atoms: C_12  and  C_13 
REMARK   10  A    between atoms: C_14  and  C_13 
ROOT
HETATM    1  C   UNK N   1      28.286  17.557   6.149  0.00  0.00     0.218 C 
HETATM    2  O   UNK N   1      27.331  16.900   6.548  0.00  0.00    -0.274 OA
HETATM    3  N   UNK N   1      29.355  17.780   6.951  0.00  0.00    -0.347 N 
HETATM    4  H   UNK N   1      30.094  18.325   6.596  0.00  0.00     0.163 HD
ENDROOT
BRANCH   3   5
HETATM    5  C   UNK N   1      29.473  17.264   8.302  0.00  0.00     0.183 C 
BRANCH   5   6
HETATM    6  C   UNK N   1      28.834  18.179   9.327  0.00  0.00     0.163 C 
HETATM    7  O   UNK N   1      29.519  18.800  10.126  0.00  0.00    -0.648 OA
BRANCH   6   8
HETATM    8  O   UNK N   1      27.495  18.321   9.357  0.00  0.00    -0.775 OA
HETATM    9  H   UNK N   1      26.922  17.604   9.168  0.00  0.00     0.167 HD
ENDBRANCH   6   8
ENDBRANCH   5   6
BRANCH   5  10
HETATM   10  C   UNK N   1      30.960  17.079   8.584  0.00  0.00     0.046 C 
BRANCH  10  11
HETATM   11  C   UNK N   1      31.824  17.333   7.362  0.00  0.00     0.073 C 
BRANCH  11  12
HETATM   12  S   UNK N   1      33.415  18.015   7.901  0.00  0.00    -0.182 SA
HETATM   13  H   UNK N   1      33.565  19.351   8.107  0.00  0.00     0.101 HD
ENDBRANCH  11  12
ENDBRANCH  10  11
ENDBRANCH   5  10
ENDBRANCH   3   5
BRANCH   1  14
HETATM   14  C   UNK N   1      28.303  18.063   4.746  0.00  0.00     0.103 C 
BRANCH  14  15
HETATM   15  C   UNK N   1      28.363  19.574   4.731  0.00  0.00     0.009 C 
BRANCH  15  16
HETATM   16  C   UNK N   1      27.035  20.117   4.250  0.00  0.00     0.000 C 
BRANCH  16  17
HETATM   17  C   UNK N   1      26.230  20.568   5.448  0.00  0.00    -0.005 C 
HETATM   18  C   UNK N   1      27.031  21.566   6.254  0.00  0.00     0.005 C 
ENDBRANCH  16  17
ENDBRANCH  15  16
ENDBRANCH  14  15
ENDBRANCH   1  14
TORSDOF 10
ENDMDL
MODEL 6
REMARK VINA RESULT:      -4.6      9.181     11.396
REMARK  10 active torsions:
REMARK  status: ('A' for Active; 'I' for Inactive)
REMARK    1  A    between atoms: C_1  and  C_9 
REMARK    2  A    between atoms: C_6  and  C_1 
REMARK       I    between atoms: C_2  and  N_5 
REMARK    3  A    between atoms: C_11  and  C_2 
REMARK    4  A    between atoms: C_3  and  C_6 
REMARK    5  A    between atoms: C_3  and  O_7 
REMARK    6  A    between atoms: C_6  and  N_5 
REMARK    7  A    between atoms: C_9  and  S_10 
REMARK    8  A    between atoms: C_12  and  C_11 
REMARK    9  A    between atoms: C_12  and  C_13 
REMARK   10  A    between atoms: C_14  and  C_13 
ROOT
HETATM    1  C   UNK N   1      31.147  17.461   8.065  0.00  0.00     0.218 C 
HETATM    2  O   UNK N   1      30.883  18.394   8.815  0.00  0.00    -0.274 OA
HETATM    3  N   UNK N   1      32.402  16.955   8.007  0.00  0.00    -0.347 N 
HETATM    4  H   UNK N   1      32.575  16.214   7.381  0.00  0.00     0.163 HD
ENDROOT
BRANCH   3   5
HETATM    5  C   UNK N   1      33.508  17.441   8.811  0.00  0.00     0.183 C 
BRANCH   5   6
HETATM    6  C   UNK N   1      34.500  18.250   8.000  0.00  0.00     0.163 C 
HETATM    7  O   UNK N   1      35.219  19.079   8.537  0.00  0.00    -0.648 OA
BRANCH   6   8
HETATM    8  O   UNK N   1      34.603  18.049   6.672  0.00  0.00    -0.775 OA
HETATM    9  H   UNK N   1      35.350  17.627   6.297  0.00  0.00     0.167 HD
ENDBRANCH   6   8
ENDBRANCH   5   6
BRANCH   5  10
HETATM   10  C   UNK N   1      34.177  16.223   9.438  0.00  0.00     0.046 C 
BRANCH  10  11
HETATM   11  C   UNK N   1      34.505  15.146   8.421  0.00  0.00     0.073 C 
BRANCH  11  12
HETATM   12  S   UNK N   1      35.862  14.128   9.062  0.00  0.00    -0.182 SA
HETATM   13  H   UNK N   1      36.170  14.133  10.386  0.00  0.00     0.101 HD
ENDBRANCH  11  12
ENDBRANCH  10  11
ENDBRANCH   5  10
ENDBRANCH   3   5
BRANCH   1  14
HETATM   14  C   UNK N   1      30.064  16.830   7.256  0.00  0.00     0.103 C 
BRANCH  14  15
HETATM   15  C   UNK N   1      30.625  16.274   5.966  0.00  0.00     0.009 C 
BRANCH  15  16
HETATM   16  C   UNK N   1      30.569  17.345   4.899  0.00  0.00     0.000 C 
BRANCH  16  17
HETATM   17  C   UNK N   1      31.972  17.615   4.404  0.00  0.00    -0.005 C 
HETATM   18  C   UNK N   1      32.158  16.994   3.038  0.00  0.00     0.005 C 
ENDBRANCH  16  17
ENDBRANCH  15  16
ENDBRANCH  14  15
ENDBRANCH   1  14
TORSDOF 10
ENDMDL
MODEL 7
REMARK VINA RESULT:      -4.6     14.758     17.422
REMARK  10 active torsions:
REMARK  status: ('A' for Active; 'I' for Inactive)
REMARK    1  A    between atoms: C_1  and  C_9 
REMARK    2  A    between atoms: C_6  and  C_1 
REMARK       I    between atoms: C_2  and  N_5 
REMARK    3  A    between atoms: C_11  and  C_2 
REMARK    4  A    between atoms: C_3  and  C_6 
REMARK    5  A    between atoms: C_3  and  O_7 
REMARK    6  A    between atoms: C_6  and  N_5 
REMARK    7  A    between atoms: C_9  and  S_10 
REMARK    8  A    between atoms: C_12  and  C_11 
REMARK    9  A    between atoms: C_12  and  C_13 
REMARK   10  A    between atoms: C_14  and  C_13 
ROOT
HETATM    1  C   UNK N   1      36.025  13.762  13.878  0.00  0.00     0.218 C 
HETATM    2  O   UNK N   1      34.852  13.488  13.654  0.00  0.00    -0.274 OA
HETATM    3  N   UNK N   1      36.862  14.100  12.868  0.00  0.00    -0.347 N 
HETATM    4  H   UNK N   1      37.800  14.300  13.090  0.00  0.00     0.163 HD
ENDROOT
BRANCH   3   5
HETATM    5  C   UNK N   1      36.456  14.184  11.478  0.00  0.00     0.183 C 
BRANCH   5   6
HETATM    6  C   UNK N   1      37.533  13.692  10.531  0.00  0.00     0.163 C 
HETATM    7  O   UNK N   1      37.375  13.746   9.321  0.00  0.00    -0.648 OA
BRANCH   6   8
HETATM    8  O   UNK N   1      38.685  13.200  11.025  0.00  0.00    -0.775 OA
HETATM    9  H   UNK N   1      39.052  13.520  11.825  0.00  0.00     0.167 HD
ENDBRANCH   6   8
ENDBRANCH   5   6
BRANCH   5  10
HETATM   10  C   UNK N   1      36.105  15.641  11.198  0.00  0.00     0.046 C 
BRANCH  10  11
HETATM   11  C   UNK N   1      34.649  15.828  10.812  0.00  0.00     0.073 C 
BRANCH  11  12
HETATM   12  S   UNK N   1      34.568  16.404   9.094  0.00  0.00    -0.182 SA
HETATM   13  H   UNK N   1      33.579  17.243   8.687  0.00  0.00     0.101 HD
ENDBRANCH  11  12
ENDBRANCH  10  11
ENDBRANCH   5  10
ENDBRANCH   3   5
BRANCH   1  14
HETATM   14  C   UNK N   1      36.525  13.789  15.284  0.00  0.00     0.103 C 
BRANCH  14  15
HETATM   15  C   UNK N   1      35.700  12.866  16.154  0.00  0.00     0.009 C 
BRANCH  15  16
HETATM   16  C   UNK N   1      35.261  13.615  17.393  0.00  0.00     0.000 C 
BRANCH  16  17
HETATM   17  C   UNK N   1      35.185  12.643  18.549  0.00  0.00    -0.005 C 
HETATM   18  C   UNK N   1      35.519  11.249  18.066  0.00  0.00     0.005 C 
ENDBRANCH  16  17
ENDBRANCH  15  16
ENDBRANCH  14  15
ENDBRANCH   1  14
TORSDOF 10
ENDMDL
MODEL 8
REMARK VINA RESULT:      -4.5      9.667     11.260
REMARK  10 active torsions:
REMARK  status: ('A' for Active; 'I' for Inactive)
REMARK    1  A    between atoms: C_1  and  C_9 
REMARK    2  A    between atoms: C_6  and  C_1 
REMARK       I    between atoms: C_2  and  N_5 
REMARK    3  A    between atoms: C_11  and  C_2 
REMARK    4  A    between atoms: C_3  and  C_6 
REMARK    5  A    between atoms: C_3  and  O_7 
REMARK    6  A    between atoms: C_6  and  N_5 
REMARK    7  A    between atoms: C_9  and  S_10 
REMARK    8  A    between atoms: C_12  and  C_11 
REMARK    9  A    between atoms: C_12  and  C_13 
REMARK   10  A    between atoms: C_14  and  C_13 
ROOT
HETATM    1  C   UNK N   1      27.168  24.452  -3.510  0.00  0.00     0.218 C 
HETATM    2  O   UNK N   1      26.829  23.910  -2.463  0.00  0.00    -0.274 OA
HETATM    3  N   UNK N   1      28.323  24.103  -4.126  0.00  0.00    -0.347 N 
HETATM    4  H   UNK N   1      28.564  24.573  -4.957  0.00  0.00     0.163 HD
ENDROOT
BRANCH   3   5
HETATM    5  C   UNK N   1      29.225  23.080  -3.633  0.00  0.00     0.183 C 
BRANCH   5   6
HETATM    6  C   UNK N   1      30.263  23.636  -2.679  0.00  0.00     0.163 C 
HETATM    7  O   UNK N   1      30.894  24.644  -2.958  0.00  0.00    -0.648 OA
BRANCH   6   8
HETATM    8  O   UNK N   1      30.489  23.021  -1.502  0.00  0.00    -0.775 OA
HETATM    9  H   UNK N   1      30.769  23.499  -0.746  0.00  0.00     0.167 HD
ENDBRANCH   6   8
ENDBRANCH   5   6
BRANCH   5  10
HETATM   10  C   UNK N   1      29.886  22.439  -4.848  0.00  0.00     0.046 C 
BRANCH  10  11
HETATM   11  C   UNK N   1      30.744  21.241  -4.484  0.00  0.00     0.073 C 
BRANCH  11  12
HETATM   12  S   UNK N   1      31.129  20.315  -5.995  0.00  0.00    -0.182 SA
HETATM   13  H   UNK N   1      32.057  20.775  -6.876  0.00  0.00     0.101 HD
ENDBRANCH  11  12
ENDBRANCH  10  11
ENDBRANCH   5  10
ENDBRANCH   3   5
BRANCH   1  14
HETATM   14  C   UNK N   1      26.271  25.459  -4.148  0.00  0.00     0.103 C 
BRANCH  14  15
HETATM   15  C   UNK N   1      26.836  26.851  -3.977  0.00  0.00     0.009 C 
BRANCH  15  16
HETATM   16  C   UNK N   1      25.699  27.821  -3.746  0.00  0.00     0.000 C 
BRANCH  16  17
HETATM   17  C   UNK N   1      26.271  29.209  -3.557  0.00  0.00    -0.005 C 
HETATM   18  C   UNK N   1      27.523  29.132  -2.712  0.00  0.00     0.005 C 
ENDBRANCH  16  17
ENDBRANCH  15  16
ENDBRANCH  14  15
ENDBRANCH   1  14
TORSDOF 10
ENDMDL
MODEL 9
REMARK VINA RESULT:      -4.5      9.976     11.758
REMARK  10 active torsions:
REMARK  status: ('A' for Active; 'I' for Inactive)
REMARK    1  A    between atoms: C_1  and  C_9 
REMARK    2  A    between atoms: C_6  and  C_1 
REMARK       I    between atoms: C_2  and  N_5 
REMARK    3  A    between atoms: C_11  and  C_2 
REMARK    4  A    between atoms: C_3  and  C_6 
REMARK    5  A    between atoms: C_3  and  O_7 
REMARK    6  A    between atoms: C_6  and  N_5 
REMARK    7  A    between atoms: C_9  and  S_10 
REMARK    8  A    between atoms: C_12  and  C_11 
REMARK    9  A    between atoms: C_12  and  C_13 
REMARK   10  A    between atoms: C_14  and  C_13 
ROOT
HETATM    1  C   UNK N   1      27.229  24.426  -3.428  0.00  0.00     0.218 C 
HETATM    2  O   UNK N   1      26.926  23.846  -2.391  0.00  0.00    -0.274 OA
HETATM    3  N   UNK N   1      28.367  24.110  -4.090  0.00  0.00    -0.347 N 
HETATM    4  H   UNK N   1      28.579  24.609  -4.912  0.00  0.00     0.163 HD
ENDROOT
BRANCH   3   5
HETATM    5  C   UNK N   1      29.292  23.079  -3.660  0.00  0.00     0.183 C 
BRANCH   5   6
HETATM    6  C   UNK N   1      30.366  23.616  -2.735  0.00  0.00     0.163 C 
HETATM    7  O   UNK N   1      30.890  24.699  -2.945  0.00  0.00    -0.648 OA
BRANCH   6   8
HETATM    8  O   UNK N   1      30.744  22.899  -1.659  0.00  0.00    -0.775 OA
HETATM    9  H   UNK N   1      30.469  23.131  -0.795  0.00  0.00     0.167 HD
ENDBRANCH   6   8
ENDBRANCH   5   6
BRANCH   5  10
HETATM   10  C   UNK N   1      29.906  22.471  -4.916  0.00  0.00     0.046 C 
BRANCH  10  11
HETATM   11  C   UNK N   1      28.979  22.549  -6.116  0.00  0.00     0.073 C 
BRANCH  11  12
HETATM   12  S   UNK N   1      29.297  21.125  -7.194  0.00  0.00    -0.182 SA
HETATM   13  H   UNK N   1      29.623  19.914  -6.669  0.00  0.00     0.101 HD
ENDBRANCH  11  12
ENDBRANCH  10  11
ENDBRANCH   5  10
ENDBRANCH   3   5
BRANCH   1  14
HETATM   14  C   UNK N   1      26.304  25.445  -4.004  0.00  0.00     0.103 C 
BRANCH  14  15
HETATM   15  C   UNK N   1      25.887  25.048  -5.402  0.00  0.00     0.009 C 
BRANCH  15  16
HETATM   16  C   UNK N   1      25.254  26.238  -6.087  0.00  0.00     0.000 C 
BRANCH  16  17
HETATM   17  C   UNK N   1      25.940  26.459  -7.417  0.00  0.00    -0.005 C 
HETATM   18  C   UNK N   1      27.188  27.289  -7.214  0.00  0.00     0.005 C 
ENDBRANCH  16  17
ENDBRANCH  15  16
ENDBRANCH  14  15
ENDBRANCH   1  14
TORSDOF 10
ENDMDL
