REMARK  10 active torsions:
REMARK  status: ('A' for Active; 'I' for Inactive)
REMARK    1  A    between atoms: C_1  and  C_9 
REMARK    2  A    between atoms: C_6  and  C_1 
REMARK       I    between atoms: C_2  and  N_5 
REMARK    3  A    between atoms: C_11  and  C_2 
REMARK    4  A    between atoms: C_3  and  C_6 
REMARK    5  A    between atoms: C_3  and  O_7 
REMARK    6  A    between atoms: C_6  and  N_5 
REMARK    7  A    between atoms: C_9  and  S_10 
REMARK    8  A    between atoms: C_12  and  C_11 
REMARK    9  A    between atoms: C_12  and  C_13 
REMARK   10  A    between atoms: C_14  and  C_13 
ROOT
HETATM    1  C   UNK N   1      -0.326   0.458   0.286  0.00  0.00     0.218 C 
HETATM    2  O   UNK N   1      -0.120  -0.455   1.078  0.00  0.00    -0.274 OA
HETATM    3  N   UNK N   1      -1.568   0.679  -0.207  0.00  0.00    -0.347 N 
HETATM    4  H   UNK N   1      -1.687   1.414  -0.851  0.00  0.00     0.163 HD
ENDROOT
BRANCH   3   5
HETATM    5  C   UNK N   1      -2.733  -0.105   0.157  0.00  0.00     0.183 C 
BRANCH   5   6
HETATM    6  C   UNK N   1      -2.653  -1.530  -0.353  0.00  0.00     0.163 C 
HETATM    7  O   UNK N   1      -1.696  -1.906  -1.013  0.00  0.00    -0.648 OA
BRANCH   6   8
HETATM    8  O   UNK N   1      -3.641  -2.400  -0.069  0.00  0.00    -0.775 OA
HETATM    9  H   UNK N   1      -4.509  -2.108   0.128  0.00  0.00     0.167 HD
ENDBRANCH   6   8
ENDBRANCH   5   6
BRANCH   5  10
HETATM   10  C   UNK N   1      -3.953   0.612  -0.410  0.00  0.00     0.046 C 
BRANCH  10  11
HETATM   11  C   UNK N   1      -5.255   0.121   0.197  0.00  0.00     0.073 C 
BRANCH  11  12
HETATM   12  S   UNK N   1      -6.539   1.372  -0.081  0.00  0.00    -0.182 SA
HETATM   13  H   UNK N   1      -6.208   2.674  -0.289  0.00  0.00     0.101 HD
ENDBRANCH  11  12
ENDBRANCH  10  11
ENDBRANCH   5  10
ENDBRANCH   3   5
BRANCH   1  14
HETATM   14  C   UNK N   1       0.787   1.378  -0.090  0.00  0.00     0.103 C 
BRANCH  14  15
HETATM   15  C   UNK N   1       1.927   0.600  -0.709  0.00  0.00     0.009 C 
BRANCH  15  16
HETATM   16  C   UNK N   1       3.236   1.112  -0.150  0.00  0.00     0.000 C 
BRANCH  16  17
HETATM   17  C   UNK N   1       4.239  -0.020  -0.141  0.00  0.00    -0.005 C 
HETATM   18  C   UNK N   1       5.603   0.511   0.240  0.00  0.00     0.005 C 
ENDBRANCH  16  17
ENDBRANCH  15  16
ENDBRANCH  14  15
ENDBRANCH   1  14
TORSDOF 10
