MODEL 1
REMARK VINA RESULT:      -8.0      0.000      0.000
REMARK  2 active torsions:
REMARK  status: ('A' for Active; 'I' for Inactive)
REMARK    1  A    between atoms: C_3  and  C_4 
REMARK    2  A    between atoms: C_24  and  O_25 
ROOT
HETATM    1  O   UNK N   1      25.041  23.963  -5.572  0.00  0.00    -0.290 OA
HETATM    2  C   UNK N   1      25.879  24.137  -6.443  0.00  0.00     0.190 A 
HETATM    3  C   UNK N   1      26.043  23.315  -7.655  0.00  0.00     0.108 A 
HETATM    4  C   UNK N   1      26.948  25.184  -6.409  0.00  0.00     0.171 A 
HETATM    5  C   UNK N   1      26.613  26.669  -6.495  0.00  0.00     0.058 C 
HETATM    6  C   UNK N   1      26.347  27.419  -5.230  0.00  0.00    -0.023 A 
HETATM    7  C   UNK N   1      25.530  27.178  -4.130  0.00  0.00     0.097 A 
HETATM    8  N   UNK N   1      25.648  28.222  -3.256  0.00  0.00    -0.365 N 
HETATM    9  C   UNK N   1      26.507  29.093  -3.830  0.00  0.00     0.043 A 
HETATM   10  C   UNK N   1      26.920  28.627  -5.025  0.00  0.00     0.005 A 
HETATM   11  C   UNK N   1      26.950  30.325  -3.354  0.00  0.00     0.030 A 
HETATM   12  C   UNK N   1      27.841  31.062  -4.176  0.00  0.00     0.003 A 
HETATM   13  C   UNK N   1      28.248  30.559  -5.445  0.00  0.00     0.008 A 
HETATM   14  C   UNK N   1      27.774  29.309  -5.883  0.00  0.00    -0.045 A 
HETATM   15  C   UNK N   1      28.118  28.681  -7.230  0.00  0.00     0.047 C 
HETATM   16  C   UNK N   1      27.981  27.145  -7.087  0.00  0.00     0.028 C 
HETATM   17  C   UNK N   1      28.175  26.167  -8.265  0.00  0.00     0.033 C 
HETATM   18  C   UNK N   1      27.385  26.613  -9.493  0.00  0.00     0.039 C 
HETATM   19  C   UNK N   1      29.637  25.971  -8.628  0.00  0.00     0.039 C 
HETATM   20  N   UNK N   1      27.592  24.970  -7.680  0.00  0.00    -0.339 N 
HETATM   21  C   UNK N   1      27.032  23.862  -8.359  0.00  0.00     0.157 A 
HETATM   22  H   UNK N   1      25.199  28.320  -2.385  0.00  0.00     0.165 HD
ENDROOT
BRANCH   3  23
HETATM   23  C   UNK N   1      25.251  22.115  -8.022  0.00  0.00     0.163 C 
HETATM   24  C   UNK N   1      25.917  20.790  -8.197  0.00  0.00     0.097 C 
HETATM   25  O   UNK N   1      24.051  22.207  -8.226  0.00  0.00    -0.292 OA
ENDBRANCH   3  23
BRANCH  21  26
HETATM   26  O   UNK N   1      27.452  23.437  -9.568  0.00  0.00    -0.345 OA
HETATM   27  H   UNK N   1      27.840  24.036 -10.177  0.00  0.00     0.219 HD
ENDBRANCH  21  26
TORSDOF 2
ENDMDL
MODEL 2
REMARK VINA RESULT:      -7.9     15.346     16.582
REMARK  2 active torsions:
REMARK  status: ('A' for Active; 'I' for Inactive)
REMARK    1  A    between atoms: C_3  and  C_4 
REMARK    2  A    between atoms: C_24  and  O_25 
ROOT
HETATM    1  O   UNK N   1      30.901  16.545   9.247  0.00  0.00    -0.290 OA
HETATM    2  C   UNK N   1      31.289  16.269   8.123  0.00  0.00     0.190 A 
HETATM    3  C   UNK N   1      32.183  15.151   7.773  0.00  0.00     0.108 A 
HETATM    4  C   UNK N   1      30.983  17.060   6.890  0.00  0.00     0.171 A 
HETATM    5  C   UNK N   1      29.567  17.150   6.332  0.00  0.00     0.058 C 
HETATM    6  C   UNK N   1      28.674  18.246   6.816  0.00  0.00    -0.023 A 
HETATM    7  C   UNK N   1      28.331  18.711   8.081  0.00  0.00     0.097 A 
HETATM    8  N   UNK N   1      27.435  19.734   7.948  0.00  0.00    -0.365 N 
HETATM    9  C   UNK N   1      27.222  19.872   6.621  0.00  0.00     0.043 A 
HETATM   10  C   UNK N   1      27.950  18.971   5.932  0.00  0.00     0.005 A 
HETATM   11  C   UNK N   1      26.382  20.765   5.959  0.00  0.00     0.030 A 
HETATM   12  C   UNK N   1      26.323  20.681   4.544  0.00  0.00     0.003 A 
HETATM   13  C   UNK N   1      27.085  19.706   3.838  0.00  0.00     0.008 A 
HETATM   14  C   UNK N   1      27.920  18.826   4.551  0.00  0.00    -0.045 A 
HETATM   15  C   UNK N   1      28.760  17.727   3.909  0.00  0.00     0.047 C 
HETATM   16  C   UNK N   1      29.960  17.438   4.845  0.00  0.00     0.028 C 
HETATM   17  C   UNK N   1      30.998  16.329   4.570  0.00  0.00     0.033 C 
HETATM   18  C   UNK N   1      30.317  15.005   4.229  0.00  0.00     0.039 C 
HETATM   19  C   UNK N   1      31.982  16.707   3.476  0.00  0.00     0.039 C 
HETATM   20  N   UNK N   1      31.631  16.266   5.878  0.00  0.00    -0.339 N 
HETATM   21  C   UNK N   1      32.324  15.172   6.448  0.00  0.00     0.157 A 
HETATM   22  H   UNK N   1      27.028  20.264   8.672  0.00  0.00     0.165 HD
ENDROOT
BRANCH   3  23
HETATM   23  C   UNK N   1      32.799  14.183   8.714  0.00  0.00     0.163 C 
HETATM   24  C   UNK N   1      33.736  14.650   9.778  0.00  0.00     0.097 C 
HETATM   25  O   UNK N   1      32.575  12.988   8.603  0.00  0.00    -0.292 OA
ENDBRANCH   3  23
BRANCH  21  26
HETATM   26  O   UNK N   1      33.022  14.271   5.727  0.00  0.00    -0.345 OA
HETATM   27  H   UNK N   1      32.622  13.472   5.445  0.00  0.00     0.219 HD
ENDBRANCH  21  26
TORSDOF 2
ENDMDL
MODEL 3
REMARK VINA RESULT:      -7.6     26.500     27.649
REMARK  2 active torsions:
REMARK  status: ('A' for Active; 'I' for Inactive)
REMARK    1  A    between atoms: C_3  and  C_4 
REMARK    2  A    between atoms: C_24  and  O_25 
ROOT
HETATM    1  O   UNK N   1      36.256  14.958  13.536  0.00  0.00    -0.290 OA
HETATM    2  C   UNK N   1      36.181  13.788  13.197  0.00  0.00     0.190 A 
HETATM    3  C   UNK N   1      36.593  13.241  11.893  0.00  0.00     0.108 A 
HETATM    4  C   UNK N   1      35.587  12.691  14.026  0.00  0.00     0.171 A 
HETATM    5  C   UNK N   1      36.240  12.229  15.324  0.00  0.00     0.058 C 
HETATM    6  C   UNK N   1      35.857  12.905  16.600  0.00  0.00    -0.023 A 
HETATM    7  C   UNK N   1      35.763  14.238  16.985  0.00  0.00     0.097 A 
HETATM    8  N   UNK N   1      35.390  14.293  18.298  0.00  0.00    -0.365 N 
HETATM    9  C   UNK N   1      35.282  13.011  18.709  0.00  0.00     0.043 A 
HETATM   10  C   UNK N   1      35.577  12.168  17.699  0.00  0.00     0.005 A 
HETATM   11  C   UNK N   1      34.943  12.522  19.969  0.00  0.00     0.030 A 
HETATM   12  C   UNK N   1      34.928  11.115  20.143  0.00  0.00     0.003 A 
HETATM   13  C   UNK N   1      35.264  10.243  19.067  0.00  0.00     0.008 A 
HETATM   14  C   UNK N   1      35.599  10.783  17.812  0.00  0.00    -0.045 A 
HETATM   15  C   UNK N   1      36.001   9.954  16.597  0.00  0.00     0.047 C 
HETATM   16  C   UNK N   1      35.662  10.775  15.328  0.00  0.00     0.028 C 
HETATM   17  C   UNK N   1      35.995  10.296  13.899  0.00  0.00     0.033 C 
HETATM   18  C   UNK N   1      37.442   9.818  13.797  0.00  0.00     0.039 C 
HETATM   19  C   UNK N   1      35.051   9.211  13.410  0.00  0.00     0.039 C 
HETATM   20  N   UNK N   1      35.810  11.547  13.179  0.00  0.00    -0.339 N 
HETATM   21  C   UNK N   1      36.389  11.926  11.945  0.00  0.00     0.157 A 
HETATM   22  H   UNK N   1      35.232  15.103  18.836  0.00  0.00     0.165 HD
ENDROOT
BRANCH   3  23
HETATM   23  C   UNK N   1      37.140  14.008  10.747  0.00  0.00     0.163 C 
HETATM   24  C   UNK N   1      36.358  15.123  10.137  0.00  0.00     0.097 C 
HETATM   25  O   UNK N   1      38.221  13.709  10.264  0.00  0.00    -0.292 OA
ENDBRANCH   3  23
BRANCH  21  26
HETATM   26  O   UNK N   1      36.697  11.052  10.965  0.00  0.00    -0.345 OA
HETATM   27  H   UNK N   1      37.416  11.217  10.387  0.00  0.00     0.219 HD
ENDBRANCH  21  26
TORSDOF 2
ENDMDL
MODEL 4
REMARK VINA RESULT:      -7.5     15.533     17.063
REMARK  2 active torsions:
REMARK  status: ('A' for Active; 'I' for Inactive)
REMARK    1  A    between atoms: C_3  and  C_4 
REMARK    2  A    between atoms: C_24  and  O_25 
ROOT
HETATM    1  O   UNK N   1      31.630  18.071   8.661  0.00  0.00    -0.290 OA
HETATM    2  C   UNK N   1      32.250  17.637   7.704  0.00  0.00     0.190 A 
HETATM    3  C   UNK N   1      33.657  17.199   7.716  0.00  0.00     0.108 A 
HETATM    4  C   UNK N   1      31.713  17.531   6.310  0.00  0.00     0.171 A 
HETATM    5  C   UNK N   1      30.584  16.568   5.961  0.00  0.00     0.058 C 
HETATM    6  C   UNK N   1      29.173  17.045   6.079  0.00  0.00    -0.023 A 
HETATM    7  C   UNK N   1      28.465  17.697   7.083  0.00  0.00     0.097 A 
HETATM    8  N   UNK N   1      27.173  17.871   6.671  0.00  0.00    -0.365 N 
HETATM    9  C   UNK N   1      27.096  17.311   5.444  0.00  0.00     0.043 A 
HETATM   10  C   UNK N   1      28.289  16.797   5.086  0.00  0.00     0.005 A 
HETATM   11  C   UNK N   1      25.993  17.207   4.599  0.00  0.00     0.030 A 
HETATM   12  C   UNK N   1      26.177  16.540   3.361  0.00  0.00     0.003 A 
HETATM   13  C   UNK N   1      27.442  15.985   3.012  0.00  0.00     0.008 A 
HETATM   14  C   UNK N   1      28.527  16.116   3.898  0.00  0.00    -0.045 A 
HETATM   15  C   UNK N   1      29.918  15.543   3.647  0.00  0.00     0.047 C 
HETATM   16  C   UNK N   1      30.935  16.395   4.447  0.00  0.00     0.028 C 
HETATM   17  C   UNK N   1      32.444  16.075   4.504  0.00  0.00     0.033 C 
HETATM   18  C   UNK N   1      32.687  14.601   4.823  0.00  0.00     0.039 C 
HETATM   19  C   UNK N   1      33.173  16.460   3.229  0.00  0.00     0.039 C 
HETATM   20  N   UNK N   1      32.824  16.918   5.627  0.00  0.00    -0.339 N 
HETATM   21  C   UNK N   1      33.933  16.757   6.490  0.00  0.00     0.157 A 
HETATM   22  H   UNK N   1      26.447  18.314   7.167  0.00  0.00     0.165 HD
ENDROOT
BRANCH   3  23
HETATM   23  C   UNK N   1      34.583  17.235   8.875  0.00  0.00     0.163 C 
HETATM   24  C   UNK N   1      34.724  16.050   9.772  0.00  0.00     0.097 C 
HETATM   25  O   UNK N   1      35.211  18.251   9.131  0.00  0.00    -0.292 OA
ENDBRANCH   3  23
BRANCH  21  26
HETATM   26  O   UNK N   1      35.106  16.214   6.106  0.00  0.00    -0.345 OA
HETATM   27  H   UNK N   1      35.911  16.678   6.230  0.00  0.00     0.219 HD
ENDBRANCH  21  26
TORSDOF 2
ENDMDL
MODEL 5
REMARK VINA RESULT:      -7.4      5.516      7.583
REMARK  2 active torsions:
REMARK  status: ('A' for Active; 'I' for Inactive)
REMARK    1  A    between atoms: C_3  and  C_4 
REMARK    2  A    between atoms: C_24  and  O_25 
ROOT
HETATM    1  O   UNK N   1      31.871  19.806  -6.311  0.00  0.00    -0.290 OA
HETATM    2  C   UNK N   1      31.657  20.395  -5.263  0.00  0.00     0.190 A 
HETATM    3  C   UNK N   1      32.580  20.476  -4.118  0.00  0.00     0.108 A 
HETATM    4  C   UNK N   1      30.379  21.094  -4.917  0.00  0.00     0.171 A 
HETATM    5  C   UNK N   1      29.926  22.344  -5.663  0.00  0.00     0.058 C 
HETATM    6  C   UNK N   1      29.082  22.184  -6.885  0.00  0.00    -0.023 A 
HETATM    7  C   UNK N   1      29.194  21.400  -8.028  0.00  0.00     0.097 A 
HETATM    8  N   UNK N   1      28.142  21.673  -8.856  0.00  0.00    -0.365 N 
HETATM    9  C   UNK N   1      27.415  22.625  -8.233  0.00  0.00     0.043 A 
HETATM   10  C   UNK N   1      27.981  22.952  -7.054  0.00  0.00     0.005 A 
HETATM   11  C   UNK N   1      26.251  23.258  -8.663  0.00  0.00     0.030 A 
HETATM   12  C   UNK N   1      25.697  24.254  -7.819  0.00  0.00     0.003 A 
HETATM   13  C   UNK N   1      26.324  24.598  -6.587  0.00  0.00     0.008 A 
HETATM   14  C   UNK N   1      27.498  23.930  -6.194  0.00  0.00    -0.045 A 
HETATM   15  C   UNK N   1      28.271  24.229  -4.914  0.00  0.00     0.047 C 
HETATM   16  C   UNK N   1      29.049  22.949  -4.518  0.00  0.00     0.028 C 
HETATM   17  C   UNK N   1      30.010  22.884  -3.312  0.00  0.00     0.033 C 
HETATM   18  C   UNK N   1      30.982  24.062  -3.313  0.00  0.00     0.039 C 
HETATM   19  C   UNK N   1      29.278  22.813  -1.983  0.00  0.00     0.039 C 
HETATM   20  N   UNK N   1      30.700  21.642  -3.624  0.00  0.00    -0.339 N 
HETATM   21  C   UNK N   1      31.989  21.242  -3.202  0.00  0.00     0.157 A 
HETATM   22  H   UNK N   1      27.952  21.259  -9.730  0.00  0.00     0.165 HD
ENDROOT
BRANCH   3  23
HETATM   23  C   UNK N   1      33.914  19.836  -4.011  0.00  0.00     0.163 C 
HETATM   24  C   UNK N   1      34.059  18.357  -4.150  0.00  0.00     0.097 C 
HETATM   25  O   UNK N   1      34.904  20.508  -3.768  0.00  0.00    -0.292 OA
ENDBRANCH   3  23
BRANCH  21  26
HETATM   26  O   UNK N   1      32.538  21.609  -2.025  0.00  0.00    -0.345 OA
HETATM   27  H   UNK N   1      33.232  21.107  -1.645  0.00  0.00     0.219 HD
ENDBRANCH  21  26
TORSDOF 2
ENDMDL
MODEL 6
REMARK VINA RESULT:      -7.3     16.920     18.892
REMARK  2 active torsions:
REMARK  status: ('A' for Active; 'I' for Inactive)
REMARK    1  A    between atoms: C_3  and  C_4 
REMARK    2  A    between atoms: C_24  and  O_25 
ROOT
HETATM    1  O   UNK N   1      20.013  16.436   6.050  0.00  0.00    -0.290 OA
HETATM    2  C   UNK N   1      21.086  16.102   5.574  0.00  0.00     0.190 A 
HETATM    3  C   UNK N   1      21.759  16.746   4.432  0.00  0.00     0.108 A 
HETATM    4  C   UNK N   1      21.894  14.924   6.022  0.00  0.00     0.171 A 
HETATM    5  C   UNK N   1      22.541  14.878   7.402  0.00  0.00     0.058 C 
HETATM    6  C   UNK N   1      21.757  14.314   8.543  0.00  0.00    -0.023 A 
HETATM    7  C   UNK N   1      20.471  14.537   9.023  0.00  0.00     0.097 A 
HETATM    8  N   UNK N   1      20.272  13.762  10.130  0.00  0.00    -0.365 N 
HETATM    9  C   UNK N   1      21.429  13.095  10.330  0.00  0.00     0.043 A 
HETATM   10  C   UNK N   1      22.335  13.432   9.391  0.00  0.00     0.005 A 
HETATM   11  C   UNK N   1      21.753  12.188  11.337  0.00  0.00     0.030 A 
HETATM   12  C   UNK N   1      23.063  11.645  11.334  0.00  0.00     0.003 A 
HETATM   13  C   UNK N   1      24.010  12.032  10.343  0.00  0.00     0.008 A 
HETATM   14  C   UNK N   1      23.637  12.951   9.345  0.00  0.00    -0.045 A 
HETATM   15  C   UNK N   1      24.570  13.459   8.251  0.00  0.00     0.047 C 
HETATM   16  C   UNK N   1      23.698  13.889   7.045  0.00  0.00     0.028 C 
HETATM   17  C   UNK N   1      24.281  14.530   5.767  0.00  0.00     0.033 C 
HETATM   18  C   UNK N   1      25.238  15.670   6.106  0.00  0.00     0.039 C 
HETATM   19  C   UNK N   1      24.971  13.519   4.868  0.00  0.00     0.039 C 
HETATM   20  N   UNK N   1      23.054  15.040   5.175  0.00  0.00    -0.339 N 
HETATM   21  C   UNK N   1      22.918  16.111   4.262  0.00  0.00     0.157 A 
HETATM   22  H   UNK N   1      19.452  13.701  10.672  0.00  0.00     0.165 HD
ENDROOT
BRANCH   3  23
HETATM   23  C   UNK N   1      21.247  17.887   3.634  0.00  0.00     0.163 C 
HETATM   24  C   UNK N   1      19.963  17.772   2.882  0.00  0.00     0.097 C 
HETATM   25  O   UNK N   1      21.893  18.920   3.551  0.00  0.00    -0.292 OA
ENDBRANCH   3  23
BRANCH  21  26
HETATM   26  O   UNK N   1      23.856  16.439   3.350  0.00  0.00    -0.345 OA
HETATM   27  H   UNK N   1      24.003  17.335   3.117  0.00  0.00     0.219 HD
ENDBRANCH  21  26
TORSDOF 2
ENDMDL
MODEL 7
REMARK VINA RESULT:      -7.3     14.902     16.985
REMARK  2 active torsions:
REMARK  status: ('A' for Active; 'I' for Inactive)
REMARK    1  A    between atoms: C_3  and  C_4 
REMARK    2  A    between atoms: C_24  and  O_25 
ROOT
HETATM    1  O   UNK N   1      32.454  16.089   5.225  0.00  0.00    -0.290 OA
HETATM    2  C   UNK N   1      31.754  16.484   6.143  0.00  0.00     0.190 A 
HETATM    3  C   UNK N   1      32.228  17.205   7.338  0.00  0.00     0.108 A 
HETATM    4  C   UNK N   1      30.280  16.249   6.262  0.00  0.00     0.171 A 
HETATM    5  C   UNK N   1      29.290  16.884   5.292  0.00  0.00     0.058 C 
HETATM    6  C   UNK N   1      28.939  16.146   4.041  0.00  0.00    -0.023 A 
HETATM    7  C   UNK N   1      29.695  15.530   3.050  0.00  0.00     0.097 A 
HETATM    8  N   UNK N   1      28.852  15.024   2.101  0.00  0.00    -0.365 N 
HETATM    9  C   UNK N   1      27.603  15.350   2.501  0.00  0.00     0.043 A 
HETATM   10  C   UNK N   1      27.645  16.039   3.659  0.00  0.00     0.005 A 
HETATM   11  C   UNK N   1      26.387  15.082   1.876  0.00  0.00     0.030 A 
HETATM   12  C   UNK N   1      25.209  15.565   2.501  0.00  0.00     0.003 A 
HETATM   13  C   UNK N   1      25.279  16.310   3.713  0.00  0.00     0.008 A 
HETATM   14  C   UNK N   1      26.531  16.555   4.308  0.00  0.00    -0.045 A 
HETATM   15  C   UNK N   1      26.733  17.359   5.588  0.00  0.00     0.047 C 
HETATM   16  C   UNK N   1      28.051  16.881   6.247  0.00  0.00     0.028 C 
HETATM   17  C   UNK N   1      28.634  17.517   7.527  0.00  0.00     0.033 C 
HETATM   18  C   UNK N   1      28.666  19.040   7.425  0.00  0.00     0.039 C 
HETATM   19  C   UNK N   1      27.890  17.093   8.782  0.00  0.00     0.039 C 
HETATM   20  N   UNK N   1      29.978  16.964   7.476  0.00  0.00    -0.339 N 
HETATM   21  C   UNK N   1      31.150  17.491   8.067  0.00  0.00     0.157 A 
HETATM   22  H   UNK N   1      29.102  14.524   1.290  0.00  0.00     0.165 HD
ENDROOT
BRANCH   3  23
HETATM   23  C   UNK N   1      33.634  17.551   7.660  0.00  0.00     0.163 C 
HETATM   24  C   UNK N   1      34.246  17.120   8.952  0.00  0.00     0.097 C 
HETATM   25  O   UNK N   1      34.295  18.229   6.888  0.00  0.00    -0.292 OA
ENDBRANCH   3  23
BRANCH  21  26
HETATM   26  O   UNK N   1      31.155  18.200   9.214  0.00  0.00    -0.345 OA
HETATM   27  H   UNK N   1      30.383  18.259   9.743  0.00  0.00     0.219 HD
ENDBRANCH  21  26
TORSDOF 2
ENDMDL
MODEL 8
REMARK VINA RESULT:      -7.3     12.821     14.879
REMARK  2 active torsions:
REMARK  status: ('A' for Active; 'I' for Inactive)
REMARK    1  A    between atoms: C_3  and  C_4 
REMARK    2  A    between atoms: C_24  and  O_25 
ROOT
HETATM    1  O   UNK N   1      23.954  20.719   3.428  0.00  0.00    -0.290 OA
HETATM    2  C   UNK N   1      23.433  19.704   3.860  0.00  0.00     0.190 A 
HETATM    3  C   UNK N   1      22.018  19.325   3.695  0.00  0.00     0.108 A 
HETATM    4  C   UNK N   1      24.123  18.678   4.704  0.00  0.00     0.171 A 
HETATM    5  C   UNK N   1      25.247  17.812   4.148  0.00  0.00     0.058 C 
HETATM    6  C   UNK N   1      26.653  18.311   4.248  0.00  0.00    -0.023 A 
HETATM    7  C   UNK N   1      27.264  19.517   3.927  0.00  0.00     0.097 A 
HETATM    8  N   UNK N   1      28.600  19.421   4.198  0.00  0.00    -0.365 N 
HETATM    9  C   UNK N   1      28.798  18.166   4.655  0.00  0.00     0.043 A 
HETATM   10  C   UNK N   1      27.636  17.484   4.674  0.00  0.00     0.005 A 
HETATM   11  C   UNK N   1      29.986  17.558   5.055  0.00  0.00     0.030 A 
HETATM   12  C   UNK N   1      29.921  16.204   5.472  0.00  0.00     0.003 A 
HETATM   13  C   UNK N   1      28.685  15.496   5.463  0.00  0.00     0.008 A 
HETATM   14  C   UNK N   1      27.510  16.153   5.052  0.00  0.00    -0.045 A 
HETATM   15  C   UNK N   1      26.137  15.494   4.975  0.00  0.00     0.047 C 
HETATM   16  C   UNK N   1      25.068  16.604   5.125  0.00  0.00     0.028 C 
HETATM   17  C   UNK N   1      23.551  16.335   5.023  0.00  0.00     0.033 C 
HETATM   18  C   UNK N   1      23.218  15.502   3.788  0.00  0.00     0.039 C 
HETATM   19  C   UNK N   1      22.990  15.670   6.268  0.00  0.00     0.039 C 
HETATM   20  N   UNK N   1      23.077  17.702   4.872  0.00  0.00    -0.339 N 
HETATM   21  C   UNK N   1      21.870  18.134   4.273  0.00  0.00     0.157 A 
HETATM   22  H   UNK N   1      29.281  20.124   4.083  0.00  0.00     0.165 HD
ENDROOT
BRANCH   3  23
HETATM   23  C   UNK N   1      20.967  20.115   3.009  0.00  0.00     0.163 C 
HETATM   24  C   UNK N   1      20.858  20.104   1.521  0.00  0.00     0.097 C 
HETATM   25  O   UNK N   1      20.203  20.817   3.654  0.00  0.00    -0.292 OA
ENDBRANCH   3  23
BRANCH  21  26
HETATM   26  O   UNK N   1      20.729  17.415   4.287  0.00  0.00    -0.345 OA
HETATM   27  H   UNK N   1      20.232  17.293   3.502  0.00  0.00     0.219 HD
ENDBRANCH  21  26
TORSDOF 2
ENDMDL
MODEL 9
REMARK VINA RESULT:      -7.3      2.369      2.723
REMARK  2 active torsions:
REMARK  status: ('A' for Active; 'I' for Inactive)
REMARK    1  A    between atoms: C_3  and  C_4 
REMARK    2  A    between atoms: C_24  and  O_25 
ROOT
HETATM    1  O   UNK N   1      24.893  25.131  -5.588  0.00  0.00    -0.290 OA
HETATM    2  C   UNK N   1      25.990  24.600  -5.521  0.00  0.00     0.190 A 
HETATM    3  C   UNK N   1      26.414  23.405  -6.271  0.00  0.00     0.108 A 
HETATM    4  C   UNK N   1      27.096  25.027  -4.606  0.00  0.00     0.171 A 
HETATM    5  C   UNK N   1      27.803  26.366  -4.780  0.00  0.00     0.058 C 
HETATM    6  C   UNK N   1      27.251  27.564  -4.077  0.00  0.00    -0.023 A 
HETATM    7  C   UNK N   1      25.978  28.115  -3.984  0.00  0.00     0.097 A 
HETATM    8  N   UNK N   1      26.042  29.250  -3.226  0.00  0.00    -0.365 N 
HETATM    9  C   UNK N   1      27.341  29.397  -2.885  0.00  0.00     0.043 A 
HETATM   10  C   UNK N   1      28.080  28.397  -3.406  0.00  0.00     0.005 A 
HETATM   11  C   UNK N   1      27.939  30.403  -2.129  0.00  0.00     0.030 A 
HETATM   12  C   UNK N   1      29.342  30.334  -1.939  0.00  0.00     0.003 A 
HETATM   13  C   UNK N   1      30.106  29.280  -2.517  0.00  0.00     0.008 A 
HETATM   14  C   UNK N   1      29.458  28.284  -3.272  0.00  0.00    -0.045 A 
HETATM   15  C   UNK N   1      30.170  27.125  -3.960  0.00  0.00     0.047 C 
HETATM   16  C   UNK N   1      29.156  25.963  -4.106  0.00  0.00     0.028 C 
HETATM   17  C   UNK N   1      29.487  24.638  -4.825  0.00  0.00     0.033 C 
HETATM   18  C   UNK N   1      30.135  24.892  -6.184  0.00  0.00     0.039 C 
HETATM   19  C   UNK N   1      30.366  23.723  -3.991  0.00  0.00     0.039 C 
HETATM   20  N   UNK N   1      28.141  24.109  -4.982  0.00  0.00    -0.339 N 
HETATM   21  C   UNK N   1      27.687  23.180  -5.947  0.00  0.00     0.157 A 
HETATM   22  H   UNK N   1      25.295  29.842  -2.978  0.00  0.00     0.165 HD
ENDROOT
BRANCH   3  23
HETATM   23  C   UNK N   1      25.585  22.612  -7.212  0.00  0.00     0.163 C 
HETATM   24  C   UNK N   1      25.785  22.732  -8.686  0.00  0.00     0.097 C 
HETATM   25  O   UNK N   1      24.701  21.882  -6.791  0.00  0.00    -0.292 OA
ENDBRANCH   3  23
BRANCH  21  26
HETATM   26  O   UNK N   1      28.460  22.206  -6.469  0.00  0.00    -0.345 OA
HETATM   27  H   UNK N   1      28.145  21.671  -7.171  0.00  0.00     0.219 HD
ENDBRANCH  21  26
TORSDOF 2
ENDMDL
