MODEL 1
REMARK VINA RESULT:      -7.8      0.000      0.000
REMARK  6 active torsions:
REMARK  status: ('A' for Active; 'I' for Inactive)
REMARK    1  A    between atoms: C_2  and  C_22 
REMARK    2  A    between atoms: N_8  and  C_13 
REMARK    3  A    between atoms: C_11  and  C_20 
REMARK    4  A    between atoms: C_22  and  C_25 
REMARK    5  A    between atoms: C_27  and  O_31 
REMARK    6  A    between atoms: C_28  and  O_32 
ROOT
HETATM    1  N   UNK N   1      21.149  15.339   7.429  0.00  0.00    -0.312 N 
HETATM    2  C   UNK N   1      21.477  14.205   6.729  0.00  0.00     0.089 A 
HETATM    3  N   UNK N   1      21.845  14.297   5.414  0.00  0.00    -0.329 N 
ATOM      4  HN  UNK N   1      22.082  13.455   4.887  1.00  0.00     0.168 HD
HETATM    5  C   UNK N   1      21.893  15.507   4.819  0.00  0.00     0.146 A 
HETATM    6  C   UNK N   1      21.542  16.638   5.479  0.00  0.00     0.102 A 
HETATM    7  C   UNK N   1      21.172  16.575   6.818  0.00  0.00     0.262 A 
HETATM    8  N   UNK N   1      22.180  15.789   3.526  0.00  0.00    -0.235 N 
HETATM    9  N   UNK N   1      21.994  17.098   3.357  0.00  0.00    -0.295 N 
ATOM     10  HN  UNK N   1      22.118  17.607   2.482  1.00  0.00     0.187 HD
HETATM   11  C   UNK N   1      21.615  17.642   4.541  0.00  0.00     0.045 A 
HETATM   12  O   UNK N   1      20.851  17.575   7.434  0.00  0.00    -0.267 OA
HETATM   13  H   UNK N   1      20.897  15.269   8.377  0.00  0.00     0.170 HD
ENDROOT
BRANCH   2  14
HETATM   14  C   UNK N   1      21.380  12.859   7.397  0.00  0.00     0.115 C 
BRANCH  14  15
HETATM   15  C   UNK N   1      22.369  12.682   8.513  0.00  0.00    -0.048 A 
HETATM   16  C   UNK N   1      21.930  12.253   9.770  0.00  0.00     0.047 A 
HETATM   17  C   UNK N   1      22.841  12.124  10.825  0.00  0.00     0.099 A 
HETATM   18  C   UNK N   1      24.193  12.437  10.627  0.00  0.00     0.098 A 
HETATM   19  C   UNK N   1      24.635  12.854   9.369  0.00  0.00     0.040 A 
HETATM   20  C   UNK N   1      23.728  12.968   8.313  0.00  0.00     0.010 A 
BRANCH  17  21
HETATM   21  O   UNK N   1      22.411  11.705  12.028  0.00  0.00    -0.358 OA
HETATM   22  H   UNK N   1      21.760  11.103  12.332  0.00  0.00     0.217 HD
ENDBRANCH  17  21
BRANCH  18  23
HETATM   23  O   UNK N   1      25.071  12.337  11.640  0.00  0.00    -0.358 OA
HETATM   24  H   UNK N   1      24.787  12.477  12.522  0.00  0.00     0.217 HD
ENDBRANCH  18  23
ENDBRANCH  14  15
ENDBRANCH   2  14
BRANCH   8  25
HETATM   25  C   UNK N   1      22.525  14.882   2.435  0.00  0.00     0.102 A 
HETATM   26  C   UNK N   1      23.878  14.617   2.040  0.00  0.00     0.066 A 
HETATM   27  C   UNK N   1      24.144  13.700   1.022  0.00  0.00     0.050 A 
HETATM   28 Cl   UNK N   1      25.286  15.468   2.654  0.00  0.00    -0.082 Cl
HETATM   29  C   UNK N   1      23.116  13.035   0.370  0.00  0.00     0.037 A 
HETATM   30  C   UNK N   1      21.797  13.307   0.701  0.00  0.00     0.050 A 
HETATM   31 Cl   UNK N   1      23.482  11.866  -0.881  0.00  0.00    -0.084 Cl
HETATM   32  C   UNK N   1      21.487  14.220   1.710  0.00  0.00     0.066 A 
HETATM   33 Cl   UNK N   1      19.775  14.444   2.052  0.00  0.00    -0.082 Cl
ENDBRANCH   8  25
BRANCH  11  34
HETATM   34  C   UNK N   1      21.254  19.079   4.754  0.00  0.00     0.055 C 
HETATM   35  C   UNK N   1      20.908  19.775   3.449  0.00  0.00     0.011 C 
ENDBRANCH  11  34
TORSDOF 6
ENDMDL
MODEL 2
REMARK VINA RESULT:      -7.5      4.576      6.205
REMARK  6 active torsions:
REMARK  status: ('A' for Active; 'I' for Inactive)
REMARK    1  A    between atoms: C_2  and  C_22 
REMARK    2  A    between atoms: N_8  and  C_13 
REMARK    3  A    between atoms: C_11  and  C_20 
REMARK    4  A    between atoms: C_22  and  C_25 
REMARK    5  A    between atoms: C_27  and  O_31 
REMARK    6  A    between atoms: C_28  and  O_32 
ROOT
HETATM    1  N   UNK N   1      25.051  20.678   3.219  0.00  0.00    -0.312 N 
HETATM    2  C   UNK N   1      25.816  19.617   3.634  0.00  0.00     0.089 A 
HETATM    3  N   UNK N   1      25.219  18.427   3.949  0.00  0.00    -0.329 N 
ATOM      4  HN  UNK N   1      25.783  17.638   4.266  1.00  0.00     0.168 HD
HETATM    5  C   UNK N   1      23.880  18.303   3.836  0.00  0.00     0.146 A 
HETATM    6  C   UNK N   1      23.100  19.346   3.460  0.00  0.00     0.102 A 
HETATM    7  C   UNK N   1      23.680  20.565   3.127  0.00  0.00     0.262 A 
HETATM    8  N   UNK N   1      23.113  17.232   4.149  0.00  0.00    -0.235 N 
HETATM    9  N   UNK N   1      21.841  17.598   3.990  0.00  0.00    -0.295 N 
ATOM     10  HN  UNK N   1      21.028  17.008   4.164  1.00  0.00     0.187 HD
HETATM   11  C   UNK N   1      21.807  18.884   3.558  0.00  0.00     0.045 A 
HETATM   12  O   UNK N   1      23.002  21.518   2.788  0.00  0.00    -0.267 OA
HETATM   13  H   UNK N   1      25.486  21.528   2.983  0.00  0.00     0.170 HD
ENDROOT
BRANCH   2  14
HETATM   14  C   UNK N   1      27.305  19.784   3.793  0.00  0.00     0.115 C 
BRANCH  14  15
HETATM   15  C   UNK N   1      27.854  19.062   4.990  0.00  0.00    -0.048 A 
HETATM   16  C   UNK N   1      27.451  19.438   6.275  0.00  0.00     0.047 A 
HETATM   17  C   UNK N   1      27.988  18.796   7.396  0.00  0.00     0.099 A 
HETATM   18  C   UNK N   1      28.942  17.780   7.232  0.00  0.00     0.098 A 
HETATM   19  C   UNK N   1      29.337  17.395   5.949  0.00  0.00     0.040 A 
HETATM   20  C   UNK N   1      28.788  18.027   4.831  0.00  0.00     0.010 A 
BRANCH  17  21
HETATM   21  O   UNK N   1      27.590  19.160   8.627  0.00  0.00    -0.358 OA
HETATM   22  H   UNK N   1      27.022  19.817   8.978  0.00  0.00     0.217 HD
ENDBRANCH  17  21
BRANCH  18  23
HETATM   23  O   UNK N   1      29.480  17.173   8.304  0.00  0.00    -0.358 OA
HETATM   24  H   UNK N   1      30.137  16.515   8.190  0.00  0.00     0.217 HD
ENDBRANCH  18  23
ENDBRANCH  14  15
ENDBRANCH   2  14
BRANCH   8  25
HETATM   25  C   UNK N   1      23.512  15.929   4.674  0.00  0.00     0.102 A 
HETATM   26  C   UNK N   1      24.384  15.038   3.965  0.00  0.00     0.066 A 
HETATM   27  C   UNK N   1      24.768  13.827   4.544  0.00  0.00     0.050 A 
HETATM   28 Cl   UNK N   1      24.936  15.277   2.316  0.00  0.00    -0.082 Cl
HETATM   29  C   UNK N   1      24.316  13.458   5.802  0.00  0.00     0.037 A 
HETATM   30  C   UNK N   1      23.434  14.281   6.488  0.00  0.00     0.050 A 
HETATM   31 Cl   UNK N   1      24.841  11.948   6.516  0.00  0.00    -0.084 Cl
HETATM   32  C   UNK N   1      23.021  15.498   5.945  0.00  0.00     0.066 A 
HETATM   33 Cl   UNK N   1      21.930  16.459   6.937  0.00  0.00    -0.082 Cl
ENDBRANCH   8  25
BRANCH  11  34
HETATM   34  C   UNK N   1      20.563  19.680   3.316  0.00  0.00     0.055 C 
HETATM   35  C   UNK N   1      19.456  18.831   2.714  0.00  0.00     0.011 C 
ENDBRANCH  11  34
TORSDOF 6
ENDMDL
MODEL 3
REMARK VINA RESULT:      -7.5      4.821      6.190
REMARK  6 active torsions:
REMARK  status: ('A' for Active; 'I' for Inactive)
REMARK    1  A    between atoms: C_2  and  C_22 
REMARK    2  A    between atoms: N_8  and  C_13 
REMARK    3  A    between atoms: C_11  and  C_20 
REMARK    4  A    between atoms: C_22  and  C_25 
REMARK    5  A    between atoms: C_27  and  O_31 
REMARK    6  A    between atoms: C_28  and  O_32 
ROOT
HETATM    1  N   UNK N   1      23.747  15.872   5.068  0.00  0.00    -0.312 N 
HETATM    2  C   UNK N   1      24.826  15.214   5.604  0.00  0.00     0.089 A 
HETATM    3  N   UNK N   1      26.010  15.877   5.779  0.00  0.00    -0.329 N 
ATOM      4  HN  UNK N   1      26.818  15.390   6.170  1.00  0.00     0.168 HD
HETATM    5  C   UNK N   1      26.104  17.178   5.432  0.00  0.00     0.146 A 
HETATM    6  C   UNK N   1      25.063  17.839   4.870  0.00  0.00     0.102 A 
HETATM    7  C   UNK N   1      23.845  17.193   4.688  0.00  0.00     0.262 A 
HETATM    8  N   UNK N   1      27.195  17.977   5.482  0.00  0.00    -0.235 N 
HETATM    9  N   UNK N   1      26.855  19.144   4.934  0.00  0.00    -0.295 N 
ATOM     10  HN  UNK N   1      27.473  19.946   4.815  1.00  0.00     0.187 HD
HETATM   11  C   UNK N   1      25.551  19.088   4.562  0.00  0.00     0.045 A 
HETATM   12  O   UNK N   1      22.894  17.763   4.184  0.00  0.00    -0.267 OA
HETATM   13  H   UNK N   1      22.894  15.394   4.955  0.00  0.00     0.170 HD
ENDROOT
BRANCH   2  14
HETATM   14  C   UNK N   1      24.717  13.752   5.948  0.00  0.00     0.115 C 
BRANCH  14  15
HETATM   15  C   UNK N   1      24.246  13.512   7.355  0.00  0.00    -0.048 A 
HETATM   16  C   UNK N   1      25.164  13.535   8.409  0.00  0.00     0.047 A 
HETATM   17  C   UNK N   1      24.739  13.273   9.717  0.00  0.00     0.099 A 
HETATM   18  C   UNK N   1      23.391  12.975   9.969  0.00  0.00     0.098 A 
HETATM   19  C   UNK N   1      22.471  12.963   8.918  0.00  0.00     0.040 A 
HETATM   20  C   UNK N   1      22.895  13.240   7.616  0.00  0.00     0.010 A 
BRANCH  17  21
HETATM   21  O   UNK N   1      25.627  13.304  10.725  0.00  0.00    -0.358 OA
HETATM   22  H   UNK N   1      25.578  13.408  11.655  0.00  0.00     0.217 HD
ENDBRANCH  17  21
BRANCH  18  23
HETATM   23  O   UNK N   1      22.978  12.701  11.218  0.00  0.00    -0.358 OA
HETATM   24  H   UNK N   1      22.959  11.815  11.523  0.00  0.00     0.217 HD
ENDBRANCH  18  23
ENDBRANCH  14  15
ENDBRANCH   2  14
BRANCH   8  25
HETATM   25  C   UNK N   1      28.551  17.667   5.928  0.00  0.00     0.102 A 
HETATM   26  C   UNK N   1      28.999  17.894   7.272  0.00  0.00     0.066 A 
HETATM   27  C   UNK N   1      30.293  17.528   7.649  0.00  0.00     0.050 A 
HETATM   28 Cl   UNK N   1      28.080  18.739   8.506  0.00  0.00    -0.082 Cl
HETATM   29  C   UNK N   1      31.168  16.950   6.742  0.00  0.00     0.037 A 
HETATM   30  C   UNK N   1      30.774  16.763   5.425  0.00  0.00     0.050 A 
HETATM   31 Cl   UNK N   1      32.773  16.473   7.253  0.00  0.00    -0.084 Cl
HETATM   32  C   UNK N   1      29.492  17.117   5.004  0.00  0.00     0.066 A 
HETATM   33 Cl   UNK N   1      29.113  16.793   3.317  0.00  0.00    -0.082 Cl
ENDBRANCH   8  25
BRANCH  11  34
HETATM   34  C   UNK N   1      24.808  20.180   3.857  0.00  0.00     0.055 C 
HETATM   35  C   UNK N   1      25.441  20.524   2.520  0.00  0.00     0.011 C 
ENDBRANCH  11  34
TORSDOF 6
ENDMDL
MODEL 4
REMARK VINA RESULT:      -7.5      6.317      7.389
REMARK  6 active torsions:
REMARK  status: ('A' for Active; 'I' for Inactive)
REMARK    1  A    between atoms: C_2  and  C_22 
REMARK    2  A    between atoms: N_8  and  C_13 
REMARK    3  A    between atoms: C_11  and  C_20 
REMARK    4  A    between atoms: C_22  and  C_25 
REMARK    5  A    between atoms: C_27  and  O_31 
REMARK    6  A    between atoms: C_28  and  O_32 
ROOT
HETATM    1  N   UNK N   1      27.680  19.320   6.889  0.00  0.00    -0.312 N 
HETATM    2  C   UNK N   1      28.086  18.015   6.757  0.00  0.00     0.089 A 
HETATM    3  N   UNK N   1      27.681  17.281   5.676  0.00  0.00    -0.329 N 
ATOM      4  HN  UNK N   1      27.974  16.308   5.578  1.00  0.00     0.168 HD
HETATM    5  C   UNK N   1      26.892  17.850   4.741  0.00  0.00     0.146 A 
HETATM    6  C   UNK N   1      26.451  19.126   4.866  0.00  0.00     0.102 A 
HETATM    7  C   UNK N   1      26.854  19.899   5.950  0.00  0.00     0.262 A 
HETATM    8  N   UNK N   1      26.353  17.273   3.642  0.00  0.00    -0.235 N 
HETATM    9  N   UNK N   1      25.552  18.176   3.075  0.00  0.00    -0.295 N 
ATOM     10  HN  UNK N   1      24.993  18.028   2.235  1.00  0.00     0.187 HD
HETATM   11  C   UNK N   1      25.604  19.322   3.799  0.00  0.00     0.045 A 
HETATM   12  O   UNK N   1      26.470  21.046   6.087  0.00  0.00    -0.267 OA
HETATM   13  H   UNK N   1      27.984  19.847   7.662  0.00  0.00     0.170 HD
ENDROOT
BRANCH   2  14
HETATM   14  C   UNK N   1      28.934  17.383   7.829  0.00  0.00     0.115 C 
BRANCH  14  15
HETATM   15  C   UNK N   1      30.402  17.406   7.510  0.00  0.00    -0.048 A 
HETATM   16  C   UNK N   1      31.332  17.621   8.532  0.00  0.00     0.047 A 
HETATM   17  C   UNK N   1      32.699  17.683   8.236  0.00  0.00     0.099 A 
HETATM   18  C   UNK N   1      33.136  17.543   6.911  0.00  0.00     0.098 A 
HETATM   19  C   UNK N   1      32.209  17.317   5.891  0.00  0.00     0.040 A 
HETATM   20  C   UNK N   1      30.847  17.239   6.190  0.00  0.00     0.010 A 
BRANCH  17  21
HETATM   21  O   UNK N   1      33.586  17.883   9.226  0.00  0.00    -0.358 OA
HETATM   22  H   UNK N   1      33.848  17.413   9.993  0.00  0.00     0.217 HD
ENDBRANCH  17  21
BRANCH  18  23
HETATM   23  O   UNK N   1      34.445  17.623   6.615  0.00  0.00    -0.358 OA
HETATM   24  H   UNK N   1      35.020  18.125   7.158  0.00  0.00     0.217 HD
ENDBRANCH  18  23
ENDBRANCH  14  15
ENDBRANCH   2  14
BRANCH   8  25
HETATM   25  C   UNK N   1      26.480  15.900   3.159  0.00  0.00     0.102 A 
HETATM   26  C   UNK N   1      25.377  14.985   3.115  0.00  0.00     0.066 A 
HETATM   27  C   UNK N   1      25.553  13.701   2.595  0.00  0.00     0.050 A 
HETATM   28 Cl   UNK N   1      23.790  15.294   3.800  0.00  0.00    -0.082 Cl
HETATM   29  C   UNK N   1      26.786  13.283   2.119  0.00  0.00     0.037 A 
HETATM   30  C   UNK N   1      27.880  14.134   2.193  0.00  0.00     0.050 A 
HETATM   31 Cl   UNK N   1      26.968  11.680   1.442  0.00  0.00    -0.084 Cl
HETATM   32  C   UNK N   1      27.749  15.424   2.709  0.00  0.00     0.066 A 
HETATM   33 Cl   UNK N   1      29.208  16.408   2.712  0.00  0.00    -0.082 Cl
ENDBRANCH   8  25
BRANCH  11  34
HETATM   34  C   UNK N   1      24.801  20.554   3.522  0.00  0.00     0.055 C 
HETATM   35  C   UNK N   1      23.394  20.221   3.056  0.00  0.00     0.011 C 
ENDBRANCH  11  34
TORSDOF 6
ENDMDL
MODEL 5
REMARK VINA RESULT:      -7.5      2.572      4.058
REMARK  6 active torsions:
REMARK  status: ('A' for Active; 'I' for Inactive)
REMARK    1  A    between atoms: C_2  and  C_22 
REMARK    2  A    between atoms: N_8  and  C_13 
REMARK    3  A    between atoms: C_11  and  C_20 
REMARK    4  A    between atoms: C_22  and  C_25 
REMARK    5  A    between atoms: C_27  and  O_31 
REMARK    6  A    between atoms: C_28  and  O_32 
ROOT
HETATM    1  N   UNK N   1      19.539  14.814   6.443  0.00  0.00    -0.312 N 
HETATM    2  C   UNK N   1      20.581  15.572   6.916  0.00  0.00     0.089 A 
HETATM    3  N   UNK N   1      21.419  16.203   6.039  0.00  0.00    -0.329 N 
ATOM      4  HN  UNK N   1      22.200  16.762   6.386  1.00  0.00     0.168 HD
HETATM    5  C   UNK N   1      21.207  16.083   4.712  0.00  0.00     0.146 A 
HETATM    6  C   UNK N   1      20.206  15.314   4.219  0.00  0.00     0.102 A 
HETATM    7  C   UNK N   1      19.333  14.668   5.088  0.00  0.00     0.262 A 
HETATM    8  N   UNK N   1      21.953  16.586   3.700  0.00  0.00    -0.235 N 
HETATM    9  N   UNK N   1      21.439  16.121   2.561  0.00  0.00    -0.295 N 
ATOM     10  HN  UNK N   1      21.796  16.314   1.626  1.00  0.00     0.187 HD
HETATM   11  C   UNK N   1      20.361  15.349   2.852  0.00  0.00     0.045 A 
HETATM   12  O   UNK N   1      18.427  13.969   4.672  0.00  0.00    -0.267 OA
HETATM   13  H   UNK N   1      18.932  14.372   7.078  0.00  0.00     0.170 HD
ENDROOT
BRANCH   2  14
HETATM   14  C   UNK N   1      20.827  15.663   8.399  0.00  0.00     0.115 C 
BRANCH  14  15
HETATM   15  C   UNK N   1      21.348  14.384   8.989  0.00  0.00    -0.048 A 
HETATM   16  C   UNK N   1      20.662  13.775  10.046  0.00  0.00     0.047 A 
HETATM   17  C   UNK N   1      21.163  12.604  10.626  0.00  0.00     0.099 A 
HETATM   18  C   UNK N   1      22.361  12.045  10.157  0.00  0.00     0.098 A 
HETATM   19  C   UNK N   1      23.040  12.646   9.094  0.00  0.00     0.040 A 
HETATM   20  C   UNK N   1      22.531  13.806   8.506  0.00  0.00     0.010 A 
BRANCH  17  21
HETATM   21  O   UNK N   1      20.493  12.022  11.636  0.00  0.00    -0.358 OA
HETATM   22  H   UNK N   1      20.502  12.093  12.571  0.00  0.00     0.217 HD
ENDBRANCH  17  21
BRANCH  18  23
HETATM   23  O   UNK N   1      22.860  10.933  10.722  0.00  0.00    -0.358 OA
HETATM   24  H   UNK N   1      23.730  10.933  11.069  0.00  0.00     0.217 HD
ENDBRANCH  18  23
ENDBRANCH  14  15
ENDBRANCH   2  14
BRANCH   8  25
HETATM   25  C   UNK N   1      23.168  17.395   3.758  0.00  0.00     0.102 A 
HETATM   26  C   UNK N   1      24.479  16.823   3.870  0.00  0.00     0.066 A 
HETATM   27  C   UNK N   1      25.605  17.650   3.869  0.00  0.00     0.050 A 
HETATM   28 Cl   UNK N   1      24.811  15.123   4.150  0.00  0.00    -0.082 Cl
HETATM   29  C   UNK N   1      25.483  19.028   3.767  0.00  0.00     0.037 A 
HETATM   30  C   UNK N   1      24.224  19.607   3.703  0.00  0.00     0.050 A 
HETATM   31 Cl   UNK N   1      26.914  20.035   3.735  0.00  0.00    -0.084 Cl
HETATM   32  C   UNK N   1      23.073  18.819   3.706  0.00  0.00     0.066 A 
HETATM   33 Cl   UNK N   1      21.544  19.682   3.585  0.00  0.00    -0.082 Cl
ENDBRANCH   8  25
BRANCH  11  34
HETATM   34  C   UNK N   1      19.542  14.599   1.849  0.00  0.00     0.055 C 
HETATM   35  C   UNK N   1      20.407  13.743   0.938  0.00  0.00     0.011 C 
ENDBRANCH  11  34
TORSDOF 6
ENDMDL
MODEL 6
REMARK VINA RESULT:      -7.5      4.927      6.276
REMARK  6 active torsions:
REMARK  status: ('A' for Active; 'I' for Inactive)
REMARK    1  A    between atoms: C_2  and  C_22 
REMARK    2  A    between atoms: N_8  and  C_13 
REMARK    3  A    between atoms: C_11  and  C_20 
REMARK    4  A    between atoms: C_22  and  C_25 
REMARK    5  A    between atoms: C_27  and  O_31 
REMARK    6  A    between atoms: C_28  and  O_32 
ROOT
HETATM    1  N   UNK N   1      23.878  15.933   5.142  0.00  0.00    -0.312 N 
HETATM    2  C   UNK N   1      24.954  15.235   5.632  0.00  0.00     0.089 A 
HETATM    3  N   UNK N   1      26.163  15.858   5.774  0.00  0.00    -0.329 N 
ATOM      4  HN  UNK N   1      26.968  15.342   6.131  1.00  0.00     0.168 HD
HETATM    5  C   UNK N   1      26.285  17.161   5.441  0.00  0.00     0.146 A 
HETATM    6  C   UNK N   1      25.247  17.862   4.924  0.00  0.00     0.102 A 
HETATM    7  C   UNK N   1      24.004  17.256   4.776  0.00  0.00     0.262 A 
HETATM    8  N   UNK N   1      27.402  17.925   5.463  0.00  0.00    -0.235 N 
HETATM    9  N   UNK N   1      27.080  19.110   4.943  0.00  0.00    -0.295 N 
ATOM     10  HN  UNK N   1      27.718  19.894   4.813  1.00  0.00     0.187 HD
HETATM   11  C   UNK N   1      25.763  19.100   4.616  0.00  0.00     0.045 A 
HETATM   12  O   UNK N   1      23.055  17.862   4.313  0.00  0.00    -0.267 OA
HETATM   13  H   UNK N   1      23.007  15.483   5.052  0.00  0.00     0.170 HD
ENDROOT
BRANCH   2  14
HETATM   14  C   UNK N   1      24.811  13.772   5.961  0.00  0.00     0.115 C 
BRANCH  14  15
HETATM   15  C   UNK N   1      24.316  13.529   7.358  0.00  0.00    -0.048 A 
HETATM   16  C   UNK N   1      25.216  13.546   8.428  0.00  0.00     0.047 A 
HETATM   17  C   UNK N   1      24.768  13.281   9.727  0.00  0.00     0.099 A 
HETATM   18  C   UNK N   1      23.417  12.985   9.956  0.00  0.00     0.098 A 
HETATM   19  C   UNK N   1      22.514  12.979   8.890  0.00  0.00     0.040 A 
HETATM   20  C   UNK N   1      22.960  13.259   7.596  0.00  0.00     0.010 A 
BRANCH  17  21
HETATM   21  O   UNK N   1      25.640  13.307  10.750  0.00  0.00    -0.358 OA
HETATM   22  H   UNK N   1      26.523  13.024  10.882  0.00  0.00     0.217 HD
ENDBRANCH  17  21
BRANCH  18  23
HETATM   23  O   UNK N   1      22.982  12.708  11.197  0.00  0.00    -0.358 OA
HETATM   24  H   UNK N   1      22.064  12.720  11.387  0.00  0.00     0.217 HD
ENDBRANCH  18  23
ENDBRANCH  14  15
ENDBRANCH   2  14
BRANCH   8  25
HETATM   25  C   UNK N   1      28.762  17.568   5.858  0.00  0.00     0.102 A 
HETATM   26  C   UNK N   1      29.733  17.058   4.933  0.00  0.00     0.066 A 
HETATM   27  C   UNK N   1      31.032  16.783   5.364  0.00  0.00     0.050 A 
HETATM   28 Cl   UNK N   1      29.393  16.607   3.271  0.00  0.00    -0.082 Cl
HETATM   29  C   UNK N   1      31.410  16.988   6.682  0.00  0.00     0.037 A 
HETATM   30  C   UNK N   1      30.477  17.437   7.606  0.00  0.00     0.050 A 
HETATM   31 Cl   UNK N   1      33.055  16.666   7.184  0.00  0.00    -0.084 Cl
HETATM   32  C   UNK N   1      29.166  17.720   7.220  0.00  0.00     0.066 A 
HETATM   33 Cl   UNK N   1      28.098  18.315   8.485  0.00  0.00    -0.082 Cl
ENDBRANCH   8  25
BRANCH  11  34
HETATM   34  C   UNK N   1      25.031  20.223   3.951  0.00  0.00     0.055 C 
HETATM   35  C   UNK N   1      25.704  20.652   2.659  0.00  0.00     0.011 C 
ENDBRANCH  11  34
TORSDOF 6
ENDMDL
MODEL 7
REMARK VINA RESULT:      -7.4      6.457      7.354
REMARK  6 active torsions:
REMARK  status: ('A' for Active; 'I' for Inactive)
REMARK    1  A    between atoms: C_2  and  C_22 
REMARK    2  A    between atoms: N_8  and  C_13 
REMARK    3  A    between atoms: C_11  and  C_20 
REMARK    4  A    between atoms: C_22  and  C_25 
REMARK    5  A    between atoms: C_27  and  O_31 
REMARK    6  A    between atoms: C_28  and  O_32 
ROOT
HETATM    1  N   UNK N   1      27.722  19.242   6.982  0.00  0.00    -0.312 N 
HETATM    2  C   UNK N   1      28.192  17.965   6.798  0.00  0.00     0.089 A 
HETATM    3  N   UNK N   1      27.828  17.258   5.685  0.00  0.00    -0.329 N 
ATOM      4  HN  UNK N   1      28.168  16.306   5.547  1.00  0.00     0.168 HD
HETATM    5  C   UNK N   1      27.017  17.829   4.769  0.00  0.00     0.146 A 
HETATM    6  C   UNK N   1      26.514  19.075   4.944  0.00  0.00     0.102 A 
HETATM    7  C   UNK N   1      26.873  19.819   6.063  0.00  0.00     0.262 A 
HETATM    8  N   UNK N   1      26.511  17.273   3.642  0.00  0.00    -0.235 N 
HETATM    9  N   UNK N   1      25.671  18.160   3.109  0.00  0.00    -0.295 N 
ATOM     10  HN  UNK N   1      25.124  18.021   2.259  1.00  0.00     0.187 HD
HETATM   11  C   UNK N   1      25.663  19.275   3.881  0.00  0.00     0.045 A 
HETATM   12  O   UNK N   1      26.434  20.941   6.245  0.00  0.00    -0.267 OA
HETATM   13  H   UNK N   1      27.996  19.750   7.779  0.00  0.00     0.170 HD
ENDROOT
BRANCH   2  14
HETATM   14  C   UNK N   1      29.064  17.329   7.848  0.00  0.00     0.115 C 
BRANCH  14  15
HETATM   15  C   UNK N   1      30.532  17.491   7.573  0.00  0.00    -0.048 A 
HETATM   16  C   UNK N   1      31.050  17.122   6.327  0.00  0.00     0.047 A 
HETATM   17  C   UNK N   1      32.423  17.234   6.077  0.00  0.00     0.099 A 
HETATM   18  C   UNK N   1      33.282  17.704   7.080  0.00  0.00     0.098 A 
HETATM   19  C   UNK N   1      32.764  18.084   8.321  0.00  0.00     0.040 A 
HETATM   20  C   UNK N   1      31.392  17.986   8.563  0.00  0.00     0.010 A 
BRANCH  17  21
HETATM   21  O   UNK N   1      32.911  16.883   4.875  0.00  0.00    -0.358 OA
HETATM   22  H   UNK N   1      33.057  17.322   4.060  0.00  0.00     0.217 HD
ENDBRANCH  17  21
BRANCH  18  23
HETATM   23  O   UNK N   1      34.604  17.795   6.856  0.00  0.00    -0.358 OA
HETATM   24  H   UNK N   1      35.212  17.497   7.505  0.00  0.00     0.217 HD
ENDBRANCH  18  23
ENDBRANCH  14  15
ENDBRANCH   2  14
BRANCH   8  25
HETATM   25  C   UNK N   1      26.708  15.930   3.103  0.00  0.00     0.102 A 
HETATM   26  C   UNK N   1      27.991  15.434   2.698  0.00  0.00     0.066 A 
HETATM   27  C   UNK N   1      28.120  14.122   2.238  0.00  0.00     0.050 A 
HETATM   28 Cl   UNK N   1      29.454  16.399   2.600  0.00  0.00    -0.082 Cl
HETATM   29  C   UNK N   1      27.022  13.279   2.156  0.00  0.00     0.037 A 
HETATM   30  C   UNK N   1      25.763  13.750   2.499  0.00  0.00     0.050 A 
HETATM   31 Cl   UNK N   1      27.221  11.629   1.607  0.00  0.00    -0.084 Cl
HETATM   32  C   UNK N   1      25.588  15.055   2.959  0.00  0.00     0.066 A 
HETATM   33 Cl   UNK N   1      23.943  15.510   3.391  0.00  0.00    -0.082 Cl
ENDBRANCH   8  25
BRANCH  11  34
HETATM   34  C   UNK N   1      24.804  20.478   3.650  0.00  0.00     0.055 C 
HETATM   35  C   UNK N   1      23.415  20.098   3.165  0.00  0.00     0.011 C 
ENDBRANCH  11  34
TORSDOF 6
ENDMDL
MODEL 8
REMARK VINA RESULT:      -7.4      4.122      8.145
REMARK  6 active torsions:
REMARK  status: ('A' for Active; 'I' for Inactive)
REMARK    1  A    between atoms: C_2  and  C_22 
REMARK    2  A    between atoms: N_8  and  C_13 
REMARK    3  A    between atoms: C_11  and  C_20 
REMARK    4  A    between atoms: C_22  and  C_25 
REMARK    5  A    between atoms: C_27  and  O_31 
REMARK    6  A    between atoms: C_28  and  O_32 
ROOT
HETATM    1  N   UNK N   1      21.889  15.085   1.127  0.00  0.00    -0.312 N 
HETATM    2  C   UNK N   1      21.228  15.364   2.297  0.00  0.00     0.089 A 
HETATM    3  N   UNK N   1      21.626  14.772   3.464  0.00  0.00    -0.329 N 
ATOM      4  HN  UNK N   1      21.133  14.970   4.335  1.00  0.00     0.168 HD
HETATM    5  C   UNK N   1      22.676  13.924   3.456  0.00  0.00     0.146 A 
HETATM    6  C   UNK N   1      23.325  13.607   2.309  0.00  0.00     0.102 A 
HETATM    7  C   UNK N   1      22.946  14.201   1.109  0.00  0.00     0.262 A 
HETATM    8  N   UNK N   1      23.179  13.210   4.490  0.00  0.00    -0.235 N 
HETATM    9  N   UNK N   1      24.136  12.423   3.999  0.00  0.00    -0.295 N 
ATOM     10  HN  UNK N   1      24.690  11.756   4.536  1.00  0.00     0.187 HD
HETATM   11  C   UNK N   1      24.252  12.656   2.667  0.00  0.00     0.045 A 
HETATM   12  O   UNK N   1      23.510  13.932   0.064  0.00  0.00    -0.267 OA
HETATM   13  H   UNK N   1      21.606  15.523   0.292  0.00  0.00     0.170 HD
ENDROOT
BRANCH   2  14
HETATM   14  C   UNK N   1      20.033  16.281   2.281  0.00  0.00     0.115 C 
BRANCH  14  15
HETATM   15  C   UNK N   1      20.405  17.734   2.351  0.00  0.00    -0.048 A 
HETATM   16  C   UNK N   1      20.358  18.521   1.196  0.00  0.00     0.047 A 
HETATM   17  C   UNK N   1      20.741  19.866   1.245  0.00  0.00     0.099 A 
HETATM   18  C   UNK N   1      21.184  20.425   2.453  0.00  0.00     0.098 A 
HETATM   19  C   UNK N   1      21.220  19.644   3.611  0.00  0.00     0.040 A 
HETATM   20  C   UNK N   1      20.823  18.305   3.562  0.00  0.00     0.010 A 
BRANCH  17  21
HETATM   21  O   UNK N   1      20.686  20.616   0.131  0.00  0.00    -0.358 OA
HETATM   22  H   UNK N   1      20.214  20.577  -0.677  0.00  0.00     0.217 HD
ENDBRANCH  17  21
BRANCH  18  23
HETATM   23  O   UNK N   1      21.574  21.710   2.506  0.00  0.00    -0.358 OA
HETATM   24  H   UNK N   1      22.445  21.926   2.776  0.00  0.00     0.217 HD
ENDBRANCH  18  23
ENDBRANCH  14  15
ENDBRANCH   2  14
BRANCH   8  25
HETATM   25  C   UNK N   1      22.742  13.165   5.884  0.00  0.00     0.102 A 
HETATM   26  C   UNK N   1      21.856  12.157   6.390  0.00  0.00     0.066 A 
HETATM   27  C   UNK N   1      21.517  12.140   7.744  0.00  0.00     0.050 A 
HETATM   28 Cl   UNK N   1      21.020  10.970   5.403  0.00  0.00    -0.082 Cl
HETATM   29  C   UNK N   1      22.018  13.089   8.621  0.00  0.00     0.037 A 
HETATM   30  C   UNK N   1      22.840  14.102   8.148  0.00  0.00     0.050 A 
HETATM   31 Cl   UNK N   1      21.601  13.022  10.320  0.00  0.00    -0.084 Cl
HETATM   32  C   UNK N   1      23.201  14.159   6.801  0.00  0.00     0.066 A 
HETATM   33 Cl   UNK N   1      24.277  15.475   6.344  0.00  0.00    -0.082 Cl
ENDBRANCH   8  25
BRANCH  11  34
HETATM   34  C   UNK N   1      25.177  11.929   1.742  0.00  0.00     0.055 C 
HETATM   35  C   UNK N   1      26.613  12.406   1.888  0.00  0.00     0.011 C 
ENDBRANCH  11  34
TORSDOF 6
ENDMDL
MODEL 9
REMARK VINA RESULT:      -7.3     14.808     16.723
REMARK  6 active torsions:
REMARK  status: ('A' for Active; 'I' for Inactive)
REMARK    1  A    between atoms: C_2  and  C_22 
REMARK    2  A    between atoms: N_8  and  C_13 
REMARK    3  A    between atoms: C_11  and  C_20 
REMARK    4  A    between atoms: C_22  and  C_25 
REMARK    5  A    between atoms: C_27  and  O_31 
REMARK    6  A    between atoms: C_28  and  O_32 
ROOT
HETATM    1  N   UNK N   1      29.598  21.925  -7.112  0.00  0.00    -0.312 N 
HETATM    2  C   UNK N   1      30.022  23.065  -6.476  0.00  0.00     0.089 A 
HETATM    3  N   UNK N   1      29.111  24.010  -6.090  0.00  0.00    -0.329 N 
ATOM      4  HN  UNK N   1      29.422  24.863  -5.624  1.00  0.00     0.168 HD
HETATM    5  C   UNK N   1      27.798  23.806  -6.328  0.00  0.00     0.146 A 
HETATM    6  C   UNK N   1      27.358  22.704  -6.983  0.00  0.00     0.102 A 
HETATM    7  C   UNK N   1      28.261  21.724  -7.380  0.00  0.00     0.262 A 
HETATM    8  N   UNK N   1      26.765  24.641  -6.069  0.00  0.00    -0.235 N 
HETATM    9  N   UNK N   1      25.667  24.080  -6.577  0.00  0.00    -0.295 N 
ATOM     10  HN  UNK N   1      24.730  24.481  -6.551  1.00  0.00     0.187 HD
HETATM   11  C   UNK N   1      26.002  22.888  -7.131  0.00  0.00     0.045 A 
HETATM   12  O   UNK N   1      27.893  20.725  -7.972  0.00  0.00    -0.267 OA
HETATM   13  H   UNK N   1      30.256  21.243  -7.377  0.00  0.00     0.170 HD
ENDROOT
BRANCH   2  14
HETATM   14  C   UNK N   1      31.494  23.296  -6.254  0.00  0.00     0.115 C 
BRANCH  14  15
HETATM   15  C   UNK N   1      32.163  22.166  -5.524  0.00  0.00    -0.048 A 
HETATM   16  C   UNK N   1      32.178  22.153  -4.125  0.00  0.00     0.047 A 
HETATM   17  C   UNK N   1      32.833  21.124  -3.439  0.00  0.00     0.099 A 
HETATM   18  C   UNK N   1      33.488  20.110  -4.155  0.00  0.00     0.098 A 
HETATM   19  C   UNK N   1      33.464  20.116  -5.551  0.00  0.00     0.040 A 
HETATM   20  C   UNK N   1      32.796  21.135  -6.234  0.00  0.00     0.010 A 
BRANCH  17  21
HETATM   21  O   UNK N   1      32.837  21.116  -2.095  0.00  0.00    -0.358 OA
HETATM   22  H   UNK N   1      32.217  20.898  -1.427  0.00  0.00     0.217 HD
ENDBRANCH  17  21
BRANCH  18  23
HETATM   23  O   UNK N   1      34.138  19.130  -3.504  0.00  0.00    -0.358 OA
HETATM   24  H   UNK N   1      34.219  18.282  -3.894  0.00  0.00     0.217 HD
ENDBRANCH  18  23
ENDBRANCH  14  15
ENDBRANCH   2  14
BRANCH   8  25
HETATM   25  C   UNK N   1      26.777  25.968  -5.459  0.00  0.00     0.102 A 
HETATM   26  C   UNK N   1      26.868  27.177  -6.226  0.00  0.00     0.066 A 
HETATM   27  C   UNK N   1      26.822  28.417  -5.585  0.00  0.00     0.050 A 
HETATM   28 Cl   UNK N   1      27.172  27.248  -7.953  0.00  0.00    -0.082 Cl
HETATM   29  C   UNK N   1      26.696  28.508  -4.207  0.00  0.00     0.037 A 
HETATM   30  C   UNK N   1      26.653  27.354  -3.439  0.00  0.00     0.050 A 
HETATM   31 Cl   UNK N   1      26.609  30.078  -3.436  0.00  0.00    -0.084 Cl
HETATM   32  C   UNK N   1      26.699  26.094  -4.038  0.00  0.00     0.066 A 
HETATM   33 Cl   UNK N   1      26.600  24.715  -2.949  0.00  0.00    -0.082 Cl
ENDBRANCH   8  25
BRANCH  11  34
HETATM   34  C   UNK N   1      25.060  21.979  -7.856  0.00  0.00     0.055 C 
HETATM   35  C   UNK N   1      24.386  20.995  -6.914  0.00  0.00     0.011 C 
ENDBRANCH  11  34
TORSDOF 6
ENDMDL
