MODEL 1
REMARK VINA RESULT:      -8.1      0.000      0.000
REMARK  4 active torsions:
REMARK  status: ('A' for Active; 'I' for Inactive)
REMARK    1  A    between atoms: C_1  and  C_21 
REMARK    2  A    between atoms: C_4  and  C_7 
REMARK    3  A    between atoms: C_5  and  C_14 
REMARK    4  A    between atoms: C_24  and  S_27 
ROOT
HETATM    1  C   UNK N   1      26.502  18.810   4.810  0.00  0.00     0.116 A 
HETATM    2  N   UNK N   1      26.712  18.897   6.135  0.00  0.00    -0.339 N 
ATOM      3  HN  UNK N   1      26.080  19.288   6.835  1.00  0.00     0.167 HD
HETATM    4  C   UNK N   1      27.932  18.365   6.347  0.00  0.00     0.072 A 
HETATM    5  C   UNK N   1      28.455  17.966   5.101  0.00  0.00     0.072 A 
HETATM    6  N   UNK N   1      27.536  18.252   4.158  0.00  0.00    -0.339 N 
HETATM    7  H   UNK N   1      27.607  18.086   3.190  0.00  0.00     0.167 HD
ENDROOT
BRANCH   1   8
HETATM    8  C   UNK N   1      25.227  19.146   4.166  0.00  0.00     0.008 A 
HETATM    9  C   UNK N   1      24.073  18.415   4.476  0.00  0.00     0.016 A 
HETATM   10  C   UNK N   1      22.834  18.810   3.968  0.00  0.00     0.022 A 
HETATM   11  C   UNK N   1      22.737  19.937   3.141  0.00  0.00     0.031 A 
HETATM   12  C   UNK N   1      23.895  20.662   2.825  0.00  0.00     0.022 A 
HETATM   13  C   UNK N   1      25.134  20.266   3.330  0.00  0.00     0.016 A 
BRANCH  11  14
HETATM   14  S   UNK N   1      21.114  20.513   2.603  0.00  0.00     0.045 S 
HETATM   15  O   UNK N   1      20.506  20.392   4.009  0.00  0.00    -0.253 OA
HETATM   16  C   UNK N   1      20.482  18.874   2.140  0.00  0.00     0.133 C 
ENDBRANCH  11  14
ENDBRANCH   1   8
BRANCH   4  17
HETATM   17  C   UNK N   1      28.437  18.217   7.740  0.00  0.00    -0.004 A 
HETATM   18  C   UNK N   1      27.922  17.177   8.530  0.00  0.00     0.030 A 
HETATM   19  C   UNK N   1      28.418  16.962   9.816  0.00  0.00     0.088 A 
HETATM   20  N   UNK N   1      29.413  17.751  10.302  0.00  0.00    -0.375 N 
HETATM   21  C   UNK N   1      29.939  18.760   9.557  0.00  0.00     0.088 A 
ATOM     22  HN  UNK N   1      29.772  17.583  11.241  1.00  0.00     0.164 HD
HETATM   23  C   UNK N   1      29.461  19.005   8.267  0.00  0.00     0.030 A 
ENDBRANCH   4  17
BRANCH   5  24
HETATM   24  C   UNK N   1      29.739  17.325   4.705  0.00  0.00    -0.006 A 
HETATM   25  C   UNK N   1      30.895  17.371   5.490  0.00  0.00     0.032 A 
HETATM   26  C   UNK N   1      32.079  16.769   5.051  0.00  0.00     0.007 A 
HETATM   27  I   UNK N   1      33.814  16.866   6.234  0.00  0.00    -0.045 I 
HETATM   28  C   UNK N   1      32.118  16.112   3.820  0.00  0.00     0.018 A 
HETATM   29  C   UNK N   1      30.974  16.062   3.024  0.00  0.00     0.002 A 
HETATM   30  C   UNK N   1      29.796  16.671   3.461  0.00  0.00     0.014 A 
ENDBRANCH   5  24
TORSDOF 4
ENDMDL
MODEL 2
REMARK VINA RESULT:      -8.1      1.620      2.030
REMARK  4 active torsions:
REMARK  status: ('A' for Active; 'I' for Inactive)
REMARK    1  A    between atoms: C_1  and  C_21 
REMARK    2  A    between atoms: C_4  and  C_7 
REMARK    3  A    between atoms: C_5  and  C_14 
REMARK    4  A    between atoms: C_24  and  S_27 
ROOT
HETATM    1  C   UNK N   1      27.212  18.628   4.759  0.00  0.00     0.116 A 
HETATM    2  N   UNK N   1      27.537  18.543   6.062  0.00  0.00    -0.339 N 
ATOM      3  HN  UNK N   1      26.990  18.876   6.857  1.00  0.00     0.167 HD
HETATM    4  C   UNK N   1      28.736  17.928   6.099  0.00  0.00     0.072 A 
HETATM    5  C   UNK N   1      29.128  17.659   4.773  0.00  0.00     0.072 A 
HETATM    6  N   UNK N   1      28.152  18.103   3.957  0.00  0.00    -0.339 N 
HETATM    7  H   UNK N   1      28.132  18.053   2.973  0.00  0.00     0.167 HD
ENDROOT
BRANCH   1   8
HETATM    8  C   UNK N   1      25.910  19.103   4.277  0.00  0.00     0.008 A 
HETATM    9  C   UNK N   1      25.850  20.126   3.321  0.00  0.00     0.016 A 
HETATM   10  C   UNK N   1      24.625  20.494   2.764  0.00  0.00     0.022 A 
HETATM   11  C   UNK N   1      23.446  19.847   3.159  0.00  0.00     0.031 A 
HETATM   12  C   UNK N   1      23.508  18.830   4.122  0.00  0.00     0.022 A 
HETATM   13  C   UNK N   1      24.733  18.464   4.682  0.00  0.00     0.016 A 
BRANCH  11  14
HETATM   14  S   UNK N   1      21.891  20.241   2.333  0.00  0.00     0.045 S 
HETATM   15  O   UNK N   1      21.905  21.702   2.807  0.00  0.00    -0.253 OA
HETATM   16  C   UNK N   1      20.819  19.754   3.717  0.00  0.00     0.133 C 
ENDBRANCH  11  14
ENDBRANCH   1   8
BRANCH   4  17
HETATM   17  C   UNK N   1      29.346  17.586   7.414  0.00  0.00    -0.004 A 
HETATM   18  C   UNK N   1      28.576  17.767   8.574  0.00  0.00     0.030 A 
HETATM   19  C   UNK N   1      29.086  17.394   9.818  0.00  0.00     0.088 A 
HETATM   20  N   UNK N   1      30.324  16.841   9.908  0.00  0.00    -0.375 N 
HETATM   21  C   UNK N   1      31.090  16.644   8.801  0.00  0.00     0.088 A 
ATOM     22  HN  UNK N   1      30.686  16.568  10.821  1.00  0.00     0.164 HD
HETATM   23  C   UNK N   1      30.611  17.011   7.540  0.00  0.00     0.030 A 
ENDBRANCH   4  17
BRANCH   5  24
HETATM   24  C   UNK N   1      30.333  17.008   4.190  0.00  0.00    -0.006 A 
HETATM   25  C   UNK N   1      30.354  15.679   3.754  0.00  0.00     0.032 A 
HETATM   26  C   UNK N   1      31.526  15.117   3.236  0.00  0.00     0.007 A 
HETATM   27  I   UNK N   1      31.545  13.111   2.606  0.00  0.00    -0.045 I 
HETATM   28  C   UNK N   1      32.691  15.880   3.149  0.00  0.00     0.018 A 
HETATM   29  C   UNK N   1      32.687  17.205   3.583  0.00  0.00     0.002 A 
HETATM   30  C   UNK N   1      31.518  17.761   4.107  0.00  0.00     0.014 A 
ENDBRANCH   5  24
TORSDOF 4
ENDMDL
MODEL 3
REMARK VINA RESULT:      -7.8      1.630      4.003
REMARK  4 active torsions:
REMARK  status: ('A' for Active; 'I' for Inactive)
REMARK    1  A    between atoms: C_1  and  C_21 
REMARK    2  A    between atoms: C_4  and  C_7 
REMARK    3  A    between atoms: C_5  and  C_14 
REMARK    4  A    between atoms: C_24  and  S_27 
ROOT
HETATM    1  C   UNK N   1      25.980  18.033   4.946  0.00  0.00     0.116 A 
HETATM    2  N   UNK N   1      26.590  17.025   4.297  0.00  0.00    -0.339 N 
ATOM      3  HN  UNK N   1      26.266  16.550   3.454  1.00  0.00     0.167 HD
HETATM    4  C   UNK N   1      27.716  16.771   4.992  0.00  0.00     0.072 A 
HETATM    5  C   UNK N   1      27.756  17.652   6.092  0.00  0.00     0.072 A 
HETATM    6  N   UNK N   1      26.659  18.433   6.033  0.00  0.00    -0.339 N 
HETATM    7  H   UNK N   1      26.408  19.151   6.659  0.00  0.00     0.167 HD
ENDROOT
BRANCH   1   8
HETATM    8  C   UNK N   1      24.785  18.719   4.441  0.00  0.00     0.008 A 
HETATM    9  C   UNK N   1      24.921  19.835   3.604  0.00  0.00     0.016 A 
HETATM   10  C   UNK N   1      23.795  20.412   3.017  0.00  0.00     0.022 A 
HETATM   11  C   UNK N   1      22.520  19.884   3.262  0.00  0.00     0.031 A 
HETATM   12  C   UNK N   1      22.386  18.773   4.107  0.00  0.00     0.022 A 
HETATM   13  C   UNK N   1      23.512  18.196   4.697  0.00  0.00     0.016 A 
BRANCH  11  14
HETATM   14  S   UNK N   1      21.091  20.556   2.390  0.00  0.00     0.045 S 
HETATM   15  O   UNK N   1      20.289  20.768   3.684  0.00  0.00    -0.253 OA
HETATM   16  C   UNK N   1      20.284  18.955   2.098  0.00  0.00     0.133 C 
ENDBRANCH  11  14
ENDBRANCH   1   8
BRANCH   4  17
HETATM   17  C   UNK N   1      28.683  15.761   4.482  0.00  0.00    -0.004 A 
HETATM   18  C   UNK N   1      29.663  16.178   3.567  0.00  0.00     0.030 A 
HETATM   19  C   UNK N   1      30.630  15.278   3.117  0.00  0.00     0.088 A 
HETATM   20  N   UNK N   1      30.634  13.999   3.576  0.00  0.00    -0.375 N 
HETATM   21  C   UNK N   1      29.703  13.568   4.469  0.00  0.00     0.088 A 
ATOM     22  HN  UNK N   1      31.347  13.350   3.245  1.00  0.00     0.164 HD
HETATM   23  C   UNK N   1      28.718  14.442   4.935  0.00  0.00     0.030 A 
ENDBRANCH   4  17
BRANCH   5  24
HETATM   24  C   UNK N   1      28.737  17.845   7.194  0.00  0.00    -0.006 A 
HETATM   25  C   UNK N   1      30.097  17.545   7.073  0.00  0.00     0.032 A 
HETATM   26  C   UNK N   1      30.966  17.726   8.155  0.00  0.00     0.007 A 
HETATM   27  I   UNK N   1      33.005  17.249   7.962  0.00  0.00    -0.045 I 
HETATM   28  C   UNK N   1      30.481  18.210   9.371  0.00  0.00     0.018 A 
HETATM   29  C   UNK N   1      29.126  18.510   9.508  0.00  0.00     0.002 A 
HETATM   30  C   UNK N   1      28.261  18.321   8.429  0.00  0.00     0.014 A 
ENDBRANCH   5  24
TORSDOF 4
ENDMDL
MODEL 4
REMARK VINA RESULT:      -7.7     10.650     13.885
REMARK  4 active torsions:
REMARK  status: ('A' for Active; 'I' for Inactive)
REMARK    1  A    between atoms: C_1  and  C_21 
REMARK    2  A    between atoms: C_4  and  C_7 
REMARK    3  A    between atoms: C_5  and  C_14 
REMARK    4  A    between atoms: C_24  and  S_27 
ROOT
HETATM    1  C   UNK N   1      35.422  13.421  12.507  0.00  0.00     0.116 A 
HETATM    2  N   UNK N   1      36.226  12.367  12.279  0.00  0.00    -0.339 N 
ATOM      3  HN  UNK N   1      36.608  12.065  11.382  1.00  0.00     0.167 HD
HETATM    4  C   UNK N   1      36.420  11.791  13.482  0.00  0.00     0.072 A 
HETATM    5  C   UNK N   1      35.693  12.526  14.439  0.00  0.00     0.072 A 
HETATM    6  N   UNK N   1      35.083  13.544  13.800  0.00  0.00    -0.339 N 
HETATM    7  H   UNK N   1      34.508  14.236  14.199  0.00  0.00     0.167 HD
ENDROOT
BRANCH   1   8
HETATM    8  C   UNK N   1      35.075  14.413  11.482  0.00  0.00     0.008 A 
HETATM    9  C   UNK N   1      35.523  15.734  11.608  0.00  0.00     0.016 A 
HETATM   10  C   UNK N   1      35.309  16.650  10.577  0.00  0.00     0.022 A 
HETATM   11  C   UNK N   1      34.639  16.256   9.411  0.00  0.00     0.031 A 
HETATM   12  C   UNK N   1      34.184  14.935   9.290  0.00  0.00     0.022 A 
HETATM   13  C   UNK N   1      34.397  14.020  10.322  0.00  0.00     0.016 A 
BRANCH  11  14
HETATM   14  S   UNK N   1      34.489  17.412   8.033  0.00  0.00     0.045 S 
HETATM   15  O   UNK N   1      35.112  18.573   8.823  0.00  0.00    -0.253 OA
HETATM   16  C   UNK N   1      32.810  17.972   8.447  0.00  0.00     0.133 C 
ENDBRANCH  11  14
ENDBRANCH   1   8
BRANCH   4  17
HETATM   17  C   UNK N   1      37.354  10.638  13.602  0.00  0.00    -0.004 A 
HETATM   18  C   UNK N   1      37.283   9.618  12.640  0.00  0.00     0.030 A 
HETATM   19  C   UNK N   1      38.186   8.555  12.678  0.00  0.00     0.088 A 
HETATM   20  N   UNK N   1      39.147   8.512  13.638  0.00  0.00    -0.375 N 
HETATM   21  C   UNK N   1      39.248   9.490  14.578  0.00  0.00     0.088 A 
ATOM     22  HN  UNK N   1      39.805   7.734  13.654  1.00  0.00     0.164 HD
HETATM   23  C   UNK N   1      38.355  10.566  14.571  0.00  0.00     0.030 A 
ENDBRANCH   4  17
BRANCH   5  24
HETATM   24  C   UNK N   1      35.523  12.376  15.910  0.00  0.00    -0.006 A 
HETATM   25  C   UNK N   1      35.397  11.137  16.547  0.00  0.00     0.032 A 
HETATM   26  C   UNK N   1      35.215  11.063  17.932  0.00  0.00     0.007 A 
HETATM   27  I   UNK N   1      35.005   9.193  18.869  0.00  0.00    -0.045 I 
HETATM   28  C   UNK N   1      35.160  12.229  18.696  0.00  0.00     0.018 A 
HETATM   29  C   UNK N   1      35.281  13.472  18.075  0.00  0.00     0.002 A 
HETATM   30  C   UNK N   1      35.454  13.543  16.692  0.00  0.00     0.014 A 
ENDBRANCH   5  24
TORSDOF 4
ENDMDL
MODEL 5
REMARK VINA RESULT:      -7.6      7.012     10.879
REMARK  4 active torsions:
REMARK  status: ('A' for Active; 'I' for Inactive)
REMARK    1  A    between atoms: C_1  and  C_21 
REMARK    2  A    between atoms: C_4  and  C_7 
REMARK    3  A    between atoms: C_5  and  C_14 
REMARK    4  A    between atoms: C_24  and  S_27 
ROOT
HETATM    1  C   UNK N   1      33.590  15.716   9.021  0.00  0.00     0.116 A 
HETATM    2  N   UNK N   1      33.920  15.624   7.720  0.00  0.00    -0.339 N 
ATOM      3  HN  UNK N   1      34.767  15.213   7.326  1.00  0.00     0.167 HD
HETATM    4  C   UNK N   1      32.901  16.191   7.045  0.00  0.00     0.072 A 
HETATM    5  C   UNK N   1      31.953  16.641   7.985  0.00  0.00     0.072 A 
HETATM    6  N   UNK N   1      32.409  16.324   9.213  0.00  0.00    -0.339 N 
HETATM    7  H   UNK N   1      31.966  16.501  10.075  0.00  0.00     0.167 HD
ENDROOT
BRANCH   1   8
HETATM    8  C   UNK N   1      34.362  15.088  10.099  0.00  0.00     0.008 A 
HETATM    9  C   UNK N   1      35.029  15.887  11.038  0.00  0.00     0.016 A 
HETATM   10  C   UNK N   1      35.656  15.301  12.139  0.00  0.00     0.022 A 
HETATM   11  C   UNK N   1      35.628  13.910  12.310  0.00  0.00     0.031 A 
HETATM   12  C   UNK N   1      34.968  13.112  11.365  0.00  0.00     0.022 A 
HETATM   13  C   UNK N   1      34.343  13.698  10.262  0.00  0.00     0.016 A 
BRANCH  11  14
HETATM   14  S   UNK N   1      36.325  13.180  13.805  0.00  0.00     0.045 S 
HETATM   15  O   UNK N   1      34.965  13.115  14.516  0.00  0.00    -0.253 OA
HETATM   16  C   UNK N   1      36.723  14.759  14.612  0.00  0.00     0.133 C 
ENDBRANCH  11  14
ENDBRANCH   1   8
BRANCH   4  17
HETATM   17  C   UNK N   1      32.903  16.169   5.556  0.00  0.00    -0.004 A 
HETATM   18  C   UNK N   1      32.764  14.933   4.906  0.00  0.00     0.030 A 
HETATM   19  C   UNK N   1      32.693  14.877   3.514  0.00  0.00     0.088 A 
HETATM   20  N   UNK N   1      32.743  16.023   2.784  0.00  0.00    -0.375 N 
HETATM   21  C   UNK N   1      32.869  17.236   3.385  0.00  0.00     0.088 A 
ATOM     22  HN  UNK N   1      32.686  15.972   1.767  1.00  0.00     0.164 HD
HETATM   23  C   UNK N   1      32.948  17.326   4.777  0.00  0.00     0.030 A 
ENDBRANCH   4  17
BRANCH   5  24
HETATM   24  C   UNK N   1      30.642  17.332   7.844  0.00  0.00    -0.006 A 
HETATM   25  C   UNK N   1      29.913  17.361   6.651  0.00  0.00     0.032 A 
HETATM   26  C   UNK N   1      28.696  18.048   6.576  0.00  0.00     0.007 A 
HETATM   27  I   UNK N   1      27.624  18.099   4.768  0.00  0.00    -0.045 I 
HETATM   28  C   UNK N   1      28.197  18.714   7.695  0.00  0.00     0.018 A 
HETATM   29  C   UNK N   1      28.915  18.698   8.890  0.00  0.00     0.002 A 
HETATM   30  C   UNK N   1      30.132  18.018   8.961  0.00  0.00     0.014 A 
ENDBRANCH   5  24
TORSDOF 4
ENDMDL
MODEL 6
REMARK VINA RESULT:      -7.5     10.144     13.105
REMARK  4 active torsions:
REMARK  status: ('A' for Active; 'I' for Inactive)
REMARK    1  A    between atoms: C_1  and  C_21 
REMARK    2  A    between atoms: C_4  and  C_7 
REMARK    3  A    between atoms: C_5  and  C_14 
REMARK    4  A    between atoms: C_24  and  S_27 
ROOT
HETATM    1  C   UNK N   1      36.232  14.297  12.062  0.00  0.00     0.116 A 
HETATM    2  N   UNK N   1      36.202  14.922  13.253  0.00  0.00    -0.339 N 
ATOM      3  HN  UNK N   1      36.012  15.910  13.426  1.00  0.00     0.167 HD
HETATM    4  C   UNK N   1      36.476  13.973  14.170  0.00  0.00     0.072 A 
HETATM    5  C   UNK N   1      36.687  12.758  13.488  0.00  0.00     0.072 A 
HETATM    6  N   UNK N   1      36.522  12.991  12.171  0.00  0.00    -0.339 N 
HETATM    7  H   UNK N   1      36.599  12.337  11.438  0.00  0.00     0.167 HD
ENDROOT
BRANCH   1   8
HETATM    8  C   UNK N   1      35.844  14.938  10.800  0.00  0.00     0.008 A 
HETATM    9  C   UNK N   1      35.814  14.188   9.616  0.00  0.00     0.016 A 
HETATM   10  C   UNK N   1      35.324  14.755   8.439  0.00  0.00     0.022 A 
HETATM   11  C   UNK N   1      34.863  16.079   8.431  0.00  0.00     0.031 A 
HETATM   12  C   UNK N   1      34.902  16.829   9.614  0.00  0.00     0.022 A 
HETATM   13  C   UNK N   1      35.395  16.263  10.791  0.00  0.00     0.016 A 
BRANCH  11  14
HETATM   14  S   UNK N   1      34.108  16.752   6.937  0.00  0.00     0.045 S 
HETATM   15  O   UNK N   1      34.656  18.166   7.190  0.00  0.00    -0.253 OA
HETATM   16  C   UNK N   1      32.520  17.181   7.711  0.00  0.00     0.133 C 
ENDBRANCH  11  14
ENDBRANCH   1   8
BRANCH   4  17
HETATM   17  C   UNK N   1      36.425  14.314  15.618  0.00  0.00    -0.004 A 
HETATM   18  C   UNK N   1      37.203  15.388  16.079  0.00  0.00     0.030 A 
HETATM   19  C   UNK N   1      37.131  15.782  17.415  0.00  0.00     0.088 A 
HETATM   20  N   UNK N   1      36.295  15.137  18.271  0.00  0.00    -0.375 N 
HETATM   21  C   UNK N   1      35.521  14.100  17.852  0.00  0.00     0.088 A 
ATOM     22  HN  UNK N   1      36.246  15.436  19.244  1.00  0.00     0.164 HD
HETATM   23  C   UNK N   1      35.574  13.676  16.521  0.00  0.00     0.030 A 
ENDBRANCH   4  17
BRANCH   5  24
HETATM   24  C   UNK N   1      37.018  11.384  13.955  0.00  0.00    -0.006 A 
HETATM   25  C   UNK N   1      36.431  10.792  15.078  0.00  0.00     0.032 A 
HETATM   26  C   UNK N   1      36.802   9.504  15.481  0.00  0.00     0.007 A 
HETATM   27  I   UNK N   1      35.925   8.638  17.184  0.00  0.00    -0.045 I 
HETATM   28  C   UNK N   1      37.765   8.795  14.762  0.00  0.00     0.018 A 
HETATM   29  C   UNK N   1      38.362   9.373  13.643  0.00  0.00     0.002 A 
HETATM   30  C   UNK N   1      37.995  10.662  13.248  0.00  0.00     0.014 A 
ENDBRANCH   5  24
TORSDOF 4
ENDMDL
MODEL 7
REMARK VINA RESULT:      -7.4     10.890     13.772
REMARK  4 active torsions:
REMARK  status: ('A' for Active; 'I' for Inactive)
REMARK    1  A    between atoms: C_1  and  C_21 
REMARK    2  A    between atoms: C_4  and  C_7 
REMARK    3  A    between atoms: C_5  and  C_14 
REMARK    4  A    between atoms: C_24  and  S_27 
ROOT
HETATM    1  C   UNK N   1      35.730  13.381  13.085  0.00  0.00     0.116 A 
HETATM    2  N   UNK N   1      35.455  13.631  14.378  0.00  0.00    -0.339 N 
ATOM      3  HN  UNK N   1      35.043  14.480  14.767  1.00  0.00     0.167 HD
HETATM    4  C   UNK N   1      35.838  12.529  15.052  0.00  0.00     0.072 A 
HETATM    5  C   UNK N   1      36.368  11.612  14.121  0.00  0.00     0.072 A 
HETATM    6  N   UNK N   1      36.282  12.171  12.898  0.00  0.00    -0.339 N 
HETATM    7  H   UNK N   1      36.564  11.774  12.043  0.00  0.00     0.167 HD
ENDROOT
BRANCH   1   8
HETATM    8  C   UNK N   1      35.335  14.268  11.985  0.00  0.00     0.008 A 
HETATM    9  C   UNK N   1      35.756  15.605  11.979  0.00  0.00     0.016 A 
HETATM   10  C   UNK N   1      35.494  16.418  10.876  0.00  0.00     0.022 A 
HETATM   11  C   UNK N   1      34.804  15.906   9.768  0.00  0.00     0.031 A 
HETATM   12  C   UNK N   1      34.376  14.571   9.780  0.00  0.00     0.022 A 
HETATM   13  C   UNK N   1      34.636  13.758  10.885  0.00  0.00     0.016 A 
BRANCH  11  14
HETATM   14  S   UNK N   1      34.591  16.929   8.297  0.00  0.00     0.045 S 
HETATM   15  O   UNK N   1      35.086  18.202   9.001  0.00  0.00    -0.253 OA
HETATM   16  C   UNK N   1      32.858  17.367   8.626  0.00  0.00     0.133 C 
ENDBRANCH  11  14
ENDBRANCH   1   8
BRANCH   4  17
HETATM   17  C   UNK N   1      35.580  12.435  16.515  0.00  0.00    -0.004 A 
HETATM   18  C   UNK N   1      35.701  11.183  17.136  0.00  0.00     0.030 A 
HETATM   19  C   UNK N   1      35.534  11.066  18.516  0.00  0.00     0.088 A 
HETATM   20  N   UNK N   1      35.268  12.168  19.265  0.00  0.00    -0.375 N 
HETATM   21  C   UNK N   1      35.154  13.397  18.694  0.00  0.00     0.088 A 
ATOM     22  HN  UNK N   1      35.152  12.073  20.273  1.00  0.00     0.164 HD
HETATM   23  C   UNK N   1      35.311  13.548  17.313  0.00  0.00     0.030 A 
ENDBRANCH   4  17
BRANCH   5  24
HETATM   24  C   UNK N   1      36.939  10.246  14.266  0.00  0.00    -0.006 A 
HETATM   25  C   UNK N   1      38.291  10.002  14.527  0.00  0.00     0.032 A 
HETATM   26  C   UNK N   1      38.773   8.692  14.628  0.00  0.00     0.007 A 
HETATM   27  I   UNK N   1      40.813   8.344  15.000  0.00  0.00    -0.045 I 
HETATM   28  C   UNK N   1      37.905   7.611  14.470  0.00  0.00     0.018 A 
HETATM   29  C   UNK N   1      36.555   7.838  14.205  0.00  0.00     0.002 A 
HETATM   30  C   UNK N   1      36.079   9.147  14.096  0.00  0.00     0.014 A 
ENDBRANCH   5  24
TORSDOF 4
ENDMDL
MODEL 8
REMARK VINA RESULT:      -7.3      5.850      8.727
REMARK  4 active torsions:
REMARK  status: ('A' for Active; 'I' for Inactive)
REMARK    1  A    between atoms: C_1  and  C_21 
REMARK    2  A    between atoms: C_4  and  C_7 
REMARK    3  A    between atoms: C_5  and  C_14 
REMARK    4  A    between atoms: C_24  and  S_27 
ROOT
HETATM    1  C   UNK N   1      30.690  16.692   7.088  0.00  0.00     0.116 A 
HETATM    2  N   UNK N   1      29.955  17.817   7.150  0.00  0.00    -0.339 N 
ATOM      3  HN  UNK N   1      30.054  18.582   7.818  1.00  0.00     0.167 HD
HETATM    4  C   UNK N   1      29.058  17.723   6.148  0.00  0.00     0.072 A 
HETATM    5  C   UNK N   1      29.270  16.495   5.489  0.00  0.00     0.072 A 
HETATM    6  N   UNK N   1      30.301  15.875   6.096  0.00  0.00    -0.339 N 
HETATM    7  H   UNK N   1      30.690  15.001   5.860  0.00  0.00     0.167 HD
ENDROOT
BRANCH   1   8
HETATM    8  C   UNK N   1      31.879  16.453   7.914  0.00  0.00     0.008 A 
HETATM    9  C   UNK N   1      32.843  17.460   8.059  0.00  0.00     0.016 A 
HETATM   10  C   UNK N   1      33.909  17.288   8.944  0.00  0.00     0.022 A 
HETATM   11  C   UNK N   1      34.025  16.106   9.689  0.00  0.00     0.031 A 
HETATM   12  C   UNK N   1      33.064  15.097   9.535  0.00  0.00     0.022 A 
HETATM   13  C   UNK N   1      32.000  15.268   8.648  0.00  0.00     0.016 A 
BRANCH  11  14
HETATM   14  S   UNK N   1      35.330  15.955  10.925  0.00  0.00     0.045 S 
HETATM   15  O   UNK N   1      36.003  17.271  10.506  0.00  0.00    -0.253 OA
HETATM   16  C   UNK N   1      36.463  14.991   9.880  0.00  0.00     0.133 C 
ENDBRANCH  11  14
ENDBRANCH   1   8
BRANCH   4  17
HETATM   17  C   UNK N   1      28.142  18.863   5.873  0.00  0.00    -0.004 A 
HETATM   18  C   UNK N   1      27.681  19.627   6.957  0.00  0.00     0.030 A 
HETATM   19  C   UNK N   1      26.876  20.744   6.736  0.00  0.00     0.088 A 
HETATM   20  N   UNK N   1      26.548  21.105   5.467  0.00  0.00    -0.375 N 
HETATM   21  C   UNK N   1      26.986  20.392   4.396  0.00  0.00     0.088 A 
ATOM     22  HN  UNK N   1      25.963  21.926   5.315  1.00  0.00     0.164 HD
HETATM   23  C   UNK N   1      27.790  19.264   4.583  0.00  0.00     0.030 A 
ENDBRANCH   4  17
BRANCH   5  24
HETATM   24  C   UNK N   1      28.603  15.846   4.327  0.00  0.00    -0.006 A 
HETATM   25  C   UNK N   1      27.244  15.518   4.306  0.00  0.00     0.032 A 
HETATM   26  C   UNK N   1      26.680  14.887   3.192  0.00  0.00     0.007 A 
HETATM   27  I   UNK N   1      24.640  14.381   3.186  0.00  0.00    -0.045 I 
HETATM   28  C   UNK N   1      27.472  14.578   2.085  0.00  0.00     0.018 A 
HETATM   29  C   UNK N   1      28.830  14.895   2.094  0.00  0.00     0.002 A 
HETATM   30  C   UNK N   1      29.391  15.518   3.210  0.00  0.00     0.014 A 
ENDBRANCH   5  24
TORSDOF 4
ENDMDL
MODEL 9
REMARK VINA RESULT:      -7.3      5.214      8.378
REMARK  4 active torsions:
REMARK  status: ('A' for Active; 'I' for Inactive)
REMARK    1  A    between atoms: C_1  and  C_21 
REMARK    2  A    between atoms: C_4  and  C_7 
REMARK    3  A    between atoms: C_5  and  C_14 
REMARK    4  A    between atoms: C_24  and  S_27 
ROOT
HETATM    1  C   UNK N   1      28.392  17.224   6.084  0.00  0.00     0.116 A 
HETATM    2  N   UNK N   1      27.760  18.316   5.618  0.00  0.00    -0.339 N 
ATOM      3  HN  UNK N   1      28.069  19.286   5.694  1.00  0.00     0.167 HD
HETATM    4  C   UNK N   1      26.633  17.863   5.034  0.00  0.00     0.072 A 
HETATM    5  C   UNK N   1      26.602  16.462   5.177  0.00  0.00     0.072 A 
HETATM    6  N   UNK N   1      27.719  16.090   5.833  0.00  0.00    -0.339 N 
HETATM    7  H   UNK N   1      27.986  15.174   6.078  0.00  0.00     0.167 HD
ENDROOT
BRANCH   1   8
HETATM    8  C   UNK N   1      29.739  17.253   6.667  0.00  0.00     0.008 A 
HETATM    9  C   UNK N   1      30.853  16.964   5.868  0.00  0.00     0.016 A 
HETATM   10  C   UNK N   1      32.142  17.115   6.381  0.00  0.00     0.022 A 
HETATM   11  C   UNK N   1      32.332  17.551   7.699  0.00  0.00     0.031 A 
HETATM   12  C   UNK N   1      31.215  17.831   8.500  0.00  0.00     0.022 A 
HETATM   13  C   UNK N   1      29.925  17.678   7.988  0.00  0.00     0.016 A 
BRANCH  11  14
HETATM   14  S   UNK N   1      34.001  17.871   8.303  0.00  0.00     0.045 S 
HETATM   15  O   UNK N   1      34.552  18.154   6.897  0.00  0.00    -0.253 OA
HETATM   16  C   UNK N   1      34.559  16.143   8.223  0.00  0.00     0.133 C 
ENDBRANCH  11  14
ENDBRANCH   1   8
BRANCH   4  17
HETATM   17  C   UNK N   1      25.740  18.818   4.323  0.00  0.00    -0.004 A 
HETATM   18  C   UNK N   1      26.322  19.773   3.475  0.00  0.00     0.030 A 
HETATM   19  C   UNK N   1      25.516  20.641   2.739  0.00  0.00     0.088 A 
HETATM   20  N   UNK N   1      24.163  20.554   2.829  0.00  0.00    -0.375 N 
HETATM   21  C   UNK N   1      23.568  19.633   3.635  0.00  0.00     0.088 A 
ATOM     22  HN  UNK N   1      23.582  21.190   2.283  1.00  0.00     0.164 HD
HETATM   23  C   UNK N   1      24.347  18.753   4.390  0.00  0.00     0.030 A 
ENDBRANCH   4  17
BRANCH   5  24
HETATM   24  C   UNK N   1      25.626  15.425   4.744  0.00  0.00    -0.006 A 
HETATM   25  C   UNK N   1      25.288  15.200   3.405  0.00  0.00     0.032 A 
HETATM   26  C   UNK N   1      24.344  14.226   3.062  0.00  0.00     0.007 A 
HETATM   27  I   UNK N   1      23.832  13.916   1.047  0.00  0.00    -0.045 I 
HETATM   28  C   UNK N   1      23.728  13.465   4.057  0.00  0.00     0.018 A 
HETATM   29  C   UNK N   1      24.051  13.681   5.396  0.00  0.00     0.002 A 
HETATM   30  C   UNK N   1      24.988  14.659   5.735  0.00  0.00     0.014 A 
ENDBRANCH   5  24
TORSDOF 4
ENDMDL
