MODEL 1
REMARK VINA RESULT:      -8.6      0.000      0.000
REMARK  8 active torsions:
REMARK  status: ('A' for Active; 'I' for Inactive)
REMARK    1  A    between atoms: C_7  and  C_8 
REMARK    2  A    between atoms: C_8  and  C_9 
REMARK    3  A    between atoms: C_8  and  C_12 
REMARK    4  A    between atoms: C_9  and  C_10 
REMARK    5  A    between atoms: C_10  and  N_11 
REMARK       I    between atoms: C_12  and  N_14 
REMARK    6  A    between atoms: N_14  and  C_15 
REMARK    7  A    between atoms: C_24  and  N_25 
REMARK       I    between atoms: N_25  and  C_26 
REMARK    8  A    between atoms: C_26  and  C_28 
ROOT
HETATM    1  C   UNK N   1      33.755  14.887   9.148  0.00  0.00     0.035 A 
HETATM    2  C   UNK N   1      34.303  14.750  10.432  0.00  0.00     0.047 A 
HETATM    3  C   UNK N   1      35.634  14.404  10.555  0.00  0.00     0.040 A 
HETATM    4  C   UNK N   1      34.570  14.676   8.008  0.00  0.00     0.032 A 
HETATM    5  C   UNK N   1      35.919  14.280   8.165  0.00  0.00     0.034 A 
HETATM    6  C   UNK N   1      36.411  14.156   9.466  0.00  0.00     0.062 A 
HETATM    7  N   UNK N   1      37.650  13.809   9.863  0.00  0.00    -0.298 N 
HETATM    8  N   UNK N   1      37.680  13.846  11.196  0.00  0.00    -0.284 N 
ATOM      9  HN  UNK N   1      38.486  13.624  11.780  1.00  0.00     0.188 HD
HETATM   10  C   UNK N   1      36.460  14.226  11.644  0.00  0.00     0.135 A 
HETATM   11  H   UNK N   1      38.402  13.572   9.274  0.00  0.00     0.187 HD
ENDROOT
BRANCH   1  12
HETATM   12  N   UNK N   1      32.403  15.295   9.028  0.00  0.00    -0.327 N 
HETATM   13  C   UNK N   1      32.078  16.574   8.692  0.00  0.00     0.230 C 
HETATM   14  O   UNK N   1      32.925  17.456   8.742  0.00  0.00    -0.272 OA
HETATM   15  H   UNK N   1      31.686  14.641   9.190  0.00  0.00     0.169 HD
BRANCH  13  16
HETATM   16  C   UNK N   1      30.690  16.927   8.210  0.00  0.00     0.112 C 
BRANCH  16  17
HETATM   17  C   UNK N   1      30.508  16.928   6.704  0.00  0.00    -0.043 A 
HETATM   18  C   UNK N   1      31.602  17.004   5.826  0.00  0.00     0.031 A 
HETATM   19  C   UNK N   1      31.401  17.043   4.443  0.00  0.00     0.034 A 
HETATM   20 Cl   UNK N   1      32.772  17.189   3.366  0.00  0.00    -0.084 Cl
HETATM   21  C   UNK N   1      30.106  16.989   3.923  0.00  0.00     0.024 A 
HETATM   22  C   UNK N   1      29.012  16.899   4.785  0.00  0.00     0.002 A 
HETATM   23  C   UNK N   1      29.212  16.877   6.168  0.00  0.00     0.008 A 
ENDBRANCH  16  17
BRANCH  16  24
HETATM   24  C   UNK N   1      30.351  18.299   8.803  0.00  0.00     0.038 C 
BRANCH  24  25
HETATM   25  C   UNK N   1      29.178  18.253   9.768  0.00  0.00     0.112 C 
BRANCH  25  26
HETATM   26  N   UNK N   1      27.958  18.576   9.049  0.00  0.00    -0.430 N 
HETATM   27  H   UNK N   1      27.645  19.544   8.966  0.00  0.00     0.149 HD
HETATM   28  H   UNK N   1      27.409  17.829   8.623  0.00  0.00     0.149 HD
ENDBRANCH  25  26
ENDBRANCH  24  25
ENDBRANCH  16  24
ENDBRANCH  13  16
ENDBRANCH   1  12
BRANCH  10  29
HETATM   29  N   UNK N   1      36.149  14.395  13.030  0.00  0.00    -0.307 N 
HETATM   30  C   UNK N   1      36.514  13.541  14.034  0.00  0.00     0.257 C 
HETATM   31  O   UNK N   1      37.053  12.475  13.782  0.00  0.00    -0.267 OA
HETATM   32  H   UNK N   1      35.630  15.192  13.282  0.00  0.00     0.170 HD
BRANCH  30  33
HETATM   33  C   UNK N   1      36.224  13.871  15.444  0.00  0.00     0.032 A 
HETATM   34  C   UNK N   1      35.259  13.128  16.147  0.00  0.00     0.017 A 
HETATM   35  C   UNK N   1      34.979  13.420  17.483  0.00  0.00     0.001 A 
HETATM   36  C   UNK N   1      35.655  14.458  18.127  0.00  0.00     0.000 A 
HETATM   37  C   UNK N   1      36.614  15.203  17.434  0.00  0.00     0.001 A 
HETATM   38  C   UNK N   1      36.901  14.910  16.096  0.00  0.00     0.017 A 
ENDBRANCH  30  33
ENDBRANCH  10  29
TORSDOF 8
ENDMDL
MODEL 2
REMARK VINA RESULT:      -8.1      7.071     12.232
REMARK  8 active torsions:
REMARK  status: ('A' for Active; 'I' for Inactive)
REMARK    1  A    between atoms: C_7  and  C_8 
REMARK    2  A    between atoms: C_8  and  C_9 
REMARK    3  A    between atoms: C_8  and  C_12 
REMARK    4  A    between atoms: C_9  and  C_10 
REMARK    5  A    between atoms: C_10  and  N_11 
REMARK       I    between atoms: C_12  and  N_14 
REMARK    6  A    between atoms: N_14  and  C_15 
REMARK    7  A    between atoms: C_24  and  N_25 
REMARK       I    between atoms: N_25  and  C_26 
REMARK    8  A    between atoms: C_26  and  C_28 
ROOT
HETATM    1  C   UNK N   1      26.397  19.217   4.291  0.00  0.00     0.035 A 
HETATM    2  C   UNK N   1      25.256  18.610   4.834  0.00  0.00     0.047 A 
HETATM    3  C   UNK N   1      24.016  18.942   4.323  0.00  0.00     0.040 A 
HETATM    4  C   UNK N   1      26.262  20.151   3.234  0.00  0.00     0.032 A 
HETATM    5  C   UNK N   1      24.978  20.505   2.760  0.00  0.00     0.034 A 
HETATM    6  C   UNK N   1      23.876  19.871   3.340  0.00  0.00     0.062 A 
HETATM    7  N   UNK N   1      22.571  20.031   3.050  0.00  0.00    -0.298 N 
HETATM    8  N   UNK N   1      21.873  19.204   3.830  0.00  0.00    -0.284 N 
ATOM      9  HN  UNK N   1      20.858  19.110   3.840  1.00  0.00     0.188 HD
HETATM   10  C   UNK N   1      22.738  18.512   4.608  0.00  0.00     0.135 A 
HETATM   11  H   UNK N   1      22.197  20.648   2.381  0.00  0.00     0.187 HD
ENDROOT
BRANCH   1  12
HETATM   12  N   UNK N   1      27.669  18.831   4.782  0.00  0.00    -0.327 N 
HETATM   13  C   UNK N   1      28.032  19.070   6.073  0.00  0.00     0.230 C 
HETATM   14  O   UNK N   1      27.381  19.846   6.759  0.00  0.00    -0.272 OA
HETATM   15  H   UNK N   1      28.302  18.381   4.178  0.00  0.00     0.169 HD
BRANCH  13  16
HETATM   16  C   UNK N   1      29.207  18.356   6.700  0.00  0.00     0.112 C 
BRANCH  16  17
HETATM   17  C   UNK N   1      29.814  17.248   5.861  0.00  0.00    -0.043 A 
HETATM   18  C   UNK N   1      30.844  17.497   4.938  0.00  0.00     0.031 A 
HETATM   19  C   UNK N   1      31.356  16.462   4.150  0.00  0.00     0.034 A 
HETATM   20 Cl   UNK N   1      32.602  16.800   2.969  0.00  0.00    -0.084 Cl
HETATM   21  C   UNK N   1      30.857  15.166   4.288  0.00  0.00     0.024 A 
HETATM   22  C   UNK N   1      29.844  14.903   5.212  0.00  0.00     0.002 A 
HETATM   23  C   UNK N   1      29.320  15.940   5.989  0.00  0.00     0.008 A 
ENDBRANCH  16  17
BRANCH  16  24
HETATM   24  C   UNK N   1      28.726  17.819   8.053  0.00  0.00     0.038 C 
BRANCH  24  25
HETATM   25  C   UNK N   1      29.475  18.423   9.229  0.00  0.00     0.112 C 
BRANCH  25  26
HETATM   26  N   UNK N   1      30.803  17.839   9.300  0.00  0.00    -0.430 N 
HETATM   27  H   UNK N   1      31.053  17.047   8.708  0.00  0.00     0.149 HD
HETATM   28  H   UNK N   1      31.491  18.225   9.945  0.00  0.00     0.149 HD
ENDBRANCH  25  26
ENDBRANCH  24  25
ENDBRANCH  16  24
ENDBRANCH  13  16
ENDBRANCH   1  12
BRANCH  10  29
HETATM   29  N   UNK N   1      22.327  17.514   5.547  0.00  0.00    -0.307 N 
HETATM   30  C   UNK N   1      21.456  17.712   6.582  0.00  0.00     0.257 C 
HETATM   31  O   UNK N   1      21.046  18.830   6.849  0.00  0.00    -0.267 OA
HETATM   32  H   UNK N   1      22.702  16.610   5.439  0.00  0.00     0.170 HD
BRANCH  30  33
HETATM   33  C   UNK N   1      21.024  16.580   7.427  0.00  0.00     0.032 A 
HETATM   34  C   UNK N   1      21.644  15.327   7.279  0.00  0.00     0.017 A 
HETATM   35  C   UNK N   1      21.257  14.248   8.076  0.00  0.00     0.001 A 
HETATM   36  C   UNK N   1      20.245  14.410   9.024  0.00  0.00     0.000 A 
HETATM   37  C   UNK N   1      19.621  15.653   9.177  0.00  0.00     0.001 A 
HETATM   38  C   UNK N   1      20.011  16.737   8.382  0.00  0.00     0.017 A 
ENDBRANCH  30  33
ENDBRANCH  10  29
TORSDOF 8
ENDMDL
MODEL 3
REMARK VINA RESULT:      -7.9      8.765     12.466
REMARK  8 active torsions:
REMARK  status: ('A' for Active; 'I' for Inactive)
REMARK    1  A    between atoms: C_7  and  C_8 
REMARK    2  A    between atoms: C_8  and  C_9 
REMARK    3  A    between atoms: C_8  and  C_12 
REMARK    4  A    between atoms: C_9  and  C_10 
REMARK    5  A    between atoms: C_10  and  N_11 
REMARK       I    between atoms: C_12  and  N_14 
REMARK    6  A    between atoms: N_14  and  C_15 
REMARK    7  A    between atoms: C_24  and  N_25 
REMARK       I    between atoms: N_25  and  C_26 
REMARK    8  A    between atoms: C_26  and  C_28 
ROOT
HETATM    1  C   UNK N   1      23.124  17.784   5.042  0.00  0.00     0.035 A 
HETATM    2  C   UNK N   1      22.660  16.923   6.048  0.00  0.00     0.047 A 
HETATM    3  C   UNK N   1      21.408  16.356   5.915  0.00  0.00     0.040 A 
HETATM    4  C   UNK N   1      22.309  18.053   3.915  0.00  0.00     0.032 A 
HETATM    5  C   UNK N   1      21.013  17.494   3.827  0.00  0.00     0.034 A 
HETATM    6  C   UNK N   1      20.602  16.646   4.858  0.00  0.00     0.062 A 
HETATM    7  N   UNK N   1      19.432  15.993   4.988  0.00  0.00    -0.298 N 
HETATM    8  N   UNK N   1      19.484  15.277   6.112  0.00  0.00    -0.284 N 
ATOM      9  HN  UNK N   1      18.738  14.684   6.476  1.00  0.00     0.188 HD
HETATM   10  C   UNK N   1      20.693  15.468   6.690  0.00  0.00     0.135 A 
HETATM   11  H   UNK N   1      18.672  16.035   4.364  0.00  0.00     0.187 HD
ENDROOT
BRANCH   1  12
HETATM   12  N   UNK N   1      24.432  18.318   5.157  0.00  0.00    -0.327 N 
HETATM   13  C   UNK N   1      25.499  17.710   4.568  0.00  0.00     0.230 C 
HETATM   14  O   UNK N   1      25.398  16.563   4.151  0.00  0.00    -0.272 OA
HETATM   15  H   UNK N   1      24.571  19.145   5.673  0.00  0.00     0.169 HD
BRANCH  13  16
HETATM   16  C   UNK N   1      26.806  18.442   4.372  0.00  0.00     0.112 C 
BRANCH  16  17
HETATM   17  C   UNK N   1      27.907  18.072   5.347  0.00  0.00    -0.043 A 
HETATM   18  C   UNK N   1      27.802  18.343   6.721  0.00  0.00     0.031 A 
HETATM   19  C   UNK N   1      28.851  18.027   7.589  0.00  0.00     0.034 A 
HETATM   20 Cl   UNK N   1      28.725  18.418   9.290  0.00  0.00    -0.084 Cl
HETATM   21  C   UNK N   1      30.009  17.421   7.096  0.00  0.00     0.024 A 
HETATM   22  C   UNK N   1      30.119  17.133   5.735  0.00  0.00     0.002 A 
HETATM   23  C   UNK N   1      29.077  17.464   4.864  0.00  0.00     0.008 A 
ENDBRANCH  16  17
BRANCH  16  24
HETATM   24  C   UNK N   1      26.490  19.939   4.445  0.00  0.00     0.038 C 
BRANCH  24  25
HETATM   25  C   UNK N   1      26.420  20.597   3.077  0.00  0.00     0.112 C 
BRANCH  25  26
HETATM   26  N   UNK N   1      25.045  20.575   2.608  0.00  0.00    -0.430 N 
HETATM   27  H   UNK N   1      24.411  21.344   2.822  0.00  0.00     0.149 HD
HETATM   28  H   UNK N   1      24.712  19.783   2.058  0.00  0.00     0.149 HD
ENDBRANCH  25  26
ENDBRANCH  24  25
ENDBRANCH  16  24
ENDBRANCH  13  16
ENDBRANCH   1  12
BRANCH  10  29
HETATM   29  N   UNK N   1      21.096  14.825   7.902  0.00  0.00    -0.307 N 
HETATM   30  C   UNK N   1      21.177  13.474   8.093  0.00  0.00     0.257 C 
HETATM   31  O   UNK N   1      20.782  12.697   7.238  0.00  0.00    -0.267 OA
HETATM   32  H   UNK N   1      21.336  15.403   8.662  0.00  0.00     0.170 HD
BRANCH  30  33
HETATM   33  C   UNK N   1      21.705  12.924   9.357  0.00  0.00     0.032 A 
HETATM   34  C   UNK N   1      20.843  12.752  10.454  0.00  0.00     0.017 A 
HETATM   35  C   UNK N   1      21.322  12.224  11.655  0.00  0.00     0.001 A 
HETATM   36  C   UNK N   1      22.667  11.868  11.771  0.00  0.00     0.000 A 
HETATM   37  C   UNK N   1      23.532  12.038  10.686  0.00  0.00     0.001 A 
HETATM   38  C   UNK N   1      23.053  12.562   9.480  0.00  0.00     0.017 A 
ENDBRANCH  30  33
ENDBRANCH  10  29
TORSDOF 8
ENDMDL
MODEL 4
REMARK VINA RESULT:      -7.9      1.688      2.138
REMARK  8 active torsions:
REMARK  status: ('A' for Active; 'I' for Inactive)
REMARK    1  A    between atoms: C_7  and  C_8 
REMARK    2  A    between atoms: C_8  and  C_9 
REMARK    3  A    between atoms: C_8  and  C_12 
REMARK    4  A    between atoms: C_9  and  C_10 
REMARK    5  A    between atoms: C_10  and  N_11 
REMARK       I    between atoms: C_12  and  N_14 
REMARK    6  A    between atoms: N_14  and  C_15 
REMARK    7  A    between atoms: C_24  and  N_25 
REMARK       I    between atoms: N_25  and  C_26 
REMARK    8  A    between atoms: C_26  and  C_28 
ROOT
HETATM    1  C   UNK N   1      34.736  13.710   9.076  0.00  0.00     0.035 A 
HETATM    2  C   UNK N   1      35.210  13.815  10.392  0.00  0.00     0.047 A 
HETATM    3  C   UNK N   1      36.395  13.189  10.725  0.00  0.00     0.040 A 
HETATM    4  C   UNK N   1      35.476  12.974   8.117  0.00  0.00     0.032 A 
HETATM    5  C   UNK N   1      36.663  12.307   8.498  0.00  0.00     0.034 A 
HETATM    6  C   UNK N   1      37.087  12.444   9.822  0.00  0.00     0.062 A 
HETATM    7  N   UNK N   1      38.180  11.920  10.409  0.00  0.00    -0.298 N 
HETATM    8  N   UNK N   1      38.203  12.333  11.676  0.00  0.00    -0.284 N 
ATOM      9  HN  UNK N   1      38.911  12.091  12.369  1.00  0.00     0.188 HD
HETATM   10  C   UNK N   1      37.129  13.128  11.891  0.00  0.00     0.135 A 
HETATM   11  H   UNK N   1      38.845  11.337   9.978  0.00  0.00     0.187 HD
ENDROOT
BRANCH   1  12
HETATM   12  N   UNK N   1      33.548  14.400   8.727  0.00  0.00    -0.327 N 
HETATM   13  C   UNK N   1      33.588  15.564   8.021  0.00  0.00     0.230 C 
HETATM   14  O   UNK N   1      34.643  16.171   7.898  0.00  0.00    -0.272 OA
HETATM   15  H   UNK N   1      32.678  14.029   9.000  0.00  0.00     0.169 HD
BRANCH  13  16
HETATM   16  C   UNK N   1      32.354  16.106   7.337  0.00  0.00     0.112 C 
BRANCH  16  17
HETATM   17  C   UNK N   1      32.448  16.221   5.828  0.00  0.00    -0.043 A 
HETATM   18  C   UNK N   1      32.485  15.087   4.999  0.00  0.00     0.031 A 
HETATM   19  C   UNK N   1      32.613  15.225   3.614  0.00  0.00     0.034 A 
HETATM   20 Cl   UNK N   1      32.709  13.801   2.601  0.00  0.00    -0.084 Cl
HETATM   21  C   UNK N   1      32.688  16.496   3.041  0.00  0.00     0.024 A 
HETATM   22  C   UNK N   1      32.638  17.631   3.853  0.00  0.00     0.002 A 
HETATM   23  C   UNK N   1      32.527  17.493   5.239  0.00  0.00     0.008 A 
ENDBRANCH  16  17
BRANCH  16  24
HETATM   24  C   UNK N   1      32.059  17.469   7.973  0.00  0.00     0.038 C 
BRANCH  24  25
HETATM   25  C   UNK N   1      30.702  17.523   8.654  0.00  0.00     0.112 C 
BRANCH  25  26
HETATM   26  N   UNK N   1      29.689  17.866   7.671  0.00  0.00    -0.430 N 
HETATM   27  H   UNK N   1      29.307  17.153   7.049  0.00  0.00     0.149 HD
HETATM   28  H   UNK N   1      29.356  18.827   7.602  0.00  0.00     0.149 HD
ENDBRANCH  25  26
ENDBRANCH  24  25
ENDBRANCH  16  24
ENDBRANCH  13  16
ENDBRANCH   1  12
BRANCH  10  29
HETATM   29  N   UNK N   1      36.859  13.766  13.142  0.00  0.00    -0.307 N 
HETATM   30  C   UNK N   1      36.721  13.128  14.343  0.00  0.00     0.257 C 
HETATM   31  O   UNK N   1      36.705  11.910  14.405  0.00  0.00    -0.267 OA
HETATM   32  H   UNK N   1      36.766  14.747  13.138  0.00  0.00     0.170 HD
BRANCH  30  33
HETATM   33  C   UNK N   1      36.546  13.902  15.589  0.00  0.00     0.032 A 
HETATM   34  C   UNK N   1      37.268  15.094  15.774  0.00  0.00     0.017 A 
HETATM   35  C   UNK N   1      37.107  15.844  16.941  0.00  0.00     0.001 A 
HETATM   36  C   UNK N   1      36.228  15.408  17.934  0.00  0.00     0.000 A 
HETATM   37  C   UNK N   1      35.508  14.222  17.759  0.00  0.00     0.001 A 
HETATM   38  C   UNK N   1      35.663  13.471  16.588  0.00  0.00     0.017 A 
ENDBRANCH  30  33
ENDBRANCH  10  29
TORSDOF 8
ENDMDL
MODEL 5
REMARK VINA RESULT:      -7.8      7.694     12.196
REMARK  8 active torsions:
REMARK  status: ('A' for Active; 'I' for Inactive)
REMARK    1  A    between atoms: C_7  and  C_8 
REMARK    2  A    between atoms: C_8  and  C_9 
REMARK    3  A    between atoms: C_8  and  C_12 
REMARK    4  A    between atoms: C_9  and  C_10 
REMARK    5  A    between atoms: C_10  and  N_11 
REMARK       I    between atoms: C_12  and  N_14 
REMARK    6  A    between atoms: N_14  and  C_15 
REMARK    7  A    between atoms: C_24  and  N_25 
REMARK       I    between atoms: N_25  and  C_26 
REMARK    8  A    between atoms: C_26  and  C_28 
ROOT
HETATM    1  C   UNK N   1      22.736  17.300   4.830  0.00  0.00     0.035 A 
HETATM    2  C   UNK N   1      24.098  17.515   5.087  0.00  0.00     0.047 A 
HETATM    3  C   UNK N   1      24.711  18.628   4.545  0.00  0.00     0.040 A 
HETATM    4  C   UNK N   1      22.016  18.222   4.030  0.00  0.00     0.032 A 
HETATM    5  C   UNK N   1      22.680  19.328   3.452  0.00  0.00     0.034 A 
HETATM    6  C   UNK N   1      24.038  19.492   3.739  0.00  0.00     0.062 A 
HETATM    7  N   UNK N   1      24.870  20.464   3.321  0.00  0.00    -0.298 N 
HETATM    8  N   UNK N   1      26.068  20.239   3.862  0.00  0.00    -0.284 N 
ATOM      9  HN  UNK N   1      26.903  20.807   3.719  1.00  0.00     0.188 HD
HETATM   10  C   UNK N   1      25.993  19.128   4.632  0.00  0.00     0.135 A 
HETATM   11  H   UNK N   1      24.636  21.209   2.723  0.00  0.00     0.187 HD
ENDROOT
BRANCH   1  12
HETATM   12  N   UNK N   1      22.099  16.187   5.434  0.00  0.00    -0.327 N 
HETATM   13  C   UNK N   1      21.306  16.335   6.531  0.00  0.00     0.230 C 
HETATM   14  O   UNK N   1      21.332  17.378   7.170  0.00  0.00    -0.272 OA
HETATM   15  H   UNK N   1      22.233  15.290   5.052  0.00  0.00     0.169 HD
BRANCH  13  16
HETATM   16  C   UNK N   1      20.349  15.246   6.956  0.00  0.00     0.112 C 
BRANCH  16  17
HETATM   17  C   UNK N   1      20.902  14.253   7.960  0.00  0.00    -0.043 A 
HETATM   18  C   UNK N   1      21.817  13.254   7.587  0.00  0.00     0.031 A 
HETATM   19  C   UNK N   1      22.279  12.328   8.527  0.00  0.00     0.034 A 
HETATM   20 Cl   UNK N   1      23.379  11.060   8.034  0.00  0.00    -0.084 Cl
HETATM   21  C   UNK N   1      21.844  12.400   9.852  0.00  0.00     0.024 A 
HETATM   22  C   UNK N   1      20.945  13.396  10.238  0.00  0.00     0.002 A 
HETATM   23  C   UNK N   1      20.471  14.312   9.295  0.00  0.00     0.008 A 
ENDBRANCH  16  17
BRANCH  16  24
HETATM   24  C   UNK N   1      19.891  14.536   5.678  0.00  0.00     0.038 C 
BRANCH  24  25
HETATM   25  C   UNK N   1      18.809  15.299   4.932  0.00  0.00     0.112 C 
BRANCH  25  26
HETATM   26  N   UNK N   1      19.260  15.560   3.576  0.00  0.00    -0.430 N 
HETATM   27  H   UNK N   1      20.255  15.563   3.351  0.00  0.00     0.149 HD
HETATM   28  H   UNK N   1      18.575  15.742   2.842  0.00  0.00     0.149 HD
ENDBRANCH  25  26
ENDBRANCH  24  25
ENDBRANCH  16  24
ENDBRANCH  13  16
ENDBRANCH   1  12
BRANCH  10  29
HETATM   29  N   UNK N   1      27.096  18.615   5.384  0.00  0.00    -0.307 N 
HETATM   30  C   UNK N   1      27.618  19.182   6.512  0.00  0.00     0.257 C 
HETATM   31  O   UNK N   1      27.230  20.273   6.900  0.00  0.00    -0.267 OA
HETATM   32  H   UNK N   1      27.514  17.783   5.061  0.00  0.00     0.170 HD
BRANCH  30  33
HETATM   33  C   UNK N   1      28.695  18.506   7.264  0.00  0.00     0.032 A 
HETATM   34  C   UNK N   1      29.504  17.558   6.616  0.00  0.00     0.017 A 
HETATM   35  C   UNK N   1      30.533  16.916   7.307  0.00  0.00     0.001 A 
HETATM   36  C   UNK N   1      30.759  17.212   8.653  0.00  0.00     0.000 A 
HETATM   37  C   UNK N   1      29.957  18.153   9.306  0.00  0.00     0.001 A 
HETATM   38  C   UNK N   1      28.928  18.802   8.613  0.00  0.00     0.017 A 
ENDBRANCH  30  33
ENDBRANCH  10  29
TORSDOF 8
ENDMDL
MODEL 6
REMARK VINA RESULT:      -7.4     16.041     19.616
REMARK  8 active torsions:
REMARK  status: ('A' for Active; 'I' for Inactive)
REMARK    1  A    between atoms: C_7  and  C_8 
REMARK    2  A    between atoms: C_8  and  C_9 
REMARK    3  A    between atoms: C_8  and  C_12 
REMARK    4  A    between atoms: C_9  and  C_10 
REMARK    5  A    between atoms: C_10  and  N_11 
REMARK       I    between atoms: C_12  and  N_14 
REMARK    6  A    between atoms: N_14  and  C_15 
REMARK    7  A    between atoms: C_24  and  N_25 
REMARK       I    between atoms: N_25  and  C_26 
REMARK    8  A    between atoms: C_26  and  C_28 
ROOT
HETATM    1  C   UNK N   1      29.111  23.234  -3.754  0.00  0.00     0.035 A 
HETATM    2  C   UNK N   1      29.477  22.349  -4.779  0.00  0.00     0.047 A 
HETATM    3  C   UNK N   1      30.588  21.547  -4.603  0.00  0.00     0.040 A 
HETATM    4  C   UNK N   1      29.878  23.288  -2.564  0.00  0.00     0.032 A 
HETATM    5  C   UNK N   1      31.036  22.488  -2.429  0.00  0.00     0.034 A 
HETATM    6  C   UNK N   1      31.354  21.627  -3.482  0.00  0.00     0.062 A 
HETATM    7  N   UNK N   1      32.387  20.769  -3.578  0.00  0.00    -0.298 N 
HETATM    8  N   UNK N   1      32.284  20.130  -4.744  0.00  0.00    -0.284 N 
ATOM      9  HN  UNK N   1      32.929  19.423  -5.096  1.00  0.00     0.188 HD
HETATM   10  C   UNK N   1      31.177  20.576  -5.384  0.00  0.00     0.135 A 
HETATM   11  H   UNK N   1      33.094  20.635  -2.906  0.00  0.00     0.187 HD
ENDROOT
BRANCH   1  12
HETATM   12  N   UNK N   1      27.939  24.013  -3.918  0.00  0.00    -0.327 N 
HETATM   13  C   UNK N   1      27.955  25.175  -4.629  0.00  0.00     0.230 C 
HETATM   14  O   UNK N   1      29.021  25.701  -4.920  0.00  0.00    -0.272 OA
HETATM   15  H   UNK N   1      27.097  23.709  -3.510  0.00  0.00     0.169 HD
BRANCH  13  16
HETATM   16  C   UNK N   1      26.674  25.812  -5.115  0.00  0.00     0.112 C 
BRANCH  16  17
HETATM   17  C   UNK N   1      26.246  25.420  -6.516  0.00  0.00    -0.043 A 
HETATM   18  C   UNK N   1      25.926  24.094  -6.850  0.00  0.00     0.031 A 
HETATM   19  C   UNK N   1      25.574  23.756  -8.160  0.00  0.00     0.034 A 
HETATM   20 Cl   UNK N   1      25.228  22.091  -8.569  0.00  0.00    -0.084 Cl
HETATM   21  C   UNK N   1      25.522  24.743  -9.146  0.00  0.00     0.024 A 
HETATM   22  C   UNK N   1      25.825  26.068  -8.824  0.00  0.00     0.002 A 
HETATM   23  C   UNK N   1      26.192  26.403  -7.518  0.00  0.00     0.008 A 
ENDBRANCH  16  17
BRANCH  16  24
HETATM   24  C   UNK N   1      26.866  27.329  -5.004  0.00  0.00     0.038 C 
BRANCH  24  25
HETATM   25  C   UNK N   1      25.764  28.008  -4.208  0.00  0.00     0.112 C 
BRANCH  25  26
HETATM   26  N   UNK N   1      25.854  27.592  -2.820  0.00  0.00    -0.430 N 
HETATM   27  H   UNK N   1      26.714  27.732  -2.290  0.00  0.00     0.149 HD
HETATM   28  H   UNK N   1      25.049  27.157  -2.369  0.00  0.00     0.149 HD
ENDBRANCH  25  26
ENDBRANCH  24  25
ENDBRANCH  16  24
ENDBRANCH  13  16
ENDBRANCH   1  12
BRANCH  10  29
HETATM   29  N   UNK N   1      30.750  20.080  -6.655  0.00  0.00    -0.307 N 
HETATM   30  C   UNK N   1      31.576  19.697  -7.675  0.00  0.00     0.257 C 
HETATM   31  O   UNK N   1      32.781  19.870  -7.601  0.00  0.00    -0.267 OA
HETATM   32  H   UNK N   1      29.779  20.008  -6.809  0.00  0.00     0.170 HD
BRANCH  30  33
HETATM   33  C   UNK N   1      31.021  19.102  -8.908  0.00  0.00     0.032 A 
HETATM   34  C   UNK N   1      31.381  17.793  -9.270  0.00  0.00     0.017 A 
HETATM   35  C   UNK N   1      30.860  17.211 -10.427  0.00  0.00     0.001 A 
HETATM   36  C   UNK N   1      29.978  17.933 -11.234  0.00  0.00     0.000 A 
HETATM   37  C   UNK N   1      29.617  19.237 -10.882  0.00  0.00     0.001 A 
HETATM   38  C   UNK N   1      30.134  19.821  -9.720  0.00  0.00     0.017 A 
ENDBRANCH  30  33
ENDBRANCH  10  29
TORSDOF 8
ENDMDL
MODEL 7
REMARK VINA RESULT:      -7.4      7.184     10.240
REMARK  8 active torsions:
REMARK  status: ('A' for Active; 'I' for Inactive)
REMARK    1  A    between atoms: C_7  and  C_8 
REMARK    2  A    between atoms: C_8  and  C_9 
REMARK    3  A    between atoms: C_8  and  C_12 
REMARK    4  A    between atoms: C_9  and  C_10 
REMARK    5  A    between atoms: C_10  and  N_11 
REMARK       I    between atoms: C_12  and  N_14 
REMARK    6  A    between atoms: N_14  and  C_15 
REMARK    7  A    between atoms: C_24  and  N_25 
REMARK       I    between atoms: N_25  and  C_26 
REMARK    8  A    between atoms: C_26  and  C_28 
ROOT
HETATM    1  C   UNK N   1      27.394  14.817   4.386  0.00  0.00     0.035 A 
HETATM    2  C   UNK N   1      26.579  14.221   5.359  0.00  0.00     0.047 A 
HETATM    3  C   UNK N   1      25.529  13.422   4.950  0.00  0.00     0.040 A 
HETATM    4  C   UNK N   1      27.132  14.589   3.012  0.00  0.00     0.032 A 
HETATM    5  C   UNK N   1      26.024  13.802   2.622  0.00  0.00     0.034 A 
HETATM    6  C   UNK N   1      25.244  13.235   3.634  0.00  0.00     0.062 A 
HETATM    7  N   UNK N   1      24.159  12.448   3.511  0.00  0.00    -0.298 N 
HETATM    8  N   UNK N   1      23.752  12.116   4.737  0.00  0.00    -0.284 N 
ATOM      9  HN  UNK N   1      22.948  11.531   4.960  1.00  0.00     0.188 HD
HETATM   10  C   UNK N   1      24.587  12.686   5.638  0.00  0.00     0.135 A 
HETATM   11  H   UNK N   1      23.741  12.165   2.667  0.00  0.00     0.187 HD
ENDROOT
BRANCH   1  12
HETATM   12  N   UNK N   1      28.502  15.590   4.812  0.00  0.00    -0.327 N 
HETATM   13  C   UNK N   1      28.375  16.918   5.087  0.00  0.00     0.230 C 
HETATM   14  O   UNK N   1      27.375  17.526   4.728  0.00  0.00    -0.272 OA
HETATM   15  H   UNK N   1      29.381  15.159   4.910  0.00  0.00     0.169 HD
BRANCH  13  16
HETATM   16  C   UNK N   1      29.430  17.659   5.876  0.00  0.00     0.112 C 
BRANCH  16  17
HETATM   17  C   UNK N   1      30.859  17.226   5.610  0.00  0.00    -0.043 A 
HETATM   18  C   UNK N   1      31.585  16.457   6.535  0.00  0.00     0.031 A 
HETATM   19  C   UNK N   1      32.914  16.107   6.280  0.00  0.00     0.034 A 
HETATM   20 Cl   UNK N   1      33.819  15.192   7.466  0.00  0.00    -0.084 Cl
HETATM   21  C   UNK N   1      33.526  16.507   5.091  0.00  0.00     0.024 A 
HETATM   22  C   UNK N   1      32.811  17.260   4.157  0.00  0.00     0.002 A 
HETATM   23  C   UNK N   1      31.488  17.623   4.419  0.00  0.00     0.008 A 
ENDBRANCH  16  17
BRANCH  16  24
HETATM   24  C   UNK N   1      29.073  17.492   7.357  0.00  0.00     0.038 C 
BRANCH  24  25
HETATM   25  C   UNK N   1      28.522  18.764   7.979  0.00  0.00     0.112 C 
BRANCH  25  26
HETATM   26  N   UNK N   1      27.689  18.416   9.117  0.00  0.00    -0.430 N 
HETATM   27  H   UNK N   1      27.280  17.485   9.194  0.00  0.00     0.149 HD
HETATM   28  H   UNK N   1      27.513  19.108   9.845  0.00  0.00     0.149 HD
ENDBRANCH  25  26
ENDBRANCH  24  25
ENDBRANCH  16  24
ENDBRANCH  13  16
ENDBRANCH   1  12
BRANCH  10  29
HETATM   29  N   UNK N   1      24.456  12.513   7.052  0.00  0.00    -0.307 N 
HETATM   30  C   UNK N   1      23.376  12.890   7.799  0.00  0.00     0.257 C 
HETATM   31  O   UNK N   1      22.464  13.530   7.301  0.00  0.00    -0.267 OA
HETATM   32  H   UNK N   1      25.207  12.086   7.526  0.00  0.00     0.170 HD
BRANCH  30  33
HETATM   33  C   UNK N   1      23.309  12.567   9.239  0.00  0.00     0.032 A 
HETATM   34  C   UNK N   1      22.057  12.456   9.868  0.00  0.00     0.017 A 
HETATM   35  C   UNK N   1      21.973  12.142  11.226  0.00  0.00     0.001 A 
HETATM   36  C   UNK N   1      23.139  11.940  11.967  0.00  0.00     0.000 A 
HETATM   37  C   UNK N   1      24.389  12.050  11.350  0.00  0.00     0.001 A 
HETATM   38  C   UNK N   1      24.475  12.360   9.988  0.00  0.00     0.017 A 
ENDBRANCH  30  33
ENDBRANCH  10  29
TORSDOF 8
ENDMDL
MODEL 8
REMARK VINA RESULT:      -7.3      4.424     10.258
REMARK  8 active torsions:
REMARK  status: ('A' for Active; 'I' for Inactive)
REMARK    1  A    between atoms: C_7  and  C_8 
REMARK    2  A    between atoms: C_8  and  C_9 
REMARK    3  A    between atoms: C_8  and  C_12 
REMARK    4  A    between atoms: C_9  and  C_10 
REMARK    5  A    between atoms: C_10  and  N_11 
REMARK       I    between atoms: C_12  and  N_14 
REMARK    6  A    between atoms: N_14  and  C_15 
REMARK    7  A    between atoms: C_24  and  N_25 
REMARK       I    between atoms: N_25  and  C_26 
REMARK    8  A    between atoms: C_26  and  C_28 
ROOT
HETATM    1  C   UNK N   1      34.601  13.560  11.286  0.00  0.00     0.035 A 
HETATM    2  C   UNK N   1      34.105  14.268  10.182  0.00  0.00     0.047 A 
HETATM    3  C   UNK N   1      34.493  15.582  10.004  0.00  0.00     0.040 A 
HETATM    4  C   UNK N   1      35.486  14.196  12.191  0.00  0.00     0.032 A 
HETATM    5  C   UNK N   1      35.831  15.555  12.008  0.00  0.00     0.034 A 
HETATM    6  C   UNK N   1      35.306  16.212  10.893  0.00  0.00     0.062 A 
HETATM    7  N   UNK N   1      35.499  17.487  10.505  0.00  0.00    -0.298 N 
HETATM    8  N   UNK N   1      34.828  17.677   9.369  0.00  0.00    -0.284 N 
ATOM      9  HN  UNK N   1      34.782  18.549   8.842  1.00  0.00     0.188 HD
HETATM   10  C   UNK N   1      34.217  16.518   9.030  0.00  0.00     0.135 A 
HETATM   11  H   UNK N   1      36.041  18.160  10.977  0.00  0.00     0.187 HD
ENDROOT
BRANCH   1  12
HETATM   12  N   UNK N   1      34.244  12.196  11.433  0.00  0.00    -0.327 N 
HETATM   13  C   UNK N   1      35.188  11.234  11.624  0.00  0.00     0.230 C 
HETATM   14  O   UNK N   1      36.368  11.483  11.416  0.00  0.00    -0.272 OA
HETATM   15  H   UNK N   1      33.294  11.940  11.395  0.00  0.00     0.169 HD
BRANCH  13  16
HETATM   16  C   UNK N   1      34.815   9.863  12.139  0.00  0.00     0.112 C 
BRANCH  16  17
HETATM   17  C   UNK N   1      34.956   9.673  13.637  0.00  0.00    -0.043 A 
HETATM   18  C   UNK N   1      35.711   8.622  14.183  0.00  0.00     0.031 A 
HETATM   19  C   UNK N   1      35.789   8.450  15.568  0.00  0.00     0.034 A 
HETATM   20 Cl   UNK N   1      36.692   7.106  16.231  0.00  0.00    -0.084 Cl
HETATM   21  C   UNK N   1      35.127   9.335  16.422  0.00  0.00     0.024 A 
HETATM   22  C   UNK N   1      34.385  10.392  15.891  0.00  0.00     0.002 A 
HETATM   23  C   UNK N   1      34.294  10.555  14.506  0.00  0.00     0.008 A 
ENDBRANCH  16  17
BRANCH  16  24
HETATM   24  C   UNK N   1      35.680   8.854  11.375  0.00  0.00     0.038 C 
BRANCH  24  25
HETATM   25  C   UNK N   1      34.920   8.140  10.270  0.00  0.00     0.112 C 
BRANCH  25  26
HETATM   26  N   UNK N   1      34.069   7.121  10.858  0.00  0.00    -0.430 N 
HETATM   27  H   UNK N   1      34.065   6.967  11.867  0.00  0.00     0.149 HD
HETATM   28  H   UNK N   1      33.469   6.555  10.259  0.00  0.00     0.149 HD
ENDBRANCH  25  26
ENDBRANCH  24  25
ENDBRANCH  16  24
ENDBRANCH  13  16
ENDBRANCH   1  12
BRANCH  10  29
HETATM   29  N   UNK N   1      33.431  16.359   7.845  0.00  0.00    -0.307 N 
HETATM   30  C   UNK N   1      33.627  17.028   6.669  0.00  0.00     0.257 C 
HETATM   31  O   UNK N   1      34.450  17.925   6.591  0.00  0.00    -0.267 OA
HETATM   32  H   UNK N   1      32.687  15.715   7.880  0.00  0.00     0.170 HD
BRANCH  30  33
HETATM   33  C   UNK N   1      32.815  16.707   5.478  0.00  0.00     0.032 A 
HETATM   34  C   UNK N   1      31.860  15.677   5.545  0.00  0.00     0.017 A 
HETATM   35  C   UNK N   1      31.077  15.366   4.433  0.00  0.00     0.001 A 
HETATM   36  C   UNK N   1      31.242  16.078   3.243  0.00  0.00     0.000 A 
HETATM   37  C   UNK N   1      32.191  17.102   3.167  0.00  0.00     0.001 A 
HETATM   38  C   UNK N   1      32.975  17.419   4.282  0.00  0.00     0.017 A 
ENDBRANCH  30  33
ENDBRANCH  10  29
TORSDOF 8
ENDMDL
MODEL 9
REMARK VINA RESULT:      -7.3     16.420     20.013
REMARK  8 active torsions:
REMARK  status: ('A' for Active; 'I' for Inactive)
REMARK    1  A    between atoms: C_7  and  C_8 
REMARK    2  A    between atoms: C_8  and  C_9 
REMARK    3  A    between atoms: C_8  and  C_12 
REMARK    4  A    between atoms: C_9  and  C_10 
REMARK    5  A    between atoms: C_10  and  N_11 
REMARK       I    between atoms: C_12  and  N_14 
REMARK    6  A    between atoms: N_14  and  C_15 
REMARK    7  A    between atoms: C_24  and  N_25 
REMARK       I    between atoms: N_25  and  C_26 
REMARK    8  A    between atoms: C_26  and  C_28 
ROOT
HETATM    1  C   UNK N   1      30.375  20.470  -6.142  0.00  0.00     0.035 A 
HETATM    2  C   UNK N   1      29.684  21.617  -5.727  0.00  0.00     0.047 A 
HETATM    3  C   UNK N   1      30.026  22.203  -4.524  0.00  0.00     0.040 A 
HETATM    4  C   UNK N   1      31.407  19.937  -5.331  0.00  0.00     0.032 A 
HETATM    5  C   UNK N   1      31.706  20.531  -4.083  0.00  0.00     0.034 A 
HETATM    6  C   UNK N   1      30.984  21.670  -3.718  0.00  0.00     0.062 A 
HETATM    7  N   UNK N   1      31.097  22.410  -2.599  0.00  0.00    -0.298 N 
HETATM    8  N   UNK N   1      30.230  23.419  -2.684  0.00  0.00    -0.284 N 
ATOM      9  HN  UNK N   1      30.085  24.141  -1.979  1.00  0.00     0.188 HD
HETATM   10  C   UNK N   1      29.573  23.325  -3.864  0.00  0.00     0.135 A 
HETATM   11  H   UNK N   1      31.712  22.237  -1.850  0.00  0.00     0.187 HD
ENDROOT
BRANCH   1  12
HETATM   12  N   UNK N   1      30.058  19.906  -7.403  0.00  0.00    -0.327 N 
HETATM   13  C   UNK N   1      30.803  20.182  -8.510  0.00  0.00     0.230 C 
HETATM   14  O   UNK N   1      31.596  21.114  -8.498  0.00  0.00    -0.272 OA
HETATM   15  H   UNK N   1      29.283  19.304  -7.481  0.00  0.00     0.169 HD
BRANCH  13  16
HETATM   16  C   UNK N   1      30.707  19.325  -9.751  0.00  0.00     0.112 C 
BRANCH  16  17
HETATM   17  C   UNK N   1      29.555  19.658 -10.679  0.00  0.00    -0.043 A 
HETATM   18  C   UNK N   1      28.648  20.692 -10.395  0.00  0.00     0.031 A 
HETATM   19  C   UNK N   1      27.573  20.949 -11.250  0.00  0.00     0.034 A 
HETATM   20 Cl   UNK N   1      26.424  22.207 -10.853  0.00  0.00    -0.084 Cl
HETATM   21  C   UNK N   1      27.402  20.186 -12.407  0.00  0.00     0.024 A 
HETATM   22  C   UNK N   1      28.304  19.164 -12.708  0.00  0.00     0.002 A 
HETATM   23  C   UNK N   1      29.370  18.897 -11.845  0.00  0.00     0.008 A 
ENDBRANCH  16  17
BRANCH  16  24
HETATM   24  C   UNK N   1      30.628  17.870  -9.278  0.00  0.00     0.038 C 
BRANCH  24  25
HETATM   25  C   UNK N   1      31.912  17.096  -9.525  0.00  0.00     0.112 C 
BRANCH  25  26
HETATM   26  N   UNK N   1      32.750  17.846 -10.446  0.00  0.00    -0.430 N 
HETATM   27  H   UNK N   1      32.995  17.458 -11.357  0.00  0.00     0.149 HD
HETATM   28  H   UNK N   1      33.095  18.767 -10.179  0.00  0.00     0.149 HD
ENDBRANCH  25  26
ENDBRANCH  24  25
ENDBRANCH  16  24
ENDBRANCH  13  16
ENDBRANCH   1  12
BRANCH  10  29
HETATM   29  N   UNK N   1      28.586  24.268  -4.293  0.00  0.00    -0.307 N 
HETATM   30  C   UNK N   1      27.433  24.566  -3.623  0.00  0.00     0.257 C 
HETATM   31  O   UNK N   1      27.104  23.935  -2.631  0.00  0.00    -0.267 OA
HETATM   32  H   UNK N   1      28.752  24.741  -5.140  0.00  0.00     0.170 HD
BRANCH  30  33
HETATM   33  C   UNK N   1      26.535  25.633  -4.110  0.00  0.00     0.032 A 
HETATM   34  C   UNK N   1      26.417  26.828  -3.380  0.00  0.00     0.017 A 
HETATM   35  C   UNK N   1      25.581  27.852  -3.830  0.00  0.00     0.001 A 
HETATM   36  C   UNK N   1      24.854  27.689  -5.011  0.00  0.00     0.000 A 
HETATM   37  C   UNK N   1      24.965  26.503  -5.743  0.00  0.00     0.001 A 
HETATM   38  C   UNK N   1      25.805  25.477  -5.296  0.00  0.00     0.017 A 
ENDBRANCH  30  33
ENDBRANCH  10  29
TORSDOF 8
ENDMDL
