MODEL 1
REMARK VINA RESULT:      -5.3      0.000      0.000
REMARK  3 active torsions:
REMARK  status: ('A' for Active; 'I' for Inactive)
REMARK    1  A    between atoms: C_1  and  C_8 
REMARK    2  A    between atoms: C_11  and  C_13 
REMARK    3  A    between atoms: C_13  and  N_14 
ROOT
HETATM    1  C   UNK N   1      21.569  13.878   8.778  0.00  0.00     0.087 A 
HETATM    2  C   UNK N   1      21.476  13.541   7.437  0.00  0.00     0.040 A 
HETATM    3  C   UNK N   1      20.631  14.484   6.874  0.00  0.00     0.037 A 
HETATM    4  C   UNK N   1      20.265  15.321   7.910  0.00  0.00     0.082 A 
HETATM    5  O   UNK N   1      20.838  14.935   9.023  0.00  0.00    -0.312 OA
ENDROOT
BRANCH   1   6
HETATM    6  C   UNK N   1      22.385  13.203   9.796  0.00  0.00     0.013 A 
HETATM    7  C   UNK N   1      21.765  12.586  10.886  0.00  0.00     0.017 A 
HETATM    8  C   UNK N   1      22.538  11.962  11.866  0.00  0.00     0.018 A 
HETATM    9  C   UNK N   1      23.929  11.963  11.741  0.00  0.00     0.087 A 
HETATM   10  N   UNK N   1      24.518  12.567  10.673  0.00  0.00    -0.374 N 
HETATM   11  C   UNK N   1      23.782  13.182   9.708  0.00  0.00     0.101 A 
ATOM     12  HN  UNK N   1      25.535  12.557  10.593  1.00  0.00     0.164 HD
ENDBRANCH   1   6
BRANCH   4  13
HETATM   13  C   UNK N   1      19.372  16.518   7.784  0.00  0.00     0.335 C 
BRANCH  13  14
HETATM   14  N   UNK N   1      18.924  17.012   9.084  0.00  0.00     0.086 N 
HETATM   15  C   UNK N   1      17.480  17.138   9.005  0.00  0.00     0.309 C 
HETATM   16  C   UNK N   1      19.441  18.354   9.306  0.00  0.00     0.309 C 
ENDBRANCH  13  14
ENDBRANCH   4  13
TORSDOF 3
ENDMDL
MODEL 2
REMARK VINA RESULT:      -5.3     13.955     15.676
REMARK  3 active torsions:
REMARK  status: ('A' for Active; 'I' for Inactive)
REMARK    1  A    between atoms: C_1  and  C_8 
REMARK    2  A    between atoms: C_11  and  C_13 
REMARK    3  A    between atoms: C_13  and  N_14 
ROOT
HETATM    1  C   UNK N   1      35.225  12.794  15.529  0.00  0.00     0.087 A 
HETATM    2  C   UNK N   1      34.694  11.884  14.630  0.00  0.00     0.040 A 
HETATM    3  C   UNK N   1      34.916  12.428  13.374  0.00  0.00     0.037 A 
HETATM    4  C   UNK N   1      35.559  13.630  13.599  0.00  0.00     0.082 A 
HETATM    5  O   UNK N   1      35.727  13.817  14.884  0.00  0.00    -0.312 OA
ENDROOT
BRANCH   1   6
HETATM    6  C   UNK N   1      35.275  12.654  16.990  0.00  0.00     0.013 A 
HETATM    7  C   UNK N   1      35.381  11.384  17.564  0.00  0.00     0.017 A 
HETATM    8  C   UNK N   1      35.407  11.247  18.952  0.00  0.00     0.018 A 
HETATM    9  C   UNK N   1      35.328  12.388  19.752  0.00  0.00     0.087 A 
HETATM   10  N   UNK N   1      35.227  13.618  19.180  0.00  0.00    -0.374 N 
HETATM   11  C   UNK N   1      35.197  13.773  17.828  0.00  0.00     0.101 A 
ATOM     12  HN  UNK N   1      35.173  14.443  19.777  1.00  0.00     0.164 HD
ENDBRANCH   1   6
BRANCH   4  13
HETATM   13  C   UNK N   1      36.030  14.574  12.534  0.00  0.00     0.335 C 
BRANCH  13  14
HETATM   14  N   UNK N   1      35.494  14.234  11.219  0.00  0.00     0.086 N 
HETATM   15  C   UNK N   1      36.569  14.439  10.266  0.00  0.00     0.309 C 
HETATM   16  C   UNK N   1      34.442  15.174  10.858  0.00  0.00     0.309 C 
ENDBRANCH  13  14
ENDBRANCH   4  13
TORSDOF 3
ENDMDL
MODEL 3
REMARK VINA RESULT:      -5.1     14.211     15.581
REMARK  3 active torsions:
REMARK  status: ('A' for Active; 'I' for Inactive)
REMARK    1  A    between atoms: C_1  and  C_8 
REMARK    2  A    between atoms: C_11  and  C_13 
REMARK    3  A    between atoms: C_13  and  N_14 
ROOT
HETATM    1  C   UNK N   1      34.725  11.624  15.342  0.00  0.00     0.087 A 
HETATM    2  C   UNK N   1      33.839  10.692  14.826  0.00  0.00     0.040 A 
HETATM    3  C   UNK N   1      34.016  10.732  13.451  0.00  0.00     0.037 A 
HETATM    4  C   UNK N   1      34.988  11.688  13.230  0.00  0.00     0.082 A 
HETATM    5  O   UNK N   1      35.387  12.197  14.369  0.00  0.00    -0.312 OA
ENDROOT
BRANCH   1   6
HETATM    6  C   UNK N   1      34.947  11.928  16.762  0.00  0.00     0.013 A 
HETATM    7  C   UNK N   1      34.921  13.255  17.201  0.00  0.00     0.017 A 
HETATM    8  C   UNK N   1      35.154  13.548  18.545  0.00  0.00     0.018 A 
HETATM    9  C   UNK N   1      35.408  12.505  19.437  0.00  0.00     0.087 A 
HETATM   10  N   UNK N   1      35.429  11.218  18.995  0.00  0.00    -0.374 N 
HETATM   11  C   UNK N   1      35.207  10.911  17.688  0.00  0.00     0.101 A 
ATOM     12  HN  UNK N   1      35.613  10.465  19.659  1.00  0.00     0.164 HD
ENDBRANCH   1   6
BRANCH   4  13
HETATM   13  C   UNK N   1      35.538  12.070  11.889  0.00  0.00     0.335 C 
BRANCH  13  14
HETATM   14  N   UNK N   1      35.975  13.464  11.848  0.00  0.00     0.086 N 
HETATM   15  C   UNK N   1      34.808  14.256  11.506  0.00  0.00     0.309 C 
HETATM   16  C   UNK N   1      36.928  13.649  10.765  0.00  0.00     0.309 C 
ENDBRANCH  13  14
ENDBRANCH   4  13
TORSDOF 3
ENDMDL
MODEL 4
REMARK VINA RESULT:      -5.0     10.199     12.927
REMARK  3 active torsions:
REMARK  status: ('A' for Active; 'I' for Inactive)
REMARK    1  A    between atoms: C_1  and  C_8 
REMARK    2  A    between atoms: C_11  and  C_13 
REMARK    3  A    between atoms: C_13  and  N_14 
ROOT
HETATM    1  C   UNK N   1      32.329  17.399   8.386  0.00  0.00     0.087 A 
HETATM    2  C   UNK N   1      33.309  18.329   8.083  0.00  0.00     0.040 A 
HETATM    3  C   UNK N   1      34.517  17.677   8.285  0.00  0.00     0.037 A 
HETATM    4  C   UNK N   1      34.184  16.403   8.702  0.00  0.00     0.082 A 
HETATM    5  O   UNK N   1      32.882  16.271   8.751  0.00  0.00    -0.312 OA
ENDROOT
BRANCH   1   6
HETATM    6  C   UNK N   1      30.876  17.595   8.288  0.00  0.00     0.013 A 
HETATM    7  C   UNK N   1      30.215  18.383   9.234  0.00  0.00     0.017 A 
HETATM    8  C   UNK N   1      28.833  18.553   9.156  0.00  0.00     0.018 A 
HETATM    9  C   UNK N   1      28.126  17.930   8.126  0.00  0.00     0.087 A 
HETATM   10  N   UNK N   1      28.783  17.167   7.211  0.00  0.00    -0.374 N 
HETATM   11  C   UNK N   1      30.131  16.987   7.271  0.00  0.00     0.101 A 
ATOM     12  HN  UNK N   1      28.254  16.720   6.461  1.00  0.00     0.164 HD
ENDBRANCH   1   6
BRANCH   4  13
HETATM   13  C   UNK N   1      35.162  15.313   9.021  0.00  0.00     0.335 C 
BRANCH  13  14
HETATM   14  N   UNK N   1      36.007  15.647  10.165  0.00  0.00     0.086 N 
HETATM   15  C   UNK N   1      36.999  14.592  10.271  0.00  0.00     0.309 C 
HETATM   16  C   UNK N   1      35.222  15.596  11.389  0.00  0.00     0.309 C 
ENDBRANCH  13  14
ENDBRANCH   4  13
TORSDOF 3
ENDMDL
MODEL 5
REMARK VINA RESULT:      -5.0      7.531      9.663
REMARK  3 active torsions:
REMARK  status: ('A' for Active; 'I' for Inactive)
REMARK    1  A    between atoms: C_1  and  C_8 
REMARK    2  A    between atoms: C_11  and  C_13 
REMARK    3  A    between atoms: C_13  and  N_14 
ROOT
HETATM    1  C   UNK N   1      24.097  19.898   3.429  0.00  0.00     0.087 A 
HETATM    2  C   UNK N   1      24.912  20.588   2.547  0.00  0.00     0.040 A 
HETATM    3  C   UNK N   1      26.191  20.500   3.076  0.00  0.00     0.037 A 
HETATM    4  C   UNK N   1      26.061  19.771   4.242  0.00  0.00     0.082 A 
HETATM    5  O   UNK N   1      24.810  19.430   4.421  0.00  0.00    -0.312 OA
ENDROOT
BRANCH   1   6
HETATM    6  C   UNK N   1      22.653  19.668   3.289  0.00  0.00     0.013 A 
HETATM    7  C   UNK N   1      22.073  18.525   3.847  0.00  0.00     0.017 A 
HETATM    8  C   UNK N   1      20.706  18.293   3.697  0.00  0.00     0.018 A 
HETATM    9  C   UNK N   1      19.932  19.214   2.989  0.00  0.00     0.087 A 
HETATM   10  N   UNK N   1      20.509  20.323   2.453  0.00  0.00    -0.374 N 
HETATM   11  C   UNK N   1      21.841  20.566   2.586  0.00  0.00     0.101 A 
ATOM     12  HN  UNK N   1      19.930  20.989   1.941  1.00  0.00     0.164 HD
ENDBRANCH   1   6
BRANCH   4  13
HETATM   13  C   UNK N   1      27.186  19.392   5.157  0.00  0.00     0.335 C 
BRANCH  13  14
HETATM   14  N   UNK N   1      27.057  20.008   6.475  0.00  0.00     0.086 N 
HETATM   15  C   UNK N   1      27.478  21.390   6.331  0.00  0.00     0.309 C 
HETATM   16  C   UNK N   1      27.993  19.389   7.401  0.00  0.00     0.309 C 
ENDBRANCH  13  14
ENDBRANCH   4  13
TORSDOF 3
ENDMDL
MODEL 6
REMARK VINA RESULT:      -5.0      8.760     11.103
REMARK  3 active torsions:
REMARK  status: ('A' for Active; 'I' for Inactive)
REMARK    1  A    between atoms: C_1  and  C_8 
REMARK    2  A    between atoms: C_11  and  C_13 
REMARK    3  A    between atoms: C_13  and  N_14 
ROOT
HETATM    1  C   UNK N   1      28.708  18.558   7.607  0.00  0.00     0.087 A 
HETATM    2  C   UNK N   1      28.615  18.609   8.988  0.00  0.00     0.040 A 
HETATM    3  C   UNK N   1      29.740  17.953   9.462  0.00  0.00     0.037 A 
HETATM    4  C   UNK N   1      30.432  17.544   8.338  0.00  0.00     0.082 A 
HETATM    5  O   UNK N   1      29.794  17.918   7.257  0.00  0.00    -0.312 OA
ENDROOT
BRANCH   1   6
HETATM    6  C   UNK N   1      27.772  19.152   6.643  0.00  0.00     0.013 A 
HETATM    7  C   UNK N   1      27.387  20.489   6.781  0.00  0.00     0.017 A 
HETATM    8  C   UNK N   1      26.482  21.050   5.880  0.00  0.00     0.018 A 
HETATM    9  C   UNK N   1      25.971  20.263   4.847  0.00  0.00     0.087 A 
HETATM   10  N   UNK N   1      26.356  18.963   4.724  0.00  0.00    -0.374 N 
HETATM   11  C   UNK N   1      27.236  18.397   5.594  0.00  0.00     0.101 A 
ATOM     12  HN  UNK N   1      25.977  18.400   3.962  1.00  0.00     0.164 HD
ENDBRANCH   1   6
BRANCH   4  13
HETATM   13  C   UNK N   1      31.738  16.810   8.344  0.00  0.00     0.335 C 
BRANCH  13  14
HETATM   14  N   UNK N   1      32.879  17.710   8.193  0.00  0.00     0.086 N 
HETATM   15  C   UNK N   1      33.305  17.613   6.809  0.00  0.00     0.309 C 
HETATM   16  C   UNK N   1      33.992  17.233   9.000  0.00  0.00     0.309 C 
ENDBRANCH  13  14
ENDBRANCH   4  13
TORSDOF 3
ENDMDL
MODEL 7
REMARK VINA RESULT:      -5.0      9.171     10.343
REMARK  3 active torsions:
REMARK  status: ('A' for Active; 'I' for Inactive)
REMARK    1  A    between atoms: C_1  and  C_8 
REMARK    2  A    between atoms: C_11  and  C_13 
REMARK    3  A    between atoms: C_13  and  N_14 
ROOT
HETATM    1  C   UNK N   1      30.599  17.797   8.338  0.00  0.00     0.087 A 
HETATM    2  C   UNK N   1      29.796  18.171   9.403  0.00  0.00     0.040 A 
HETATM    3  C   UNK N   1      28.568  18.497   8.846  0.00  0.00     0.037 A 
HETATM    4  C   UNK N   1      28.715  18.306   7.486  0.00  0.00     0.082 A 
HETATM    5  O   UNK N   1      29.928  17.891   7.219  0.00  0.00    -0.312 OA
ENDROOT
BRANCH   1   6
HETATM    6  C   UNK N   1      31.987  17.323   8.414  0.00  0.00     0.013 A 
HETATM    7  C   UNK N   1      33.038  18.193   8.108  0.00  0.00     0.017 A 
HETATM    8  C   UNK N   1      34.355  17.739   8.158  0.00  0.00     0.018 A 
HETATM    9  C   UNK N   1      34.607  16.414   8.517  0.00  0.00     0.087 A 
HETATM   10  N   UNK N   1      33.575  15.578   8.813  0.00  0.00    -0.374 N 
HETATM   11  C   UNK N   1      32.283  16.001   8.768  0.00  0.00     0.101 A 
ATOM     12  HN  UNK N   1      33.774  14.613   9.076  1.00  0.00     0.164 HD
ENDBRANCH   1   6
BRANCH   4  13
HETATM   13  C   UNK N   1      27.640  18.507   6.461  0.00  0.00     0.335 C 
BRANCH  13  14
HETATM   14  N   UNK N   1      27.811  19.753   5.719  0.00  0.00     0.086 N 
HETATM   15  C   UNK N   1      26.760  20.650   6.165  0.00  0.00     0.309 C 
HETATM   16  C   UNK N   1      27.576  19.519   4.302  0.00  0.00     0.309 C 
ENDBRANCH  13  14
ENDBRANCH   4  13
TORSDOF 3
ENDMDL
MODEL 8
REMARK VINA RESULT:      -5.0     14.132     15.729
REMARK  3 active torsions:
REMARK  status: ('A' for Active; 'I' for Inactive)
REMARK    1  A    between atoms: C_1  and  C_8 
REMARK    2  A    between atoms: C_11  and  C_13 
REMARK    3  A    between atoms: C_13  and  N_14 
ROOT
HETATM    1  C   UNK N   1      35.741  13.358  15.173  0.00  0.00     0.087 A 
HETATM    2  C   UNK N   1      36.676  14.304  14.785  0.00  0.00     0.040 A 
HETATM    3  C   UNK N   1      36.422  14.551  13.444  0.00  0.00     0.037 A 
HETATM    4  C   UNK N   1      35.358  13.734  13.112  0.00  0.00     0.082 A 
HETATM    5  O   UNK N   1      34.979  13.042  14.157  0.00  0.00    -0.312 OA
ENDROOT
BRANCH   1   6
HETATM    6  C   UNK N   1      35.570  12.797  16.520  0.00  0.00     0.013 A 
HETATM    7  C   UNK N   1      35.248  13.639  17.588  0.00  0.00     0.017 A 
HETATM    8  C   UNK N   1      35.107  13.112  18.872  0.00  0.00     0.018 A 
HETATM    9  C   UNK N   1      35.287  11.742  19.071  0.00  0.00     0.087 A 
HETATM   10  N   UNK N   1      35.598  10.934  18.021  0.00  0.00    -0.374 N 
HETATM   11  C   UNK N   1      35.743  11.429  16.762  0.00  0.00     0.101 A 
ATOM     12  HN  UNK N   1      35.724   9.934  18.181  1.00  0.00     0.164 HD
ENDBRANCH   1   6
BRANCH   4  13
HETATM   13  C   UNK N   1      34.705  13.667  11.765  0.00  0.00     0.335 C 
BRANCH  13  14
HETATM   14  N   UNK N   1      35.610  13.162  10.736  0.00  0.00     0.086 N 
HETATM   15  C   UNK N   1      34.900  13.259   9.474  0.00  0.00     0.309 C 
HETATM   16  C   UNK N   1      35.864  11.746  10.956  0.00  0.00     0.309 C 
ENDBRANCH  13  14
ENDBRANCH   4  13
TORSDOF 3
ENDMDL
MODEL 9
REMARK VINA RESULT:      -4.8     13.814     14.934
REMARK  3 active torsions:
REMARK  status: ('A' for Active; 'I' for Inactive)
REMARK    1  A    between atoms: C_1  and  C_8 
REMARK    2  A    between atoms: C_11  and  C_13 
REMARK    3  A    between atoms: C_13  and  N_14 
ROOT
HETATM    1  C   UNK N   1      35.428  13.237  14.038  0.00  0.00     0.087 A 
HETATM    2  C   UNK N   1      36.387  14.234  13.969  0.00  0.00     0.040 A 
HETATM    3  C   UNK N   1      36.169  14.878  12.760  0.00  0.00     0.037 A 
HETATM    4  C   UNK N   1      35.100  14.223  12.180  0.00  0.00     0.082 A 
HETATM    5  O   UNK N   1      34.685  13.258  12.961  0.00  0.00    -0.312 OA
ENDROOT
BRANCH   1   6
HETATM    6  C   UNK N   1      35.216  12.302  15.151  0.00  0.00     0.013 A 
HETATM    7  C   UNK N   1      35.516  12.697  16.458  0.00  0.00     0.017 A 
HETATM    8  C   UNK N   1      35.336  11.803  17.514  0.00  0.00     0.018 A 
HETATM    9  C   UNK N   1      34.854  10.520  17.247  0.00  0.00     0.087 A 
HETATM   10  N   UNK N   1      34.565  10.150  15.970  0.00  0.00    -0.374 N 
HETATM   11  C   UNK N   1      34.736  11.006  14.926  0.00  0.00     0.101 A 
ATOM     12  HN  UNK N   1      34.211   9.211  15.791  1.00  0.00     0.164 HD
ENDBRANCH   1   6
BRANCH   4  13
HETATM   13  C   UNK N   1      34.476  14.579  10.864  0.00  0.00     0.335 C 
BRANCH  13  14
HETATM   14  N   UNK N   1      35.381  15.351  10.015  0.00  0.00     0.086 N 
HETATM   15  C   UNK N   1      34.762  16.650   9.821  0.00  0.00     0.309 C 
HETATM   16  C   UNK N   1      35.465  14.736   8.698  0.00  0.00     0.309 C 
ENDBRANCH  13  14
ENDBRANCH   4  13
TORSDOF 3
ENDMDL
