REMARK  3 active torsions:
REMARK  status: ('A' for Active; 'I' for Inactive)
REMARK    1  A    between atoms: C_1  and  C_8 
REMARK    2  A    between atoms: C_11  and  C_13 
REMARK    3  A    between atoms: C_13  and  N_14 
ROOT
HETATM    1  C   UNK N   1       0.766   0.600   0.019  0.00  0.00     0.087 A 
HETATM    2  C   UNK N   1       1.901  -0.188  -0.077  0.00  0.00     0.040 A 
HETATM    3  C   UNK N   1       1.444  -1.497  -0.109  0.00  0.00     0.037 A 
HETATM    4  C   UNK N   1       0.068  -1.411  -0.023  0.00  0.00     0.082 A 
HETATM    5  O   UNK N   1      -0.301  -0.157   0.051  0.00  0.00    -0.312 OA
ENDROOT
BRANCH   1   6
HETATM    6  C   UNK N   1       0.719   2.068   0.044  0.00  0.00     0.013 A 
HETATM    7  C   UNK N   1      -0.515   2.724   0.084  0.00  0.00     0.017 A 
HETATM    8  C   UNK N   1      -0.563   4.118   0.086  0.00  0.00     0.018 A 
HETATM    9  C   UNK N   1       0.630   4.842   0.050  0.00  0.00     0.087 A 
HETATM   10  N   UNK N   1       1.824   4.190   0.013  0.00  0.00    -0.374 N 
HETATM   11  C   UNK N   1       1.892   2.831   0.008  0.00  0.00     0.101 A 
ATOM     12  HN  UNK N   1       2.688   4.732  -0.010  1.00  0.00     0.164 HD
ENDBRANCH   1   6
BRANCH   4  13
HETATM   13  C   UNK N   1      -0.876  -2.575  -0.045  0.00  0.00     0.335 C 
BRANCH  13  14
HETATM   14  N   UNK N   1      -2.241  -2.186   0.301  0.00  0.00     0.086 N 
HETATM   15  C   UNK N   1      -3.016  -3.411   0.376  0.00  0.00     0.309 C 
HETATM   16  C   UNK N   1      -2.818  -1.401  -0.780  0.00  0.00     0.309 C 
ENDBRANCH  13  14
ENDBRANCH   4  13
TORSDOF 3
