MODEL 1
REMARK VINA RESULT:      -5.6      0.000      0.000
REMARK  2 active torsions:
REMARK  status: ('A' for Active; 'I' for Inactive)
REMARK    1  A    between atoms: O_1  and  C_2 
REMARK    2  A    between atoms: C_7  and  O_8 
ROOT
HETATM    1  C   UNK N   1      31.638  21.609  -2.961  0.00  0.00     0.099 A 
HETATM    2  C   UNK N   1      31.727  21.054  -4.240  0.00  0.00     0.040 A 
HETATM    3  C   UNK N   1      30.805  21.406  -5.227  0.00  0.00     0.015 A 
HETATM    4  C   UNK N   1      29.788  22.314  -4.939  0.00  0.00    -0.023 A 
HETATM    5  C   UNK N   1      29.686  22.883  -3.647  0.00  0.00     0.010 A 
HETATM    6  C   UNK N   1      30.619  22.526  -2.655  0.00  0.00     0.110 A 
HETATM    7  C   UNK N   1      28.655  23.796  -3.379  0.00  0.00     0.015 A 
HETATM    8  C   UNK N   1      27.740  24.135  -4.382  0.00  0.00     0.001 A 
HETATM    9  C   UNK N   1      27.848  23.568  -5.655  0.00  0.00     0.001 A 
HETATM   10  C   UNK N   1      28.871  22.659  -5.933  0.00  0.00     0.012 A 
ENDROOT
BRANCH   1  11
HETATM   11  O   UNK N   1      32.537  21.256  -2.026  0.00  0.00    -0.358 OA
HETATM   12  H   UNK N   1      32.588  21.733  -1.221  0.00  0.00     0.217 HD
ENDBRANCH   1  11
BRANCH   6  13
HETATM   13  O   UNK N   1      30.541  23.055  -1.419  0.00  0.00    -0.357 OA
HETATM   14  H   UNK N   1      30.446  23.980  -1.311  0.00  0.00     0.217 HD
ENDBRANCH   6  13
TORSDOF 2
ENDMDL
MODEL 2
REMARK VINA RESULT:      -5.5     12.114     13.166
REMARK  2 active torsions:
REMARK  status: ('A' for Active; 'I' for Inactive)
REMARK    1  A    between atoms: O_1  and  C_2 
REMARK    2  A    between atoms: C_7  and  O_8 
ROOT
HETATM    1  C   UNK N   1      28.408  17.761   8.596  0.00  0.00     0.099 A 
HETATM    2  C   UNK N   1      28.158  17.208   7.338  0.00  0.00     0.040 A 
HETATM    3  C   UNK N   1      29.211  16.939   6.464  0.00  0.00     0.015 A 
HETATM    4  C   UNK N   1      30.522  17.221   6.844  0.00  0.00    -0.023 A 
HETATM    5  C   UNK N   1      30.790  17.781   8.116  0.00  0.00     0.010 A 
HETATM    6  C   UNK N   1      29.723  18.052   8.995  0.00  0.00     0.110 A 
HETATM    7  C   UNK N   1      32.117  18.057   8.478  0.00  0.00     0.015 A 
HETATM    8  C   UNK N   1      33.160  17.780   7.588  0.00  0.00     0.001 A 
HETATM    9  C   UNK N   1      32.886  17.226   6.333  0.00  0.00     0.001 A 
HETATM   10  C   UNK N   1      31.569  16.947   5.962  0.00  0.00     0.012 A 
ENDROOT
BRANCH   1  11
HETATM   11  O   UNK N   1      27.377  18.013   9.422  0.00  0.00    -0.358 OA
HETATM   12  H   UNK N   1      26.520  17.697   9.212  0.00  0.00     0.217 HD
ENDBRANCH   1  11
BRANCH   6  13
HETATM   13  O   UNK N   1      29.955  18.585  10.209  0.00  0.00    -0.357 OA
HETATM   14  H   UNK N   1      30.046  19.512  10.304  0.00  0.00     0.217 HD
ENDBRANCH   6  13
TORSDOF 2
ENDMDL
MODEL 3
REMARK VINA RESULT:      -5.3     10.289     11.924
REMARK  2 active torsions:
REMARK  status: ('A' for Active; 'I' for Inactive)
REMARK    1  A    between atoms: O_1  and  C_2 
REMARK    2  A    between atoms: C_7  and  O_8 
ROOT
HETATM    1  C   UNK N   1      32.810  17.403   8.259  0.00  0.00     0.099 A 
HETATM    2  C   UNK N   1      31.484  16.993   8.421  0.00  0.00     0.040 A 
HETATM    3  C   UNK N   1      30.680  16.752   7.307  0.00  0.00     0.015 A 
HETATM    4  C   UNK N   1      31.197  16.920   6.024  0.00  0.00    -0.023 A 
HETATM    5  C   UNK N   1      32.539  17.334   5.846  0.00  0.00     0.010 A 
HETATM    6  C   UNK N   1      33.347  17.576   6.973  0.00  0.00     0.110 A 
HETATM    7  C   UNK N   1      33.040  17.497   4.545  0.00  0.00     0.015 A 
HETATM    8  C   UNK N   1      32.217  17.251   3.440  0.00  0.00     0.001 A 
HETATM    9  C   UNK N   1      30.893  16.841   3.626  0.00  0.00     0.001 A 
HETATM   10  C   UNK N   1      30.384  16.676   4.915  0.00  0.00     0.012 A 
ENDROOT
BRANCH   1  11
HETATM   11  O   UNK N   1      33.567  17.629   9.347  0.00  0.00    -0.358 OA
HETATM   12  H   UNK N   1      34.467  17.368   9.354  0.00  0.00     0.217 HD
ENDBRANCH   1  11
BRANCH   6  13
HETATM   13  O   UNK N   1      34.626  17.972   6.827  0.00  0.00    -0.357 OA
HETATM   14  H   UNK N   1      35.275  17.360   6.542  0.00  0.00     0.217 HD
ENDBRANCH   6  13
TORSDOF 2
ENDMDL
MODEL 4
REMARK VINA RESULT:      -5.3     23.642     25.400
REMARK  2 active torsions:
REMARK  status: ('A' for Active; 'I' for Inactive)
REMARK    1  A    between atoms: O_1  and  C_2 
REMARK    2  A    between atoms: C_7  and  O_8 
ROOT
HETATM    1  C   UNK N   1      35.312  13.785  18.188  0.00  0.00     0.099 A 
HETATM    2  C   UNK N   1      35.327  13.447  16.832  0.00  0.00     0.040 A 
HETATM    3  C   UNK N   1      35.247  12.111  16.438  0.00  0.00     0.015 A 
HETATM    4  C   UNK N   1      35.151  11.106  17.398  0.00  0.00    -0.023 A 
HETATM    5  C   UNK N   1      35.135  11.434  18.775  0.00  0.00     0.010 A 
HETATM    6  C   UNK N   1      35.216  12.784  19.168  0.00  0.00     0.110 A 
HETATM    7  C   UNK N   1      35.038  10.406  19.724  0.00  0.00     0.015 A 
HETATM    8  C   UNK N   1      34.959   9.072  19.309  0.00  0.00     0.001 A 
HETATM    9  C   UNK N   1      34.975   8.757  17.947  0.00  0.00     0.001 A 
HETATM   10  C   UNK N   1      35.072   9.771  16.993  0.00  0.00     0.012 A 
ENDROOT
BRANCH   1  11
HETATM   11  O   UNK N   1      35.391  15.079  18.545  0.00  0.00    -0.358 OA
HETATM   12  H   UNK N   1      35.956  15.338  19.246  0.00  0.00     0.217 HD
ENDBRANCH   1  11
BRANCH   6  13
HETATM   13  O   UNK N   1      35.203  13.119  20.472  0.00  0.00    -0.357 OA
HETATM   14  H   UNK N   1      35.730  13.830  20.778  0.00  0.00     0.217 HD
ENDBRANCH   6  13
TORSDOF 2
ENDMDL
MODEL 5
REMARK VINA RESULT:      -5.3      4.557      6.066
REMARK  2 active torsions:
REMARK  status: ('A' for Active; 'I' for Inactive)
REMARK    1  A    between atoms: O_1  and  C_2 
REMARK    2  A    between atoms: C_7  and  O_8 
ROOT
HETATM    1  C   UNK N   1      25.931  26.945  -3.724  0.00  0.00     0.099 A 
HETATM    2  C   UNK N   1      25.539  27.766  -4.785  0.00  0.00     0.040 A 
HETATM    3  C   UNK N   1      25.426  27.245  -6.074  0.00  0.00     0.015 A 
HETATM    4  C   UNK N   1      25.705  25.901  -6.311  0.00  0.00    -0.023 A 
HETATM    5  C   UNK N   1      26.104  25.058  -5.245  0.00  0.00     0.010 A 
HETATM    6  C   UNK N   1      26.217  25.588  -3.945  0.00  0.00     0.110 A 
HETATM    7  C   UNK N   1      26.381  23.708  -5.505  0.00  0.00     0.015 A 
HETATM    8  C   UNK N   1      26.261  23.205  -6.806  0.00  0.00     0.001 A 
HETATM    9  C   UNK N   1      25.867  24.044  -7.852  0.00  0.00     0.001 A 
HETATM   10  C   UNK N   1      25.589  25.390  -7.605  0.00  0.00     0.012 A 
ENDROOT
BRANCH   1  11
HETATM   11  O   UNK N   1      26.034  27.468  -2.490  0.00  0.00    -0.358 OA
HETATM   12  H   UNK N   1      25.420  27.223  -1.825  0.00  0.00     0.217 HD
ENDBRANCH   1  11
BRANCH   6  13
HETATM   13  O   UNK N   1      26.595  24.805  -2.917  0.00  0.00    -0.357 OA
HETATM   14  H   UNK N   1      26.696  23.883  -3.044  0.00  0.00     0.217 HD
ENDBRANCH   6  13
TORSDOF 2
ENDMDL
MODEL 6
REMARK VINA RESULT:      -5.2     17.447     18.422
REMARK  2 active torsions:
REMARK  status: ('A' for Active; 'I' for Inactive)
REMARK    1  A    between atoms: O_1  and  C_2 
REMARK    2  A    between atoms: C_7  and  O_8 
ROOT
HETATM    1  C   UNK N   1      20.922  14.341   8.071  0.00  0.00     0.099 A 
HETATM    2  C   UNK N   1      22.158  14.406   7.422  0.00  0.00     0.040 A 
HETATM    3  C   UNK N   1      23.293  13.845   8.008  0.00  0.00     0.015 A 
HETATM    4  C   UNK N   1      23.198  13.217   9.248  0.00  0.00    -0.023 A 
HETATM    5  C   UNK N   1      21.953  13.144   9.917  0.00  0.00     0.010 A 
HETATM    6  C   UNK N   1      20.810  13.711   9.321  0.00  0.00     0.110 A 
HETATM    7  C   UNK N   1      21.880  12.506  11.165  0.00  0.00     0.015 A 
HETATM    8  C   UNK N   1      23.030  11.950  11.736  0.00  0.00     0.001 A 
HETATM    9  C   UNK N   1      24.256  12.026  11.069  0.00  0.00     0.001 A 
HETATM   10  C   UNK N   1      24.340  12.658   9.827  0.00  0.00     0.012 A 
ENDROOT
BRANCH   1  11
HETATM   11  O   UNK N   1      19.842  14.888   7.487  0.00  0.00    -0.358 OA
HETATM   12  H   UNK N   1      19.250  14.350   6.999  0.00  0.00     0.217 HD
ENDBRANCH   1  11
BRANCH   6  13
HETATM   13  O   UNK N   1      19.615  13.654   9.940  0.00  0.00    -0.357 OA
HETATM   14  H   UNK N   1      19.091  14.426  10.017  0.00  0.00     0.217 HD
ENDBRANCH   6  13
TORSDOF 2
ENDMDL
MODEL 7
REMARK VINA RESULT:      -5.2     20.420     21.762
REMARK  2 active torsions:
REMARK  status: ('A' for Active; 'I' for Inactive)
REMARK    1  A    between atoms: O_1  and  C_2 
REMARK    2  A    between atoms: C_7  and  O_8 
ROOT
HETATM    1  C   UNK N   1      36.640  13.969  15.348  0.00  0.00     0.099 A 
HETATM    2  C   UNK N   1      35.904  13.490  16.435  0.00  0.00     0.040 A 
HETATM    3  C   UNK N   1      34.966  12.473  16.257  0.00  0.00     0.015 A 
HETATM    4  C   UNK N   1      34.759  11.928  14.992  0.00  0.00    -0.023 A 
HETATM    5  C   UNK N   1      35.499  12.404  13.882  0.00  0.00     0.010 A 
HETATM    6  C   UNK N   1      36.444  13.431  14.066  0.00  0.00     0.110 A 
HETATM    7  C   UNK N   1      35.275  11.841  12.616  0.00  0.00     0.015 A 
HETATM    8  C   UNK N   1      34.330  10.821  12.459  0.00  0.00     0.001 A 
HETATM    9  C   UNK N   1      33.604  10.358  13.560  0.00  0.00     0.001 A 
HETATM   10  C   UNK N   1      33.819  10.910  14.824  0.00  0.00     0.012 A 
ENDROOT
BRANCH   1  11
HETATM   11  O   UNK N   1      37.539  14.950  15.542  0.00  0.00    -0.358 OA
HETATM   12  H   UNK N   1      37.540  15.432  16.346  0.00  0.00     0.217 HD
ENDBRANCH   1  11
BRANCH   6  13
HETATM   13  O   UNK N   1      37.159  13.899  13.025  0.00  0.00    -0.357 OA
HETATM   14  H   UNK N   1      37.379  14.808  12.979  0.00  0.00     0.217 HD
ENDBRANCH   6  13
TORSDOF 2
ENDMDL
MODEL 8
REMARK VINA RESULT:      -5.2      1.157      3.081
REMARK  2 active torsions:
REMARK  status: ('A' for Active; 'I' for Inactive)
REMARK    1  A    between atoms: O_1  and  C_2 
REMARK    2  A    between atoms: C_7  and  O_8 
ROOT
HETATM    1  C   UNK N   1      30.253  22.779  -2.636  0.00  0.00     0.099 A 
HETATM    2  C   UNK N   1      29.290  23.513  -3.333  0.00  0.00     0.040 A 
HETATM    3  C   UNK N   1      28.976  23.188  -4.653  0.00  0.00     0.015 A 
HETATM    4  C   UNK N   1      29.623  22.127  -5.283  0.00  0.00    -0.023 A 
HETATM    5  C   UNK N   1      30.600  21.375  -4.588  0.00  0.00     0.010 A 
HETATM    6  C   UNK N   1      30.914  21.706  -3.256  0.00  0.00     0.110 A 
HETATM    7  C   UNK N   1      31.240  20.311  -5.242  0.00  0.00     0.015 A 
HETATM    8  C   UNK N   1      30.910  20.001  -6.566  0.00  0.00     0.001 A 
HETATM    9  C   UNK N   1      29.943  20.749  -7.244  0.00  0.00     0.001 A 
HETATM   10  C   UNK N   1      29.301  21.810  -6.604  0.00  0.00     0.012 A 
ENDROOT
BRANCH   1  11
HETATM   11  O   UNK N   1      30.540  23.109  -1.365  0.00  0.00    -0.358 OA
HETATM   12  H   UNK N   1      31.419  23.034  -1.048  0.00  0.00     0.217 HD
ENDBRANCH   1  11
BRANCH   6  13
HETATM   13  O   UNK N   1      31.841  21.005  -2.576  0.00  0.00    -0.357 OA
HETATM   14  H   UNK N   1      32.663  20.803  -2.977  0.00  0.00     0.217 HD
ENDBRANCH   6  13
TORSDOF 2
ENDMDL
MODEL 9
REMARK VINA RESULT:      -5.2     22.143     23.816
REMARK  2 active torsions:
REMARK  status: ('A' for Active; 'I' for Inactive)
REMARK    1  A    between atoms: O_1  and  C_2 
REMARK    2  A    between atoms: C_7  and  O_8 
ROOT
HETATM    1  C   UNK N   1      34.773  10.966  14.546  0.00  0.00     0.099 A 
HETATM    2  C   UNK N   1      34.931   9.777  15.263  0.00  0.00     0.040 A 
HETATM    3  C   UNK N   1      35.120   9.806  16.644  0.00  0.00     0.015 A 
HETATM    4  C   UNK N   1      35.153  11.025  17.318  0.00  0.00    -0.023 A 
HETATM    5  C   UNK N   1      34.994  12.238  16.605  0.00  0.00     0.010 A 
HETATM    6  C   UNK N   1      34.803  12.203  15.210  0.00  0.00     0.110 A 
HETATM    7  C   UNK N   1      35.030  13.454  17.303  0.00  0.00     0.015 A 
HETATM    8  C   UNK N   1      35.221  13.462  18.690  0.00  0.00     0.001 A 
HETATM    9  C   UNK N   1      35.377  12.260  19.386  0.00  0.00     0.001 A 
HETATM   10  C   UNK N   1      35.343  11.044  18.702  0.00  0.00     0.012 A 
ENDROOT
BRANCH   1  11
HETATM   11  O   UNK N   1      34.592  10.915  13.215  0.00  0.00    -0.358 OA
HETATM   12  H   UNK N   1      33.837  10.487  12.861  0.00  0.00     0.217 HD
ENDBRANCH   1  11
BRANCH   6  13
HETATM   13  O   UNK N   1      34.650  13.345  14.512  0.00  0.00    -0.357 OA
HETATM   14  H   UNK N   1      34.097  14.024  14.841  0.00  0.00     0.217 HD
ENDBRANCH   6  13
TORSDOF 2
ENDMDL
