MODEL 1
REMARK VINA RESULT:      -3.7      0.000      0.000
REMARK  9 active torsions:
REMARK  status: ('A' for Active; 'I' for Inactive)
REMARK    1  A    between atoms: C_2  and  C_3 
REMARK    2  A    between atoms: C_3  and  C_4 
REMARK    3  A    between atoms: C_4  and  C_5 
REMARK    4  A    between atoms: C_5  and  C_6 
REMARK    5  A    between atoms: C_6  and  C_7 
REMARK    6  A    between atoms: C_7  and  C_8 
REMARK    7  A    between atoms: C_8  and  C_9 
REMARK    8  A    between atoms: C_9  and  C_10 
REMARK    9  A    between atoms: C_10  and  S_11 
ROOT
HETATM    1  C   UNK N   1      21.187  13.452   8.434  0.00  0.00     0.000 C 
ENDROOT
BRANCH   1   2
HETATM    2  C   UNK N   1      20.981  13.813   9.867  0.00  0.00     0.000 C 
BRANCH   2   3
HETATM    3  C   UNK N   1      21.522  12.679  10.673  0.00  0.00     0.000 C 
BRANCH   3   4
HETATM    4  C   UNK N   1      22.956  12.625  10.255  0.00  0.00    -0.000 C 
BRANCH   4   5
HETATM    5  C   UNK N   1      23.776  12.083  11.383  0.00  0.00    -0.005 C 
HETATM    6  C   UNK N   1      22.816  11.883  12.524  0.00  0.00     0.005 C 
ENDBRANCH   4   5
ENDBRANCH   3   4
ENDBRANCH   2   3
ENDBRANCH   1   2
BRANCH   1   7
HETATM    7  C   UNK N   1      20.516  14.545   7.666  0.00  0.00     0.000 C 
BRANCH   7   8
HETATM    8  C   UNK N   1      20.952  15.795   8.353  0.00  0.00     0.001 C 
BRANCH   8   9
HETATM    9  C   UNK N   1      20.095  16.895   7.819  0.00  0.00     0.010 C 
BRANCH   9  10
HETATM   10  C   UNK N   1      19.531  17.604   9.015  0.00  0.00     0.070 C 
BRANCH  10  11
HETATM   11  S   UNK N   1      17.799  17.142   9.149  0.00  0.00    -0.182 SA
HETATM   12  H   UNK N   1      17.450  15.831   9.248  0.00  0.00     0.101 HD
ENDBRANCH  10  11
ENDBRANCH   9  10
ENDBRANCH   8   9
ENDBRANCH   7   8
ENDBRANCH   1   7
TORSDOF 9
ENDMDL
MODEL 2
REMARK VINA RESULT:      -3.7      1.739      2.412
REMARK  9 active torsions:
REMARK  status: ('A' for Active; 'I' for Inactive)
REMARK    1  A    between atoms: C_2  and  C_3 
REMARK    2  A    between atoms: C_3  and  C_4 
REMARK    3  A    between atoms: C_4  and  C_5 
REMARK    4  A    between atoms: C_5  and  C_6 
REMARK    5  A    between atoms: C_6  and  C_7 
REMARK    6  A    between atoms: C_7  and  C_8 
REMARK    7  A    between atoms: C_8  and  C_9 
REMARK    8  A    between atoms: C_9  and  C_10 
REMARK    9  A    between atoms: C_10  and  S_11 
ROOT
HETATM    1  C   UNK N   1      21.459  13.720   9.793  0.00  0.00     0.000 C 
ENDROOT
BRANCH   1   2
HETATM    2  C   UNK N   1      21.111  12.571  10.678  0.00  0.00     0.000 C 
BRANCH   2   3
HETATM    3  C   UNK N   1      22.375  12.159  11.355  0.00  0.00     0.000 C 
BRANCH   3   4
HETATM    4  C   UNK N   1      23.288  11.864  10.208  0.00  0.00    -0.000 C 
BRANCH   4   5
HETATM    5  C   UNK N   1      24.688  12.234  10.588  0.00  0.00    -0.005 C 
HETATM    6  C   UNK N   1      25.111  13.289   9.603  0.00  0.00     0.005 C 
ENDBRANCH   4   5
ENDBRANCH   3   4
ENDBRANCH   2   3
ENDBRANCH   1   2
BRANCH   1   7
HETATM    7  C   UNK N   1      20.158  14.412   9.539  0.00  0.00     0.000 C 
BRANCH   7   8
HETATM    8  C   UNK N   1      20.498  15.485   8.562  0.00  0.00     0.001 C 
BRANCH   8   9
HETATM    9  C   UNK N   1      21.720  15.028   7.836  0.00  0.00     0.010 C 
BRANCH   9  10
HETATM   10  C   UNK N   1      21.939  16.013   6.725  0.00  0.00     0.070 C 
BRANCH  10  11
HETATM   11  S   UNK N   1      20.329  16.409   6.030  0.00  0.00    -0.182 SA
HETATM   12  H   UNK N   1      20.241  16.959   4.789  0.00  0.00     0.101 HD
ENDBRANCH  10  11
ENDBRANCH   9  10
ENDBRANCH   8   9
ENDBRANCH   7   8
ENDBRANCH   1   7
TORSDOF 9
ENDMDL
MODEL 3
REMARK VINA RESULT:      -3.6     14.512     15.654
REMARK  9 active torsions:
REMARK  status: ('A' for Active; 'I' for Inactive)
REMARK    1  A    between atoms: C_2  and  C_3 
REMARK    2  A    between atoms: C_3  and  C_4 
REMARK    3  A    between atoms: C_4  and  C_5 
REMARK    4  A    between atoms: C_5  and  C_6 
REMARK    5  A    between atoms: C_6  and  C_7 
REMARK    6  A    between atoms: C_7  and  C_8 
REMARK    7  A    between atoms: C_8  and  C_9 
REMARK    8  A    between atoms: C_9  and  C_10 
REMARK    9  A    between atoms: C_10  and  S_11 
ROOT
HETATM    1  C   UNK N   1      34.286  11.495  15.355  0.00  0.00     0.000 C 
ENDROOT
BRANCH   1   2
HETATM    2  C   UNK N   1      34.867  10.515  16.318  0.00  0.00     0.000 C 
BRANCH   2   3
HETATM    3  C   UNK N   1      35.427  11.311  17.448  0.00  0.00     0.000 C 
BRANCH   3   4
HETATM    4  C   UNK N   1      35.081  12.716  17.072  0.00  0.00    -0.000 C 
BRANCH   4   5
HETATM    5  C   UNK N   1      35.245  13.600  18.268  0.00  0.00    -0.005 C 
HETATM    6  C   UNK N   1      35.212  12.682  19.459  0.00  0.00     0.005 C 
ENDBRANCH   4   5
ENDBRANCH   3   4
ENDBRANCH   2   3
ENDBRANCH   1   2
BRANCH   1   7
HETATM    7  C   UNK N   1      33.677  10.654  14.278  0.00  0.00     0.000 C 
BRANCH   7   8
HETATM    8  C   UNK N   1      34.486  10.971  13.066  0.00  0.00     0.001 C 
BRANCH   8   9
HETATM    9  C   UNK N   1      34.860  12.413  13.169  0.00  0.00     0.010 C 
BRANCH   9  10
HETATM   10  C   UNK N   1      35.339  12.819  11.806  0.00  0.00     0.070 C 
BRANCH  10  11
HETATM   11  S   UNK N   1      37.132  12.697  11.806  0.00  0.00    -0.182 SA
HETATM   12  H   UNK N   1      37.745  11.678  12.466  0.00  0.00     0.101 HD
ENDBRANCH  10  11
ENDBRANCH   9  10
ENDBRANCH   8   9
ENDBRANCH   7   8
ENDBRANCH   1   7
TORSDOF 9
ENDMDL
MODEL 4
REMARK VINA RESULT:      -3.6     14.213     15.648
REMARK  9 active torsions:
REMARK  status: ('A' for Active; 'I' for Inactive)
REMARK    1  A    between atoms: C_2  and  C_3 
REMARK    2  A    between atoms: C_3  and  C_4 
REMARK    3  A    between atoms: C_4  and  C_5 
REMARK    4  A    between atoms: C_5  and  C_6 
REMARK    5  A    between atoms: C_6  and  C_7 
REMARK    6  A    between atoms: C_7  and  C_8 
REMARK    7  A    between atoms: C_8  and  C_9 
REMARK    8  A    between atoms: C_9  and  C_10 
REMARK    9  A    between atoms: C_10  and  S_11 
ROOT
HETATM    1  C   UNK N   1      35.222  13.242  16.044  0.00  0.00     0.000 C 
ENDROOT
BRANCH   1   2
HETATM    2  C   UNK N   1      35.347  12.271  17.170  0.00  0.00     0.000 C 
BRANCH   2   3
HETATM    3  C   UNK N   1      35.913  11.019  16.589  0.00  0.00     0.000 C 
BRANCH   3   4
HETATM    4  C   UNK N   1      34.696  10.282  16.130  0.00  0.00    -0.000 C 
BRANCH   4   5
HETATM    5  C   UNK N   1      34.873   9.887  14.698  0.00  0.00    -0.005 C 
HETATM    6  C   UNK N   1      33.769  10.580  13.946  0.00  0.00     0.005 C 
ENDBRANCH   4   5
ENDBRANCH   3   4
ENDBRANCH   2   3
ENDBRANCH   1   2
BRANCH   1   7
HETATM    7  C   UNK N   1      36.630  13.519  15.624  0.00  0.00     0.000 C 
BRANCH   7   8
HETATM    8  C   UNK N   1      36.488  14.292  14.358  0.00  0.00     0.001 C 
BRANCH   8   9
HETATM    9  C   UNK N   1      36.050  13.321  13.312  0.00  0.00     0.010 C 
BRANCH   9  10
HETATM   10  C   UNK N   1      35.304  14.120  12.285  0.00  0.00     0.070 C 
BRANCH  10  11
HETATM   11  S   UNK N   1      35.083  13.071  10.842  0.00  0.00    -0.182 SA
HETATM   12  H   UNK N   1      35.710  11.866  10.774  0.00  0.00     0.101 HD
ENDBRANCH  10  11
ENDBRANCH   9  10
ENDBRANCH   8   9
ENDBRANCH   7   8
ENDBRANCH   1   7
TORSDOF 9
ENDMDL
MODEL 5
REMARK VINA RESULT:      -3.6     18.239     19.525
REMARK  9 active torsions:
REMARK  status: ('A' for Active; 'I' for Inactive)
REMARK    1  A    between atoms: C_2  and  C_3 
REMARK    2  A    between atoms: C_3  and  C_4 
REMARK    3  A    between atoms: C_4  and  C_5 
REMARK    4  A    between atoms: C_5  and  C_6 
REMARK    5  A    between atoms: C_6  and  C_7 
REMARK    6  A    between atoms: C_7  and  C_8 
REMARK    7  A    between atoms: C_8  and  C_9 
REMARK    8  A    between atoms: C_9  and  C_10 
REMARK    9  A    between atoms: C_10  and  S_11 
ROOT
HETATM    1  C   UNK N   1      25.091  25.920  -5.390  0.00  0.00     0.000 C 
ENDROOT
BRANCH   1   2
HETATM    2  C   UNK N   1      25.736  24.886  -6.250  0.00  0.00     0.000 C 
BRANCH   2   3
HETATM    3  C   UNK N   1      26.073  23.741  -5.355  0.00  0.00     0.000 C 
BRANCH   3   4
HETATM    4  C   UNK N   1      26.411  24.413  -4.064  0.00  0.00    -0.000 C 
BRANCH   4   5
HETATM    5  C   UNK N   1      27.838  24.122  -3.717  0.00  0.00    -0.005 C 
HETATM    6  C   UNK N   1      28.602  25.371  -4.060  0.00  0.00     0.005 C 
ENDBRANCH   4   5
ENDBRANCH   3   4
ENDBRANCH   2   3
ENDBRANCH   1   2
BRANCH   1   7
HETATM    7  C   UNK N   1      25.223  27.193  -6.163  0.00  0.00     0.000 C 
BRANCH   7   8
HETATM    8  C   UNK N   1      26.233  27.981  -5.400  0.00  0.00     0.001 C 
BRANCH   8   9
HETATM    9  C   UNK N   1      25.678  28.168  -4.027  0.00  0.00     0.010 C 
BRANCH   9  10
HETATM   10  C   UNK N   1      26.838  28.553  -3.156  0.00  0.00     0.070 C 
BRANCH  10  11
HETATM   11  S   UNK N   1      28.093  29.280  -4.219  0.00  0.00    -0.182 SA
HETATM   12  H   UNK N   1      28.254  30.630  -4.256  0.00  0.00     0.101 HD
ENDBRANCH  10  11
ENDBRANCH   9  10
ENDBRANCH   8   9
ENDBRANCH   7   8
ENDBRANCH   1   7
TORSDOF 9
ENDMDL
MODEL 6
REMARK VINA RESULT:      -3.6     18.248     20.231
REMARK  9 active torsions:
REMARK  status: ('A' for Active; 'I' for Inactive)
REMARK    1  A    between atoms: C_2  and  C_3 
REMARK    2  A    between atoms: C_3  and  C_4 
REMARK    3  A    between atoms: C_4  and  C_5 
REMARK    4  A    between atoms: C_5  and  C_6 
REMARK    5  A    between atoms: C_6  and  C_7 
REMARK    6  A    between atoms: C_7  and  C_8 
REMARK    7  A    between atoms: C_8  and  C_9 
REMARK    8  A    between atoms: C_9  and  C_10 
REMARK    9  A    between atoms: C_10  and  S_11 
ROOT
HETATM    1  C   UNK N   1      26.656  26.621  -3.434  0.00  0.00     0.000 C 
ENDROOT
BRANCH   1   2
HETATM    2  C   UNK N   1      25.669  27.658  -3.855  0.00  0.00     0.000 C 
BRANCH   2   3
HETATM    3  C   UNK N   1      25.869  27.864  -5.319  0.00  0.00     0.000 C 
BRANCH   3   4
HETATM    4  C   UNK N   1      27.078  28.741  -5.371  0.00  0.00    -0.000 C 
BRANCH   4   5
HETATM    5  C   UNK N   1      27.738  28.589  -6.706  0.00  0.00    -0.005 C 
HETATM    6  C   UNK N   1      27.267  27.266  -7.244  0.00  0.00     0.005 C 
ENDBRANCH   4   5
ENDBRANCH   3   4
ENDBRANCH   2   3
ENDBRANCH   1   2
BRANCH   1   7
HETATM    7  C   UNK N   1      26.206  25.369  -4.116  0.00  0.00     0.000 C 
BRANCH   7   8
HETATM    8  C   UNK N   1      27.388  24.464  -4.037  0.00  0.00     0.001 C 
BRANCH   8   9
HETATM    9  C   UNK N   1      28.597  25.341  -4.057  0.00  0.00     0.010 C 
BRANCH   9  10
HETATM   10  C   UNK N   1      29.774  24.434  -3.846  0.00  0.00     0.070 C 
BRANCH  10  11
HETATM   11  S   UNK N   1      29.300  23.212  -2.615  0.00  0.00    -0.182 SA
HETATM   12  H   UNK N   1      29.772  21.940  -2.704  0.00  0.00     0.101 HD
ENDBRANCH  10  11
ENDBRANCH   9  10
ENDBRANCH   8   9
ENDBRANCH   7   8
ENDBRANCH   1   7
TORSDOF 9
ENDMDL
MODEL 7
REMARK VINA RESULT:      -3.6     18.800     20.601
REMARK  9 active torsions:
REMARK  status: ('A' for Active; 'I' for Inactive)
REMARK    1  A    between atoms: C_2  and  C_3 
REMARK    2  A    between atoms: C_3  and  C_4 
REMARK    3  A    between atoms: C_4  and  C_5 
REMARK    4  A    between atoms: C_5  and  C_6 
REMARK    5  A    between atoms: C_6  and  C_7 
REMARK    6  A    between atoms: C_7  and  C_8 
REMARK    7  A    between atoms: C_8  and  C_9 
REMARK    8  A    between atoms: C_9  and  C_10 
REMARK    9  A    between atoms: C_10  and  S_11 
ROOT
HETATM    1  C   UNK N   1      25.234  27.158  -5.924  0.00  0.00     0.000 C 
ENDROOT
BRANCH   1   2
HETATM    2  C   UNK N   1      25.655  27.102  -4.494  0.00  0.00     0.000 C 
BRANCH   2   3
HETATM    3  C   UNK N   1      25.914  28.510  -4.073  0.00  0.00     0.000 C 
BRANCH   3   4
HETATM    4  C   UNK N   1      26.899  28.988  -5.091  0.00  0.00    -0.000 C 
BRANCH   4   5
HETATM    5  C   UNK N   1      27.504  30.274  -4.622  0.00  0.00    -0.005 C 
HETATM    6  C   UNK N   1      26.433  30.958  -3.818  0.00  0.00     0.005 C 
ENDBRANCH   4   5
ENDBRANCH   3   4
ENDBRANCH   2   3
ENDBRANCH   1   2
BRANCH   1   7
HETATM    7  C   UNK N   1      25.535  25.796  -6.463  0.00  0.00     0.000 C 
BRANCH   7   8
HETATM    8  C   UNK N   1      25.572  24.925  -5.253  0.00  0.00     0.001 C 
BRANCH   8   9
HETATM    9  C   UNK N   1      26.115  23.606  -5.694  0.00  0.00     0.010 C 
BRANCH   9  10
HETATM   10  C   UNK N   1      25.926  23.552  -7.182  0.00  0.00     0.070 C 
BRANCH  10  11
HETATM   11  S   UNK N   1      25.250  21.935  -7.582  0.00  0.00    -0.182 SA
HETATM   12  H   UNK N   1      25.959  21.076  -8.362  0.00  0.00     0.101 HD
ENDBRANCH  10  11
ENDBRANCH   9  10
ENDBRANCH   8   9
ENDBRANCH   7   8
ENDBRANCH   1   7
TORSDOF 9
ENDMDL
MODEL 8
REMARK VINA RESULT:      -3.5     14.388     16.040
REMARK  9 active torsions:
REMARK  status: ('A' for Active; 'I' for Inactive)
REMARK    1  A    between atoms: C_2  and  C_3 
REMARK    2  A    between atoms: C_3  and  C_4 
REMARK    3  A    between atoms: C_4  and  C_5 
REMARK    4  A    between atoms: C_5  and  C_6 
REMARK    5  A    between atoms: C_6  and  C_7 
REMARK    6  A    between atoms: C_7  and  C_8 
REMARK    7  A    between atoms: C_8  and  C_9 
REMARK    8  A    between atoms: C_9  and  C_10 
REMARK    9  A    between atoms: C_10  and  S_11 
ROOT
HETATM    1  C   UNK N   1      35.988  12.433  15.040  0.00  0.00     0.000 C 
ENDROOT
BRANCH   1   2
HETATM    2  C   UNK N   1      35.694  12.100  16.463  0.00  0.00     0.000 C 
BRANCH   2   3
HETATM    3  C   UNK N   1      35.240  13.366  17.110  0.00  0.00     0.000 C 
BRANCH   3   4
HETATM    4  C   UNK N   1      35.216  13.010  18.562  0.00  0.00    -0.000 C 
BRANCH   4   5
HETATM    5  C   UNK N   1      35.299  11.523  18.704  0.00  0.00    -0.005 C 
HETATM    6  C   UNK N   1      35.890  11.277  20.065  0.00  0.00     0.005 C 
ENDBRANCH   4   5
ENDBRANCH   3   4
ENDBRANCH   2   3
ENDBRANCH   1   2
BRANCH   1   7
HETATM    7  C   UNK N   1      36.433  13.860  15.067  0.00  0.00     0.000 C 
BRANCH   7   8
HETATM    8  C   UNK N   1      36.311  14.309  13.651  0.00  0.00     0.001 C 
BRANCH   8   9
HETATM    9  C   UNK N   1      35.474  13.290  12.952  0.00  0.00     0.010 C 
BRANCH   9  10
HETATM   10  C   UNK N   1      34.942  13.960  11.719  0.00  0.00     0.070 C 
BRANCH  10  11
HETATM   11  S   UNK N   1      35.736  15.568  11.593  0.00  0.00    -0.182 SA
HETATM   12  H   UNK N   1      37.045  15.709  11.936  0.00  0.00     0.101 HD
ENDBRANCH  10  11
ENDBRANCH   9  10
ENDBRANCH   8   9
ENDBRANCH   7   8
ENDBRANCH   1   7
TORSDOF 9
ENDMDL
MODEL 9
REMARK VINA RESULT:      -3.5     14.816     16.549
REMARK  9 active torsions:
REMARK  status: ('A' for Active; 'I' for Inactive)
REMARK    1  A    between atoms: C_2  and  C_3 
REMARK    2  A    between atoms: C_3  and  C_4 
REMARK    3  A    between atoms: C_4  and  C_5 
REMARK    4  A    between atoms: C_5  and  C_6 
REMARK    5  A    between atoms: C_6  and  C_7 
REMARK    6  A    between atoms: C_7  and  C_8 
REMARK    7  A    between atoms: C_8  and  C_9 
REMARK    8  A    between atoms: C_9  and  C_10 
REMARK    9  A    between atoms: C_10  and  S_11 
ROOT
HETATM    1  C   UNK N   1      34.582  13.319  16.656  0.00  0.00     0.000 C 
ENDROOT
BRANCH   1   2
HETATM    2  C   UNK N   1      35.321  12.289  15.870  0.00  0.00     0.000 C 
BRANCH   2   3
HETATM    3  C   UNK N   1      34.625  12.178  14.555  0.00  0.00     0.000 C 
BRANCH   3   4
HETATM    4  C   UNK N   1      33.858  10.902  14.689  0.00  0.00    -0.000 C 
BRANCH   4   5
HETATM    5  C   UNK N   1      34.814   9.780  14.949  0.00  0.00    -0.005 C 
HETATM    6  C   UNK N   1      35.197   9.251  13.594  0.00  0.00     0.005 C 
ENDBRANCH   4   5
ENDBRANCH   3   4
ENDBRANCH   2   3
ENDBRANCH   1   2
BRANCH   1   7
HETATM    7  C   UNK N   1      35.157  13.231  18.034  0.00  0.00     0.000 C 
BRANCH   7   8
HETATM    8  C   UNK N   1      35.271  11.766  18.290  0.00  0.00     0.001 C 
BRANCH   8   9
HETATM    9  C   UNK N   1      35.543  11.608  19.749  0.00  0.00     0.010 C 
BRANCH   9  10
HETATM   10  C   UNK N   1      34.774  10.397  20.189  0.00  0.00     0.070 C 
BRANCH  10  11
HETATM   11  S   UNK N   1      34.482   9.385  18.732  0.00  0.00    -0.182 SA
HETATM   12  H   UNK N   1      34.505   9.950  17.495  0.00  0.00     0.101 HD
ENDBRANCH  10  11
ENDBRANCH   9  10
ENDBRANCH   8   9
ENDBRANCH   7   8
ENDBRANCH   1   7
TORSDOF 9
ENDMDL
