MODEL 1
REMARK VINA RESULT:      -7.2      0.000      0.000
REMARK  5 active torsions:
REMARK  status: ('A' for Active; 'I' for Inactive)
REMARK    1  A    between atoms: C_2  and  N_7 
REMARK    2  A    between atoms: C_6  and  C_8 
REMARK    3  A    between atoms: C_16  and  C_25 
REMARK    4  A    between atoms: C_19  and  N_20 
REMARK    5  A    between atoms: N_20  and  C_21 
ROOT
HETATM    1  C   UNK N   1      27.057  19.062   4.742  0.00  0.00    -0.025 A 
HETATM    2  C   UNK N   1      27.125  20.101   3.794  0.00  0.00     0.014 A 
HETATM    3  C   UNK N   1      25.954  20.571   3.174  0.00  0.00     0.031 A 
HETATM    4  C   UNK N   1      24.718  19.987   3.482  0.00  0.00     0.047 A 
HETATM    5  C   UNK N   1      24.656  18.970   4.447  0.00  0.00     0.035 A 
HETATM    6  C   UNK N   1      25.813  18.527   5.072  0.00  0.00     0.029 A 
HETATM    7  N   UNK N   1      23.587  20.371   2.840  0.00  0.00    -0.338 N 
ATOM      8  HN  UNK N   1      23.631  21.117   2.146  1.00  0.00     0.167 HD
HETATM    9  C   UNK N   1      22.392  19.771   3.111  0.00  0.00     0.192 A 
HETATM   10  N   UNK N   1      22.317  18.801   4.073  0.00  0.00    -0.324 N 
ATOM     11  HN  UNK N   1      21.416  18.373   4.282  1.00  0.00     0.169 HD
HETATM   12  C   UNK N   1      23.423  18.400   4.753  0.00  0.00     0.116 A 
ENDROOT
BRANCH   1  13
HETATM   13  C   UNK N   1      28.271  18.434   5.311  0.00  0.00    -0.024 A 
HETATM   14  C   UNK N   1      29.249  17.865   4.481  0.00  0.00     0.041 A 
HETATM   15  C   UNK N   1      30.336  17.183   5.041  0.00  0.00     0.026 A 
HETATM   16  C   UNK N   1      30.454  17.066   6.429  0.00  0.00     0.029 A 
HETATM   17  C   UNK N   1      29.490  17.635   7.263  0.00  0.00     0.003 A 
HETATM   18  C   UNK N   1      28.402  18.308   6.706  0.00  0.00     0.012 A 
BRANCH  15  19
HETATM   19  N   UNK N   1      31.300  16.592   4.204  0.00  0.00    -0.399 N 
HETATM   20  H   UNK N   1      31.874  15.865   4.539  0.00  0.00     0.156 HD
HETATM   21  H   UNK N   1      31.403  16.906   3.277  0.00  0.00     0.156 HD
ENDBRANCH  15  19
ENDBRANCH   1  13
BRANCH  12  22
HETATM   22  N   UNK N   1      23.368  17.400   5.772  0.00  0.00    -0.367 N 
HETATM   23  H   UNK N   1      23.408  17.738   6.697  0.00  0.00     0.162 HD
BRANCH  22  24
HETATM   24  C   UNK N   1      23.262  15.962   5.639  0.00  0.00     0.021 C 
HETATM   25  C   UNK N   1      23.369  15.459   4.211  0.00  0.00     0.037 C 
HETATM   26  C   UNK N   1      21.912  15.547   6.188  0.00  0.00     0.037 C 
HETATM   27  C   UNK N   1      24.339  15.309   6.478  0.00  0.00     0.037 C 
ENDBRANCH  22  24
ENDBRANCH  12  22
BRANCH   9  28
HETATM   28  C   UNK N   1      21.177  20.148   2.322  0.00  0.00     0.449 C 
HETATM   29  F   UNK N   1      20.297  19.085   2.280  0.00  0.00    -0.163 F 
HETATM   30  F   UNK N   1      20.557  21.226   2.929  0.00  0.00    -0.163 F 
HETATM   31  F   UNK N   1      21.523  20.505   1.030  0.00  0.00    -0.163 F 
ENDBRANCH   9  28
TORSDOF 5
ENDMDL
MODEL 2
REMARK VINA RESULT:      -7.2     13.655     16.056
REMARK  5 active torsions:
REMARK  status: ('A' for Active; 'I' for Inactive)
REMARK    1  A    between atoms: C_2  and  N_7 
REMARK    2  A    between atoms: C_6  and  C_8 
REMARK    3  A    between atoms: C_16  and  C_25 
REMARK    4  A    between atoms: C_19  and  N_20 
REMARK    5  A    between atoms: N_20  and  C_21 
ROOT
HETATM    1  C   UNK N   1      35.699  13.226  15.857  0.00  0.00    -0.025 A 
HETATM    2  C   UNK N   1      36.443  14.416  15.728  0.00  0.00     0.014 A 
HETATM    3  C   UNK N   1      36.747  14.925  14.454  0.00  0.00     0.031 A 
HETATM    4  C   UNK N   1      36.330  14.235  13.307  0.00  0.00     0.047 A 
HETATM    5  C   UNK N   1      35.567  13.064  13.444  0.00  0.00     0.035 A 
HETATM    6  C   UNK N   1      35.251  12.580  14.706  0.00  0.00     0.029 A 
HETATM    7  N   UNK N   1      36.678  14.666  12.070  0.00  0.00    -0.338 N 
ATOM      8  HN  UNK N   1      37.223  15.522  11.969  1.00  0.00     0.167 HD
HETATM    9  C   UNK N   1      36.308  13.968  10.957  0.00  0.00     0.192 A 
HETATM   10  N   UNK N   1      35.537  12.845  11.080  0.00  0.00    -0.324 N 
ATOM     11  HN  UNK N   1      35.248  12.341  10.242  1.00  0.00     0.169 HD
HETATM   12  C   UNK N   1      35.151  12.388  12.301  0.00  0.00     0.116 A 
ENDROOT
BRANCH   1  13
HETATM   13  C   UNK N   1      35.481  12.572  17.167  0.00  0.00    -0.024 A 
HETATM   14  C   UNK N   1      35.073  13.311  18.287  0.00  0.00     0.041 A 
HETATM   15  C   UNK N   1      34.975  12.693  19.539  0.00  0.00     0.026 A 
HETATM   16  C   UNK N   1      35.282  11.336  19.681  0.00  0.00     0.029 A 
HETATM   17  C   UNK N   1      35.681  10.591  18.570  0.00  0.00     0.003 A 
HETATM   18  C   UNK N   1      35.788  11.207  17.324  0.00  0.00     0.012 A 
BRANCH  15  19
HETATM   19  N   UNK N   1      34.590  13.444  20.665  0.00  0.00    -0.399 N 
HETATM   20  H   UNK N   1      34.667  13.063  21.569  0.00  0.00     0.156 HD
HETATM   21  H   UNK N   1      34.241  14.357  20.548  0.00  0.00     0.156 HD
ENDBRANCH  15  19
ENDBRANCH   1  13
BRANCH  12  22
HETATM   22  N   UNK N   1      34.334  11.227  12.456  0.00  0.00    -0.367 N 
HETATM   23  H   UNK N   1      33.387  11.401  12.665  0.00  0.00     0.162 HD
BRANCH  22  24
HETATM   24  C   UNK N   1      34.699   9.829  12.347  0.00  0.00     0.021 C 
HETATM   25  C   UNK N   1      34.845   9.119  13.681  0.00  0.00     0.037 C 
HETATM   26  C   UNK N   1      36.029   9.757  11.624  0.00  0.00     0.037 C 
HETATM   27  C   UNK N   1      33.662   9.111  11.512  0.00  0.00     0.037 C 
ENDBRANCH  22  24
ENDBRANCH  12  22
BRANCH   9  28
HETATM   28  C   UNK N   1      36.784  14.413   9.610  0.00  0.00     0.449 C 
HETATM   29  F   UNK N   1      38.087  14.862   9.698  0.00  0.00    -0.163 F 
HETATM   30  F   UNK N   1      36.732  13.343   8.733  0.00  0.00    -0.163 F 
HETATM   31  F   UNK N   1      35.984  15.429   9.118  0.00  0.00    -0.163 F 
ENDBRANCH   9  28
TORSDOF 5
ENDMDL
MODEL 3
REMARK VINA RESULT:      -7.2      3.402      6.524
REMARK  5 active torsions:
REMARK  status: ('A' for Active; 'I' for Inactive)
REMARK    1  A    between atoms: C_2  and  N_7 
REMARK    2  A    between atoms: C_6  and  C_8 
REMARK    3  A    between atoms: C_16  and  C_25 
REMARK    4  A    between atoms: C_19  and  N_20 
REMARK    5  A    between atoms: N_20  and  C_21 
ROOT
HETATM    1  C   UNK N   1      21.589  14.746   8.573  0.00  0.00    -0.025 A 
HETATM    2  C   UNK N   1      20.612  15.736   8.790  0.00  0.00     0.014 A 
HETATM    3  C   UNK N   1      20.394  16.738   7.829  0.00  0.00     0.031 A 
HETATM    4  C   UNK N   1      21.168  16.766   6.661  0.00  0.00     0.047 A 
HETATM    5  C   UNK N   1      22.122  15.761   6.440  0.00  0.00     0.035 A 
HETATM    6  C   UNK N   1      22.316  14.761   7.383  0.00  0.00     0.029 A 
HETATM    7  N   UNK N   1      21.028  17.768   5.757  0.00  0.00    -0.338 N 
ATOM      8  HN  UNK N   1      20.328  18.492   5.912  1.00  0.00     0.167 HD
HETATM    9  C   UNK N   1      21.814  17.816   4.642  0.00  0.00     0.192 A 
HETATM   10  N   UNK N   1      22.723  16.823   4.403  0.00  0.00    -0.324 N 
ATOM     11  HN  UNK N   1      23.291  16.857   3.557  1.00  0.00     0.169 HD
HETATM   12  C   UNK N   1      22.883  15.792   5.274  0.00  0.00     0.116 A 
ENDROOT
BRANCH   1  13
HETATM   13  C   UNK N   1      21.959  13.761   9.615  0.00  0.00    -0.024 A 
HETATM   14  C   UNK N   1      23.294  13.380   9.810  0.00  0.00     0.041 A 
HETATM   15  C   UNK N   1      23.610  12.371  10.727  0.00  0.00     0.026 A 
HETATM   16  C   UNK N   1      22.597  11.738  11.454  0.00  0.00     0.029 A 
HETATM   17  C   UNK N   1      21.266  12.116  11.272  0.00  0.00     0.003 A 
HETATM   18  C   UNK N   1      20.949  13.116  10.352  0.00  0.00     0.012 A 
BRANCH  15  19
HETATM   19  N   UNK N   1      24.949  11.973  10.901  0.00  0.00    -0.399 N 
HETATM   20  H   UNK N   1      25.668  12.401  10.382  0.00  0.00     0.156 HD
HETATM   21  H   UNK N   1      25.168  11.263  11.546  0.00  0.00     0.156 HD
ENDBRANCH  15  19
ENDBRANCH   1  13
BRANCH  12  22
HETATM   22  N   UNK N   1      23.814  14.734   5.040  0.00  0.00    -0.367 N 
HETATM   23  H   UNK N   1      23.431  13.911   4.658  0.00  0.00     0.162 HD
BRANCH  22  24
HETATM   24  C   UNK N   1      25.242  14.702   5.283  0.00  0.00     0.021 C 
HETATM   25  C   UNK N   1      25.775  15.917   6.019  0.00  0.00     0.037 C 
HETATM   26  C   UNK N   1      25.936  14.619   3.939  0.00  0.00     0.037 C 
HETATM   27  C   UNK N   1      25.579  13.455   6.071  0.00  0.00     0.037 C 
ENDBRANCH  22  24
ENDBRANCH  12  22
BRANCH   9  28
HETATM   28  C   UNK N   1      21.705  18.981   3.708  0.00  0.00     0.449 C 
HETATM   29  F   UNK N   1      21.227  18.557   2.484  0.00  0.00    -0.163 F 
HETATM   30  F   UNK N   1      20.827  19.909   4.241  0.00  0.00    -0.163 F 
HETATM   31  F   UNK N   1      22.937  19.585   3.532  0.00  0.00    -0.163 F 
ENDBRANCH   9  28
TORSDOF 5
ENDMDL
MODEL 4
REMARK VINA RESULT:      -7.2      3.401      5.611
REMARK  5 active torsions:
REMARK  status: ('A' for Active; 'I' for Inactive)
REMARK    1  A    between atoms: C_2  and  N_7 
REMARK    2  A    between atoms: C_6  and  C_8 
REMARK    3  A    between atoms: C_16  and  C_25 
REMARK    4  A    between atoms: C_19  and  N_20 
REMARK    5  A    between atoms: N_20  and  C_21 
ROOT
HETATM    1  C   UNK N   1      30.638  17.463   7.883  0.00  0.00    -0.025 A 
HETATM    2  C   UNK N   1      29.793  18.228   8.710  0.00  0.00     0.014 A 
HETATM    3  C   UNK N   1      28.575  18.721   8.213  0.00  0.00     0.031 A 
HETATM    4  C   UNK N   1      28.210  18.473   6.883  0.00  0.00     0.047 A 
HETATM    5  C   UNK N   1      29.046  17.688   6.072  0.00  0.00     0.035 A 
HETATM    6  C   UNK N   1      30.237  17.184   6.577  0.00  0.00     0.029 A 
HETATM    7  N   UNK N   1      27.078  19.004   6.360  0.00  0.00    -0.338 N 
ATOM      8  HN  UNK N   1      26.465  19.565   6.951  1.00  0.00     0.167 HD
HETATM    9  C   UNK N   1      26.748  18.796   5.052  0.00  0.00     0.192 A 
HETATM   10  N   UNK N   1      27.539  18.006   4.265  0.00  0.00    -0.324 N 
ATOM     11  HN  UNK N   1      27.274  17.840   3.294  1.00  0.00     0.169 HD
HETATM   12  C   UNK N   1      28.674  17.439   4.754  0.00  0.00     0.116 A 
ENDROOT
BRANCH   1  13
HETATM   13  C   UNK N   1      31.993  17.047   8.310  0.00  0.00    -0.024 A 
HETATM   14  C   UNK N   1      32.205  15.821   8.958  0.00  0.00     0.041 A 
HETATM   15  C   UNK N   1      33.475  15.495   9.447  0.00  0.00     0.026 A 
HETATM   16  C   UNK N   1      34.540  16.388   9.294  0.00  0.00     0.029 A 
HETATM   17  C   UNK N   1      34.340  17.607   8.644  0.00  0.00     0.003 A 
HETATM   18  C   UNK N   1      33.074  17.937   8.163  0.00  0.00     0.012 A 
BRANCH  15  19
HETATM   19  N   UNK N   1      33.676  14.275  10.119  0.00  0.00    -0.399 N 
HETATM   20  H   UNK N   1      34.115  14.257  11.000  0.00  0.00     0.156 HD
HETATM   21  H   UNK N   1      33.376  13.434   9.706  0.00  0.00     0.156 HD
ENDBRANCH  15  19
ENDBRANCH   1  13
BRANCH  12  22
HETATM   22  N   UNK N   1      29.509  16.598   3.957  0.00  0.00    -0.367 N 
HETATM   23  H   UNK N   1      30.318  17.029   3.595  0.00  0.00     0.162 HD
BRANCH  22  24
HETATM   24  C   UNK N   1      29.337  15.203   3.607  0.00  0.00     0.021 C 
HETATM   25  C   UNK N   1      28.570  14.394   4.637  0.00  0.00     0.037 C 
HETATM   26  C   UNK N   1      30.715  14.593   3.455  0.00  0.00     0.037 C 
HETATM   27  C   UNK N   1      28.625  15.114   2.274  0.00  0.00     0.037 C 
ENDBRANCH  22  24
ENDBRANCH  12  22
BRANCH   9  28
HETATM   28  C   UNK N   1      25.542  19.471   4.475  0.00  0.00     0.449 C 
HETATM   29  F   UNK N   1      24.395  18.882   4.968  0.00  0.00    -0.163 F 
HETATM   30  F   UNK N   1      25.555  20.808   4.832  0.00  0.00    -0.163 F 
HETATM   31  F   UNK N   1      25.544  19.381   3.094  0.00  0.00    -0.163 F 
ENDBRANCH   9  28
TORSDOF 5
ENDMDL
MODEL 5
REMARK VINA RESULT:      -7.1      6.085      9.453
REMARK  5 active torsions:
REMARK  status: ('A' for Active; 'I' for Inactive)
REMARK    1  A    between atoms: C_2  and  N_7 
REMARK    2  A    between atoms: C_6  and  C_8 
REMARK    3  A    between atoms: C_16  and  C_25 
REMARK    4  A    between atoms: C_19  and  N_20 
REMARK    5  A    between atoms: N_20  and  C_21 
ROOT
HETATM    1  C   UNK N   1      28.895  18.417   7.151  0.00  0.00    -0.025 A 
HETATM    2  C   UNK N   1      29.031  18.636   8.536  0.00  0.00     0.014 A 
HETATM    3  C   UNK N   1      30.021  17.958   9.266  0.00  0.00     0.031 A 
HETATM    4  C   UNK N   1      30.862  17.042   8.620  0.00  0.00     0.047 A 
HETATM    5  C   UNK N   1      30.738  16.848   7.235  0.00  0.00     0.035 A 
HETATM    6  C   UNK N   1      29.772  17.539   6.516  0.00  0.00     0.029 A 
HETATM    7  N   UNK N   1      31.773  16.320   9.318  0.00  0.00    -0.338 N 
ATOM      8  HN  UNK N   1      31.871  16.468  10.322  1.00  0.00     0.167 HD
HETATM    9  C   UNK N   1      32.560  15.397   8.693  0.00  0.00     0.192 A 
HETATM   10  N   UNK N   1      32.469  15.225   7.339  0.00  0.00    -0.324 N 
ATOM     11  HN  UNK N   1      33.075  14.548   6.878  1.00  0.00     0.169 HD
HETATM   12  C   UNK N   1      31.582  15.942   6.599  0.00  0.00     0.116 A 
ENDROOT
BRANCH   1  13
HETATM   13  C   UNK N   1      27.777  18.990   6.369  0.00  0.00    -0.024 A 
HETATM   14  C   UNK N   1      27.143  18.249   5.361  0.00  0.00     0.041 A 
HETATM   15  C   UNK N   1      26.160  18.845   4.562  0.00  0.00     0.026 A 
HETATM   16  C   UNK N   1      25.805  20.182   4.763  0.00  0.00     0.029 A 
HETATM   17  C   UNK N   1      26.426  20.926   5.769  0.00  0.00     0.003 A 
HETATM   18  C   UNK N   1      27.411  20.335   6.560  0.00  0.00     0.012 A 
BRANCH  15  19
HETATM   19  N   UNK N   1      25.545  18.105   3.536  0.00  0.00    -0.399 N 
HETATM   20  H   UNK N   1      24.569  18.142   3.410  0.00  0.00     0.156 HD
HETATM   21  H   UNK N   1      26.093  17.546   2.940  0.00  0.00     0.156 HD
ENDBRANCH  15  19
ENDBRANCH   1  13
BRANCH  12  22
HETATM   22  N   UNK N   1      31.477  15.792   5.182  0.00  0.00    -0.367 N 
HETATM   23  H   UNK N   1      30.733  15.225   4.871  0.00  0.00     0.162 HD
BRANCH  22  24
HETATM   24  C   UNK N   1      32.308  16.355   4.138  0.00  0.00     0.021 C 
HETATM   25  C   UNK N   1      33.106  17.573   4.567  0.00  0.00     0.037 C 
HETATM   26  C   UNK N   1      31.399  16.762   2.996  0.00  0.00     0.037 C 
HETATM   27  C   UNK N   1      33.257  15.290   3.635  0.00  0.00     0.037 C 
ENDBRANCH  22  24
ENDBRANCH  12  22
BRANCH   9  28
HETATM   28  C   UNK N   1      33.491  14.547   9.500  0.00  0.00     0.449 C 
HETATM   29  F   UNK N   1      33.158  13.216   9.351  0.00  0.00    -0.163 F 
HETATM   30  F   UNK N   1      34.787  14.743   9.055  0.00  0.00    -0.163 F 
HETATM   31  F   UNK N   1      33.426  14.886  10.840  0.00  0.00    -0.163 F 
ENDBRANCH   9  28
TORSDOF 5
ENDMDL
MODEL 6
REMARK VINA RESULT:      -7.1      4.508      6.844
REMARK  5 active torsions:
REMARK  status: ('A' for Active; 'I' for Inactive)
REMARK    1  A    between atoms: C_2  and  N_7 
REMARK    2  A    between atoms: C_6  and  C_8 
REMARK    3  A    between atoms: C_16  and  C_25 
REMARK    4  A    between atoms: C_19  and  N_20 
REMARK    5  A    between atoms: N_20  and  C_21 
ROOT
HETATM    1  C   UNK N   1      21.481  14.831   8.373  0.00  0.00    -0.025 A 
HETATM    2  C   UNK N   1      20.611  15.891   8.695  0.00  0.00     0.014 A 
HETATM    3  C   UNK N   1      20.419  16.949   7.790  0.00  0.00     0.031 A 
HETATM    4  C   UNK N   1      21.115  16.963   6.574  0.00  0.00     0.047 A 
HETATM    5  C   UNK N   1      21.961  15.891   6.249  0.00  0.00     0.035 A 
HETATM    6  C   UNK N   1      22.127  14.837   7.138  0.00  0.00     0.029 A 
HETATM    7  N   UNK N   1      21.005  18.012   5.721  0.00  0.00    -0.338 N 
ATOM      8  HN  UNK N   1      20.382  18.786   5.952  1.00  0.00     0.167 HD
HETATM    9  C   UNK N   1      21.717  18.043   4.557  0.00  0.00     0.192 A 
HETATM   10  N   UNK N   1      22.518  16.987   4.218  0.00  0.00    -0.324 N 
ATOM     11  HN  UNK N   1      23.031  17.011   3.337  1.00  0.00     0.169 HD
HETATM   12  C   UNK N   1      22.643  15.909   5.035  0.00  0.00     0.116 A 
ENDROOT
BRANCH   1  13
HETATM   13  C   UNK N   1      21.830  13.774   9.348  0.00  0.00    -0.024 A 
HETATM   14  C   UNK N   1      20.859  13.222  10.197  0.00  0.00     0.041 A 
HETATM   15  C   UNK N   1      21.229  12.300  11.183  0.00  0.00     0.026 A 
HETATM   16  C   UNK N   1      22.568  11.924  11.328  0.00  0.00     0.029 A 
HETATM   17  C   UNK N   1      23.540  12.462  10.483  0.00  0.00     0.003 A 
HETATM   18  C   UNK N   1      23.174  13.387   9.506  0.00  0.00     0.012 A 
BRANCH  15  19
HETATM   19  N   UNK N   1      20.255  11.769  12.049  0.00  0.00    -0.399 N 
HETATM   20  H   UNK N   1      19.342  11.595  11.726  0.00  0.00     0.156 HD
HETATM   21  H   UNK N   1      20.489  11.570  12.984  0.00  0.00     0.156 HD
ENDBRANCH  15  19
ENDBRANCH   1  13
BRANCH  12  22
HETATM   22  N   UNK N   1      23.461  14.787   4.697  0.00  0.00    -0.367 N 
HETATM   23  H   UNK N   1      24.306  14.715   5.199  0.00  0.00     0.162 HD
BRANCH  22  24
HETATM   24  C   UNK N   1      23.224  13.742   3.723  0.00  0.00     0.021 C 
HETATM   25  C   UNK N   1      21.760  13.524   3.388  0.00  0.00     0.037 C 
HETATM   26  C   UNK N   1      23.779  12.451   4.288  0.00  0.00     0.037 C 
HETATM   27  C   UNK N   1      23.980  14.071   2.453  0.00  0.00     0.037 C 
ENDBRANCH  22  24
ENDBRANCH  12  22
BRANCH   9  28
HETATM   28  C   UNK N   1      21.650  19.253   3.679  0.00  0.00     0.449 C 
HETATM   29  F   UNK N   1      22.890  19.856   3.617  0.00  0.00    -0.163 F 
HETATM   30  F   UNK N   1      21.267  18.869   2.405  0.00  0.00    -0.163 F 
HETATM   31  F   UNK N   1      20.725  20.160   4.165  0.00  0.00    -0.163 F 
ENDBRANCH   9  28
TORSDOF 5
ENDMDL
MODEL 7
REMARK VINA RESULT:      -7.1     15.481     17.266
REMARK  5 active torsions:
REMARK  status: ('A' for Active; 'I' for Inactive)
REMARK    1  A    between atoms: C_2  and  N_7 
REMARK    2  A    between atoms: C_6  and  C_8 
REMARK    3  A    between atoms: C_16  and  C_25 
REMARK    4  A    between atoms: C_19  and  N_20 
REMARK    5  A    between atoms: N_20  and  C_21 
ROOT
HETATM    1  C   UNK N   1      35.946  12.435  15.861  0.00  0.00    -0.025 A 
HETATM    2  C   UNK N   1      35.912  13.785  15.460  0.00  0.00     0.014 A 
HETATM    3  C   UNK N   1      36.332  14.150  14.170  0.00  0.00     0.031 A 
HETATM    4  C   UNK N   1      36.807  13.172  13.287  0.00  0.00     0.047 A 
HETATM    5  C   UNK N   1      36.813  11.825  13.684  0.00  0.00     0.035 A 
HETATM    6  C   UNK N   1      36.376  11.469  14.953  0.00  0.00     0.029 A 
HETATM    7  N   UNK N   1      37.289  13.511  12.065  0.00  0.00    -0.338 N 
ATOM      8  HN  UNK N   1      37.275  14.487  11.771  1.00  0.00     0.167 HD
HETATM    9  C   UNK N   1      37.792  12.561  11.224  0.00  0.00     0.192 A 
HETATM   10  N   UNK N   1      37.771  11.243  11.591  0.00  0.00    -0.324 N 
ATOM     11  HN  UNK N   1      38.131  10.539  10.948  1.00  0.00     0.169 HD
HETATM   12  C   UNK N   1      37.281  10.858  12.799  0.00  0.00     0.116 A 
ENDROOT
BRANCH   1  13
HETATM   13  C   UNK N   1      35.657  12.019  17.252  0.00  0.00    -0.024 A 
HETATM   14  C   UNK N   1      35.239  12.950  18.215  0.00  0.00     0.041 A 
HETATM   15  C   UNK N   1      35.073  12.556  19.548  0.00  0.00     0.026 A 
HETATM   16  C   UNK N   1      35.323  11.234  19.928  0.00  0.00     0.029 A 
HETATM   17  C   UNK N   1      35.732  10.299  18.976  0.00  0.00     0.003 A 
HETATM   18  C   UNK N   1      35.906  10.692  17.649  0.00  0.00     0.012 A 
BRANCH  15  19
HETATM   19  N   UNK N   1      34.679  13.499  20.515  0.00  0.00    -0.399 N 
HETATM   20  H   UNK N   1      33.731  13.590  20.766  0.00  0.00     0.156 HD
HETATM   21  H   UNK N   1      35.354  14.072  20.944  0.00  0.00     0.156 HD
ENDBRANCH  15  19
ENDBRANCH   1  13
BRANCH  12  22
HETATM   22  N   UNK N   1      37.234   9.488  13.200  0.00  0.00    -0.367 N 
HETATM   23  H   UNK N   1      37.994   9.182  13.746  0.00  0.00     0.162 HD
BRANCH  22  24
HETATM   24  C   UNK N   1      36.228   8.485  12.917  0.00  0.00     0.021 C 
HETATM   25  C   UNK N   1      34.936   9.043  12.346  0.00  0.00     0.037 C 
HETATM   26  C   UNK N   1      35.905   7.778  14.217  0.00  0.00     0.037 C 
HETATM   27  C   UNK N   1      36.801   7.470  11.951  0.00  0.00     0.037 C 
ENDBRANCH  22  24
ENDBRANCH  12  22
BRANCH   9  28
HETATM   28  C   UNK N   1      38.403  12.972   9.921  0.00  0.00     0.449 C 
HETATM   29  F   UNK N   1      37.560  12.636   8.881  0.00  0.00    -0.163 F 
HETATM   30  F   UNK N   1      38.597  14.343   9.923  0.00  0.00    -0.163 F 
HETATM   31  F   UNK N   1      39.626  12.352   9.736  0.00  0.00    -0.163 F 
ENDBRANCH   9  28
TORSDOF 5
ENDMDL
MODEL 8
REMARK VINA RESULT:      -6.9      6.241      9.299
REMARK  5 active torsions:
REMARK  status: ('A' for Active; 'I' for Inactive)
REMARK    1  A    between atoms: C_2  and  N_7 
REMARK    2  A    between atoms: C_6  and  C_8 
REMARK    3  A    between atoms: C_16  and  C_25 
REMARK    4  A    between atoms: C_19  and  N_20 
REMARK    5  A    between atoms: N_20  and  C_21 
ROOT
HETATM    1  C   UNK N   1      29.190  17.717   4.434  0.00  0.00    -0.025 A 
HETATM    2  C   UNK N   1      28.825  16.793   3.435  0.00  0.00     0.014 A 
HETATM    3  C   UNK N   1      29.761  15.859   2.960  0.00  0.00     0.031 A 
HETATM    4  C   UNK N   1      31.068  15.860   3.464  0.00  0.00     0.047 A 
HETATM    5  C   UNK N   1      31.417  16.767   4.479  0.00  0.00     0.035 A 
HETATM    6  C   UNK N   1      30.480  17.672   4.959  0.00  0.00     0.029 A 
HETATM    7  N   UNK N   1      32.008  15.019   2.966  0.00  0.00    -0.338 N 
ATOM      8  HN  UNK N   1      31.753  14.354   2.237  1.00  0.00     0.167 HD
HETATM    9  C   UNK N   1      33.292  15.054   3.429  0.00  0.00     0.192 A 
HETATM   10  N   UNK N   1      33.631  15.911   4.439  0.00  0.00    -0.324 N 
ATOM     11  HN  UNK N   1      34.588  15.915   4.792  1.00  0.00     0.169 HD
HETATM   12  C   UNK N   1      32.716  16.758   4.980  0.00  0.00     0.116 A 
ENDROOT
BRANCH   1  13
HETATM   13  C   UNK N   1      28.291  18.812   4.860  0.00  0.00    -0.024 A 
HETATM   14  C   UNK N   1      28.031  19.050   6.218  0.00  0.00     0.041 A 
HETATM   15  C   UNK N   1      27.097  20.022   6.595  0.00  0.00     0.026 A 
HETATM   16  C   UNK N   1      26.418  20.761   5.622  0.00  0.00     0.029 A 
HETATM   17  C   UNK N   1      26.675  20.537   4.269  0.00  0.00     0.003 A 
HETATM   18  C   UNK N   1      27.599  19.563   3.891  0.00  0.00     0.012 A 
BRANCH  15  19
HETATM   19  N   UNK N   1      26.821  20.239   7.958  0.00  0.00    -0.399 N 
HETATM   20  H   UNK N   1      27.532  20.535   8.571  0.00  0.00     0.156 HD
HETATM   21  H   UNK N   1      25.910  20.095   8.302  0.00  0.00     0.156 HD
ENDBRANCH  15  19
ENDBRANCH   1  13
BRANCH  12  22
HETATM   22  N   UNK N   1      33.041  17.652   6.045  0.00  0.00    -0.367 N 
HETATM   23  H   UNK N   1      33.249  18.575   5.773  0.00  0.00     0.162 HD
BRANCH  22  24
HETATM   24  C   UNK N   1      33.109  17.393   7.469  0.00  0.00     0.021 C 
HETATM   25  C   UNK N   1      31.853  17.774   8.231  0.00  0.00     0.037 C 
HETATM   26  C   UNK N   1      34.266  18.195   8.028  0.00  0.00     0.037 C 
HETATM   27  C   UNK N   1      33.397  15.923   7.689  0.00  0.00     0.037 C 
ENDBRANCH  22  24
ENDBRANCH  12  22
BRANCH   9  28
HETATM   28  C   UNK N   1      34.331  14.181   2.797  0.00  0.00     0.449 C 
HETATM   29  F   UNK N   1      35.376  13.984   3.678  0.00  0.00    -0.163 F 
HETATM   30  F   UNK N   1      33.767  12.957   2.482  0.00  0.00    -0.163 F 
HETATM   31  F   UNK N   1      34.816  14.758   1.637  0.00  0.00    -0.163 F 
ENDBRANCH   9  28
TORSDOF 5
ENDMDL
MODEL 9
REMARK VINA RESULT:      -6.7     11.282     13.686
REMARK  5 active torsions:
REMARK  status: ('A' for Active; 'I' for Inactive)
REMARK    1  A    between atoms: C_2  and  N_7 
REMARK    2  A    between atoms: C_6  and  C_8 
REMARK    3  A    between atoms: C_16  and  C_25 
REMARK    4  A    between atoms: C_19  and  N_20 
REMARK    5  A    between atoms: N_20  and  C_21 
ROOT
HETATM    1  C   UNK N   1      29.238  22.944  -4.490  0.00  0.00    -0.025 A 
HETATM    2  C   UNK N   1      29.816  22.851  -3.209  0.00  0.00     0.014 A 
HETATM    3  C   UNK N   1      30.959  22.060  -3.005  0.00  0.00     0.031 A 
HETATM    4  C   UNK N   1      31.512  21.341  -4.073  0.00  0.00     0.047 A 
HETATM    5  C   UNK N   1      30.946  21.460  -5.352  0.00  0.00     0.035 A 
HETATM    6  C   UNK N   1      29.831  22.262  -5.552  0.00  0.00     0.029 A 
HETATM    7  N   UNK N   1      32.568  20.511  -3.882  0.00  0.00    -0.338 N 
ATOM      8  HN  UNK N   1      32.986  20.433  -2.955  1.00  0.00     0.167 HD
HETATM    9  C   UNK N   1      33.077  19.780  -4.916  0.00  0.00     0.192 A 
HETATM   10  N   UNK N   1      32.552  19.915  -6.172  0.00  0.00    -0.324 N 
ATOM     11  HN  UNK N   1      32.953  19.379  -6.942  1.00  0.00     0.169 HD
HETATM   12  C   UNK N   1      31.506  20.749  -6.410  0.00  0.00     0.116 A 
ENDROOT
BRANCH   1  13
HETATM   13  C   UNK N   1      27.954  23.642  -4.727  0.00  0.00    -0.024 A 
HETATM   14  C   UNK N   1      27.262  23.495  -5.938  0.00  0.00     0.041 A 
HETATM   15  C   UNK N   1      26.106  24.245  -6.182  0.00  0.00     0.026 A 
HETATM   16  C   UNK N   1      25.633  25.143  -5.221  0.00  0.00     0.029 A 
HETATM   17  C   UNK N   1      26.310  25.290  -4.009  0.00  0.00     0.003 A 
HETATM   18  C   UNK N   1      27.467  24.550  -3.768  0.00  0.00     0.012 A 
BRANCH  15  19
HETATM   19  N   UNK N   1      25.429  24.113  -7.409  0.00  0.00    -0.399 N 
HETATM   20  H   UNK N   1      25.898  24.283  -8.258  0.00  0.00     0.156 HD
HETATM   21  H   UNK N   1      24.482  23.849  -7.420  0.00  0.00     0.156 HD
ENDBRANCH  15  19
ENDBRANCH   1  13
BRANCH  12  22
HETATM   22  N   UNK N   1      30.950  20.918  -7.715  0.00  0.00    -0.367 N 
HETATM   23  H   UNK N   1      31.234  21.732  -8.193  0.00  0.00     0.162 HD
BRANCH  22  24
HETATM   24  C   UNK N   1      30.028  20.064  -8.435  0.00  0.00     0.021 C 
HETATM   25  C   UNK N   1      29.409  18.965  -7.591  0.00  0.00     0.037 C 
HETATM   26  C   UNK N   1      30.793  19.415  -9.571  0.00  0.00     0.037 C 
HETATM   27  C   UNK N   1      28.927  20.916  -9.028  0.00  0.00     0.037 C 
ENDBRANCH  22  24
ENDBRANCH  12  22
BRANCH   9  28
HETATM   28  C   UNK N   1      34.180  18.802  -4.659  0.00  0.00     0.449 C 
HETATM   29  F   UNK N   1      33.807  17.926  -3.659  0.00  0.00    -0.163 F 
HETATM   30  F   UNK N   1      34.433  18.087  -5.817  0.00  0.00    -0.163 F 
HETATM   31  F   UNK N   1      35.339  19.458  -4.281  0.00  0.00    -0.163 F 
ENDBRANCH   9  28
TORSDOF 5
ENDMDL
