MODEL 1
REMARK VINA RESULT:      -6.8      0.000      0.000
REMARK  2 active torsions:
REMARK  status: ('A' for Active; 'I' for Inactive)
REMARK    1  A    between atoms: C_2  and  C_3 
REMARK    2  A    between atoms: C_9  and  C_10 
ROOT
HETATM    1  C   UNK N   1      35.487  13.451  13.425  0.00  0.00     0.129 A 
HETATM    2  C   UNK N   1      35.898  13.614  14.725  0.00  0.00     0.074 A 
HETATM    3  O   UNK N   1      34.553  12.528  13.375  0.00  0.00    -0.235 OA
HETATM    4  N   UNK N   1      34.309  12.059  14.567  0.00  0.00    -0.260 N 
ATOM      5  HN  UNK N   1      33.630  11.337  14.808  1.00  0.00     0.195 HD
HETATM    6  C   UNK N   1      35.124  12.711  15.421  0.00  0.00     0.068 A 
ENDROOT
BRANCH   1   7
HETATM    7  C   UNK N   1      36.023  14.201  12.285  0.00  0.00     0.085 A 
HETATM    8  C   UNK N   1      35.384  15.246  11.651  0.00  0.00     0.052 A 
HETATM    9  C   UNK N   1      36.263  15.625  10.654  0.00  0.00     0.109 A 
HETATM   10  N   UNK N   1      37.354  14.834  10.714  0.00  0.00    -0.311 N 
HETATM   11  N   UNK N   1      37.208  13.969  11.705  0.00  0.00    -0.298 N 
HETATM   12  H   UNK N   1      38.134  14.892  10.117  0.00  0.00     0.186 HD
ATOM     13  HN  UNK N   1      37.879  13.252  11.979  1.00  0.00     0.187 HD
ENDBRANCH   1   7
BRANCH   6  14
HETATM   14  C   UNK N   1      35.191  12.501  16.875  0.00  0.00    -0.007 A 
HETATM   15  C   UNK N   1      35.140  13.612  17.732  0.00  0.00     0.014 A 
HETATM   16  C   UNK N   1      35.202  13.442  19.115  0.00  0.00     0.001 A 
HETATM   17  C   UNK N   1      35.313  12.159  19.654  0.00  0.00     0.000 A 
HETATM   18  C   UNK N   1      35.364  11.047  18.807  0.00  0.00     0.001 A 
HETATM   19  C   UNK N   1      35.303  11.216  17.419  0.00  0.00     0.014 A 
ENDBRANCH   6  14
TORSDOF 2
ENDMDL
MODEL 2
REMARK VINA RESULT:      -6.6      4.474      9.196
REMARK  2 active torsions:
REMARK  status: ('A' for Active; 'I' for Inactive)
REMARK    1  A    between atoms: C_2  and  C_3 
REMARK    2  A    between atoms: C_9  and  C_10 
ROOT
HETATM    1  C   UNK N   1      35.026  16.241  10.279  0.00  0.00     0.129 A 
HETATM    2  C   UNK N   1      34.138  15.880   9.297  0.00  0.00     0.074 A 
HETATM    3  O   UNK N   1      35.413  17.482  10.083  0.00  0.00    -0.235 OA
HETATM    4  N   UNK N   1      34.836  17.978   9.024  0.00  0.00    -0.260 N 
ATOM      5  HN  UNK N   1      34.961  18.919   8.650  1.00  0.00     0.195 HD
HETATM    6  C   UNK N   1      34.043  17.013   8.518  0.00  0.00     0.068 A 
ENDROOT
BRANCH   1   7
HETATM    7  C   UNK N   1      35.462  15.363  11.369  0.00  0.00     0.085 A 
HETATM    8  C   UNK N   1      34.830  14.199  11.753  0.00  0.00     0.052 A 
HETATM    9  C   UNK N   1      35.595  13.728  12.803  0.00  0.00     0.109 A 
HETATM   10  N   UNK N   1      36.618  14.582  13.011  0.00  0.00    -0.311 N 
HETATM   11  N   UNK N   1      36.537  15.575  12.139  0.00  0.00    -0.298 N 
HETATM   12  H   UNK N   1      37.314  14.482  13.700  0.00  0.00     0.186 HD
ATOM     13  HN  UNK N   1      37.181  16.363  12.068  1.00  0.00     0.187 HD
ENDBRANCH   1   7
BRANCH   6  14
HETATM   14  C   UNK N   1      33.200  17.133   7.320  0.00  0.00    -0.007 A 
HETATM   15  C   UNK N   1      33.803  17.383   6.077  0.00  0.00     0.014 A 
HETATM   16  C   UNK N   1      33.026  17.502   4.924  0.00  0.00     0.001 A 
HETATM   17  C   UNK N   1      31.638  17.371   5.004  0.00  0.00     0.000 A 
HETATM   18  C   UNK N   1      31.030  17.121   6.239  0.00  0.00     0.001 A 
HETATM   19  C   UNK N   1      31.808  17.002   7.396  0.00  0.00     0.014 A 
ENDBRANCH   6  14
TORSDOF 2
ENDMDL
MODEL 3
REMARK VINA RESULT:      -6.2      8.790     12.201
REMARK  2 active torsions:
REMARK  status: ('A' for Active; 'I' for Inactive)
REMARK    1  A    between atoms: C_2  and  C_3 
REMARK    2  A    between atoms: C_9  and  C_10 
ROOT
HETATM    1  C   UNK N   1      29.836  17.261   8.850  0.00  0.00     0.129 A 
HETATM    2  C   UNK N   1      29.651  17.802   7.601  0.00  0.00     0.074 A 
HETATM    3  O   UNK N   1      28.853  17.635   9.637  0.00  0.00    -0.235 OA
HETATM    4  N   UNK N   1      28.015  18.397   8.991  0.00  0.00    -0.260 N 
ATOM      5  HN  UNK N   1      27.167  18.822   9.367  1.00  0.00     0.195 HD
HETATM    6  C   UNK N   1      28.482  18.518   7.732  0.00  0.00     0.068 A 
ENDROOT
BRANCH   1   7
HETATM    7  C   UNK N   1      30.963  16.402   9.224  0.00  0.00     0.085 A 
HETATM    8  C   UNK N   1      32.158  16.315   8.541  0.00  0.00     0.052 A 
HETATM    9  C   UNK N   1      32.894  15.392   9.260  0.00  0.00     0.109 A 
HETATM   10  N   UNK N   1      32.155  14.970  10.307  0.00  0.00    -0.311 N 
HETATM   11  N   UNK N   1      30.983  15.584  10.285  0.00  0.00    -0.298 N 
HETATM   12  H   UNK N   1      32.443  14.311  10.980  0.00  0.00     0.186 HD
ATOM     13  HN  UNK N   1      30.227  15.456  10.958  1.00  0.00     0.187 HD
ENDBRANCH   1   7
BRANCH   6  14
HETATM   14  C   UNK N   1      27.852  19.291   6.652  0.00  0.00    -0.007 A 
HETATM   15  C   UNK N   1      27.972  18.845   5.326  0.00  0.00     0.014 A 
HETATM   16  C   UNK N   1      27.385  19.559   4.283  0.00  0.00     0.001 A 
HETATM   17  C   UNK N   1      26.671  20.728   4.555  0.00  0.00     0.000 A 
HETATM   18  C   UNK N   1      26.546  21.180   5.873  0.00  0.00     0.001 A 
HETATM   19  C   UNK N   1      27.136  20.464   6.922  0.00  0.00     0.014 A 
ENDBRANCH   6  14
TORSDOF 2
ENDMDL
MODEL 4
REMARK VINA RESULT:      -6.2      1.935      2.820
REMARK  2 active torsions:
REMARK  status: ('A' for Active; 'I' for Inactive)
REMARK    1  A    between atoms: C_2  and  C_3 
REMARK    2  A    between atoms: C_9  and  C_10 
ROOT
HETATM    1  C   UNK N   1      36.008  14.559  11.632  0.00  0.00     0.129 A 
HETATM    2  C   UNK N   1      35.438  14.195  12.826  0.00  0.00     0.074 A 
HETATM    3  O   UNK N   1      37.147  13.920  11.480  0.00  0.00    -0.235 OA
HETATM    4  N   UNK N   1      37.377  13.146  12.504  0.00  0.00    -0.260 N 
ATOM      5  HN  UNK N   1      38.189  12.543  12.638  1.00  0.00     0.195 HD
HETATM    6  C   UNK N   1      36.339  13.295  13.351  0.00  0.00     0.068 A 
ENDROOT
BRANCH   1   7
HETATM    7  C   UNK N   1      35.421  15.514  10.687  0.00  0.00     0.085 A 
HETATM    8  C   UNK N   1      35.203  15.273   9.347  0.00  0.00     0.052 A 
HETATM    9  C   UNK N   1      34.642  16.447   8.879  0.00  0.00     0.109 A 
HETATM   10  N   UNK N   1      34.544  17.319   9.903  0.00  0.00    -0.311 N 
HETATM   11  N   UNK N   1      35.018  16.752  11.002  0.00  0.00    -0.298 N 
HETATM   12  H   UNK N   1      34.179  18.231   9.844  0.00  0.00     0.186 HD
ATOM     13  HN  UNK N   1      35.067  17.182  11.925  1.00  0.00     0.187 HD
ENDBRANCH   1   7
BRANCH   6  14
HETATM   14  C   UNK N   1      36.178  12.609  14.642  0.00  0.00    -0.007 A 
HETATM   15  C   UNK N   1      35.431  13.225  15.659  0.00  0.00     0.014 A 
HETATM   16  C   UNK N   1      35.262  12.596  16.892  0.00  0.00     0.001 A 
HETATM   17  C   UNK N   1      35.839  11.346  17.121  0.00  0.00     0.000 A 
HETATM   18  C   UNK N   1      36.585  10.726  16.113  0.00  0.00     0.001 A 
HETATM   19  C   UNK N   1      36.755  11.355  14.874  0.00  0.00     0.014 A 
ENDBRANCH   6  14
TORSDOF 2
ENDMDL
MODEL 5
REMARK VINA RESULT:      -6.2      3.006      4.675
REMARK  2 active torsions:
REMARK  status: ('A' for Active; 'I' for Inactive)
REMARK    1  A    between atoms: C_2  and  C_3 
REMARK    2  A    between atoms: C_9  and  C_10 
ROOT
HETATM    1  C   UNK N   1      34.993  16.176  10.293  0.00  0.00     0.129 A 
HETATM    2  C   UNK N   1      34.553  15.320  11.272  0.00  0.00     0.074 A 
HETATM    3  O   UNK N   1      36.299  16.298  10.374  0.00  0.00    -0.235 OA
HETATM    4  N   UNK N   1      36.765  15.572  11.352  0.00  0.00    -0.260 N 
ATOM      5  HN  UNK N   1      37.743  15.486  11.631  1.00  0.00     0.195 HD
HETATM    6  C   UNK N   1      35.711  14.957  11.924  0.00  0.00     0.068 A 
ENDROOT
BRANCH   1   7
HETATM    7  C   UNK N   1      34.123  16.841   9.318  0.00  0.00     0.085 A 
HETATM    8  C   UNK N   1      34.521  17.826   8.440  0.00  0.00     0.052 A 
HETATM    9  C   UNK N   1      33.373  18.137   7.735  0.00  0.00     0.109 A 
HETATM   10  N   UNK N   1      32.364  17.366   8.189  0.00  0.00    -0.311 N 
HETATM   11  N   UNK N   1      32.820  16.579   9.151  0.00  0.00    -0.298 N 
HETATM   12  H   UNK N   1      31.437  17.386   7.858  0.00  0.00     0.186 HD
ATOM     13  HN  UNK N   1      32.274  15.892   9.673  1.00  0.00     0.187 HD
ENDBRANCH   1   7
BRANCH   6  14
HETATM   14  C   UNK N   1      35.769  14.038  13.070  0.00  0.00    -0.007 A 
HETATM   15  C   UNK N   1      36.535  14.387  14.194  0.00  0.00     0.014 A 
HETATM   16  C   UNK N   1      36.608  13.533  15.294  0.00  0.00     0.001 A 
HETATM   17  C   UNK N   1      35.915  12.321  15.281  0.00  0.00     0.000 A 
HETATM   18  C   UNK N   1      35.149  11.966  14.165  0.00  0.00     0.001 A 
HETATM   19  C   UNK N   1      35.075  12.822  13.060  0.00  0.00     0.014 A 
ENDBRANCH   6  14
TORSDOF 2
ENDMDL
MODEL 6
REMARK VINA RESULT:      -6.1     15.843     18.745
REMARK  2 active torsions:
REMARK  status: ('A' for Active; 'I' for Inactive)
REMARK    1  A    between atoms: C_2  and  C_3 
REMARK    2  A    between atoms: C_9  and  C_10 
ROOT
HETATM    1  C   UNK N   1      45.161  24.304   1.969  0.00  0.00     0.129 A 
HETATM    2  C   UNK N   1      44.342  23.282   1.556  0.00  0.00     0.074 A 
HETATM    3  O   UNK N   1      44.785  24.710   3.161  0.00  0.00    -0.235 OA
HETATM    4  N   UNK N   1      43.759  24.020   3.576  0.00  0.00    -0.260 N 
ATOM      5  HN  UNK N   1      43.273  24.132   4.466  1.00  0.00     0.195 HD
HETATM    6  C   UNK N   1      43.464  23.131   2.607  0.00  0.00     0.068 A 
ENDROOT
BRANCH   1   7
HETATM    7  C   UNK N   1      46.276  24.843   1.185  0.00  0.00     0.085 A 
HETATM    8  C   UNK N   1      46.280  25.005  -0.185  0.00  0.00     0.052 A 
HETATM    9  C   UNK N   1      47.525  25.537  -0.460  0.00  0.00     0.109 A 
HETATM   10  N   UNK N   1      48.203  25.674   0.698  0.00  0.00    -0.311 N 
HETATM   11  N   UNK N   1      47.444  25.253   1.697  0.00  0.00    -0.298 N 
HETATM   12  H   UNK N   1      49.117  26.031   0.785  0.00  0.00     0.186 HD
ATOM     13  HN  UNK N   1      47.704  25.242   2.683  1.00  0.00     0.187 HD
ENDBRANCH   1   7
BRANCH   6  14
HETATM   14  C   UNK N   1      42.374  22.145   2.648  0.00  0.00    -0.007 A 
HETATM   15  C   UNK N   1      42.565  20.938   3.340  0.00  0.00     0.014 A 
HETATM   16  C   UNK N   1      41.548  19.985   3.395  0.00  0.00     0.001 A 
HETATM   17  C   UNK N   1      40.330  20.230   2.757  0.00  0.00     0.000 A 
HETATM   18  C   UNK N   1      40.132  21.429   2.064  0.00  0.00     0.001 A 
HETATM   19  C   UNK N   1      41.152  22.387   2.009  0.00  0.00     0.014 A 
ENDBRANCH   6  14
TORSDOF 2
ENDMDL
MODEL 7
REMARK VINA RESULT:      -5.9     21.236     23.688
REMARK  2 active torsions:
REMARK  status: ('A' for Active; 'I' for Inactive)
REMARK    1  A    between atoms: C_2  and  C_3 
REMARK    2  A    between atoms: C_9  and  C_10 
ROOT
HETATM    1  C   UNK N   1      27.215  26.058  -3.656  0.00  0.00     0.129 A 
HETATM    2  C   UNK N   1      28.417  25.506  -4.022  0.00  0.00     0.074 A 
HETATM    3  O   UNK N   1      26.444  25.124  -3.144  0.00  0.00    -0.235 OA
HETATM    4  N   UNK N   1      27.059  23.974  -3.143  0.00  0.00    -0.260 N 
ATOM      5  HN  UNK N   1      26.687  23.088  -2.801  1.00  0.00     0.195 HD
HETATM    6  C   UNK N   1      28.279  24.179  -3.679  0.00  0.00     0.068 A 
ENDROOT
BRANCH   1   7
HETATM    7  C   UNK N   1      26.865  27.472  -3.821  0.00  0.00     0.085 A 
HETATM    8  C   UNK N   1      27.334  28.295  -4.823  0.00  0.00     0.052 A 
HETATM    9  C   UNK N   1      26.736  29.515  -4.567  0.00  0.00     0.109 A 
HETATM   10  N   UNK N   1      25.962  29.396  -3.470  0.00  0.00    -0.311 N 
HETATM   11  N   UNK N   1      26.040  28.155  -3.017  0.00  0.00    -0.298 N 
HETATM   12  H   UNK N   1      25.424  30.117  -3.070  0.00  0.00     0.186 HD
ATOM     13  HN  UNK N   1      25.556  27.784  -2.199  1.00  0.00     0.187 HD
ENDBRANCH   1   7
BRANCH   6  14
HETATM   14  C   UNK N   1      29.315  23.154  -3.876  0.00  0.00    -0.007 A 
HETATM   15  C   UNK N   1      30.173  22.832  -2.813  0.00  0.00     0.014 A 
HETATM   16  C   UNK N   1      31.164  21.863  -2.972  0.00  0.00     0.001 A 
HETATM   17  C   UNK N   1      31.307  21.208  -4.197  0.00  0.00     0.000 A 
HETATM   18  C   UNK N   1      30.455  21.524  -5.261  0.00  0.00     0.001 A 
HETATM   19  C   UNK N   1      29.460  22.495  -5.103  0.00  0.00     0.014 A 
ENDBRANCH   6  14
TORSDOF 2
ENDMDL
MODEL 8
REMARK VINA RESULT:      -5.9      6.982     11.284
REMARK  2 active torsions:
REMARK  status: ('A' for Active; 'I' for Inactive)
REMARK    1  A    between atoms: C_2  and  C_3 
REMARK    2  A    between atoms: C_9  and  C_10 
ROOT
HETATM    1  C   UNK N   1      33.759  17.002   7.296  0.00  0.00     0.129 A 
HETATM    2  C   UNK N   1      32.459  16.692   6.980  0.00  0.00     0.074 A 
HETATM    3  O   UNK N   1      34.336  17.570   6.261  0.00  0.00    -0.235 OA
HETATM    4  N   UNK N   1      33.499  17.660   5.264  0.00  0.00    -0.260 N 
ATOM      5  HN  UNK N   1      33.691  18.059   4.345  1.00  0.00     0.195 HD
HETATM    6  C   UNK N   1      32.333  17.127   5.679  0.00  0.00     0.068 A 
ENDROOT
BRANCH   1   7
HETATM    7  C   UNK N   1      34.386  16.733   8.593  0.00  0.00     0.085 A 
HETATM    8  C   UNK N   1      35.074  15.583   8.920  0.00  0.00     0.052 A 
HETATM    9  C   UNK N   1      35.473  15.787  10.228  0.00  0.00     0.109 A 
HETATM   10  N   UNK N   1      35.033  16.996  10.631  0.00  0.00    -0.311 N 
HETATM   11  N   UNK N   1      34.373  17.571   9.638  0.00  0.00    -0.298 N 
HETATM   12  H   UNK N   1      35.180  17.389  11.522  0.00  0.00     0.186 HD
ATOM     13  HN  UNK N   1      33.932  18.490   9.664  1.00  0.00     0.187 HD
ENDBRANCH   1   7
BRANCH   6  14
HETATM   14  C   UNK N   1      31.105  17.017   4.878  0.00  0.00    -0.007 A 
HETATM   15  C   UNK N   1      29.886  17.446   5.427  0.00  0.00     0.014 A 
HETATM   16  C   UNK N   1      28.706  17.354   4.690  0.00  0.00     0.001 A 
HETATM   17  C   UNK N   1      28.734  16.830   3.395  0.00  0.00     0.000 A 
HETATM   18  C   UNK N   1      29.944  16.401   2.841  0.00  0.00     0.001 A 
HETATM   19  C   UNK N   1      31.129  16.493   3.580  0.00  0.00     0.014 A 
ENDBRANCH   6  14
TORSDOF 2
ENDMDL
MODEL 9
REMARK VINA RESULT:      -5.8      6.204      9.197
REMARK  2 active torsions:
REMARK  status: ('A' for Active; 'I' for Inactive)
REMARK    1  A    between atoms: C_2  and  C_3 
REMARK    2  A    between atoms: C_9  and  C_10 
ROOT
HETATM    1  C   UNK N   1      34.371  16.776   9.104  0.00  0.00     0.129 A 
HETATM    2  C   UNK N   1      33.029  16.490   9.109  0.00  0.00     0.074 A 
HETATM    3  O   UNK N   1      34.574  17.910   8.470  0.00  0.00    -0.235 OA
HETATM    4  N   UNK N   1      33.444  18.404   8.047  0.00  0.00    -0.260 N 
ATOM      5  HN  UNK N   1      33.318  19.273   7.527  1.00  0.00     0.195 HD
HETATM    6  C   UNK N   1      32.472  17.550   8.427  0.00  0.00     0.068 A 
ENDROOT
BRANCH   1   7
HETATM    7  C   UNK N   1      35.403  15.934   9.718  0.00  0.00     0.085 A 
HETATM    8  C   UNK N   1      35.884  14.755   9.188  0.00  0.00     0.052 A 
HETATM    9  C   UNK N   1      36.826  14.331  10.107  0.00  0.00     0.109 A 
HETATM   10  N   UNK N   1      36.881  15.225  11.115  0.00  0.00    -0.311 N 
HETATM   11  N   UNK N   1      36.016  16.199  10.879  0.00  0.00    -0.298 N 
HETATM   12  H   UNK N   1      37.470  15.163  11.901  0.00  0.00     0.186 HD
ATOM     13  HN  UNK N   1      35.847  17.008  11.476  1.00  0.00     0.187 HD
ENDBRANCH   1   7
BRANCH   6  14
HETATM   14  C   UNK N   1      31.035  17.709   8.161  0.00  0.00    -0.007 A 
HETATM   15  C   UNK N   1      30.239  18.407   9.083  0.00  0.00     0.014 A 
HETATM   16  C   UNK N   1      28.873  18.572   8.856  0.00  0.00     0.001 A 
HETATM   17  C   UNK N   1      28.290  18.041   7.704  0.00  0.00     0.000 A 
HETATM   18  C   UNK N   1      29.076  17.344   6.780  0.00  0.00     0.001 A 
HETATM   19  C   UNK N   1      30.447  17.177   7.007  0.00  0.00     0.014 A 
ENDBRANCH   6  14
TORSDOF 2
ENDMDL
