MODEL 1
REMARK VINA RESULT:      -6.4      0.000      0.000
REMARK  2 active torsions:
REMARK  status: ('A' for Active; 'I' for Inactive)
REMARK    1  A    between atoms: C_2  and  C_3 
REMARK    2  A    between atoms: C_7  and  C_8 
ROOT
HETATM    1  C   UNK N   1      35.967  13.210  13.003  0.00  0.00     0.050 A 
HETATM    2  N   UNK N   1      34.580  11.966  14.420  0.00  0.00    -0.358 N 
ATOM      3  HN  UNK N   1      33.844  11.305  14.671  1.00  0.00     0.166 HD
HETATM    4  C   UNK N   1      35.333  12.643  15.330  0.00  0.00     0.085 A 
HETATM    5  S   UNK N   1      36.403  13.617  14.538  0.00  0.00    -0.068 SA
HETATM    6  C   UNK N   1      34.923  12.275  13.115  0.00  0.00     0.110 A 
ENDROOT
BRANCH   1   7
HETATM    7  C   UNK N   1      36.622  13.685  11.781  0.00  0.00     0.068 A 
HETATM    8  C   UNK N   1      36.046  14.499  10.831  0.00  0.00     0.051 A 
HETATM    9  C   UNK N   1      37.054  14.710   9.908  0.00  0.00     0.109 A 
HETATM   10  N   UNK N   1      38.157  14.050  10.312  0.00  0.00    -0.311 N 
HETATM   11  N   UNK N   1      37.895  13.428  11.451  0.00  0.00    -0.300 N 
HETATM   12  H   UNK N   1      39.019  14.034   9.837  0.00  0.00     0.186 HD
ATOM     13  HN  UNK N   1      38.548  12.854  11.984  1.00  0.00     0.187 HD
ENDBRANCH   1   7
BRANCH   4  14
HETATM   14  C   UNK N   1      35.269  12.461  16.787  0.00  0.00    -0.002 A 
HETATM   15  C   UNK N   1      35.171  13.581  17.625  0.00  0.00     0.014 A 
HETATM   16  C   UNK N   1      35.161  13.429  19.012  0.00  0.00     0.001 A 
HETATM   17  C   UNK N   1      35.258  12.153  19.573  0.00  0.00     0.000 A 
HETATM   18  C   UNK N   1      35.354  11.030  18.744  0.00  0.00     0.001 A 
HETATM   19  C   UNK N   1      35.360  11.182  17.353  0.00  0.00     0.014 A 
ENDBRANCH   4  14
TORSDOF 2
ENDMDL
MODEL 2
REMARK VINA RESULT:      -6.1      4.425      8.769
REMARK  2 active torsions:
REMARK  status: ('A' for Active; 'I' for Inactive)
REMARK    1  A    between atoms: C_2  and  C_3 
REMARK    2  A    between atoms: C_7  and  C_8 
ROOT
HETATM    1  C   UNK N   1      35.012  15.544  11.083  0.00  0.00     0.050 A 
HETATM    2  N   UNK N   1      34.721  17.404   9.692  0.00  0.00    -0.358 N 
ATOM      3  HN  UNK N   1      34.854  18.361   9.364  1.00  0.00     0.166 HD
HETATM    4  C   UNK N   1      33.920  16.494   9.072  0.00  0.00     0.085 A 
HETATM    5  S   UNK N   1      33.961  15.072   9.906  0.00  0.00    -0.068 SA
HETATM    6  C   UNK N   1      35.336  16.885  10.818  0.00  0.00     0.110 A 
ENDROOT
BRANCH   1   7
HETATM    7  C   UNK N   1      35.550  14.679  12.137  0.00  0.00     0.068 A 
HETATM    8  C   UNK N   1      35.197  13.364  12.348  0.00  0.00     0.051 A 
HETATM    9  C   UNK N   1      35.994  12.964  13.405  0.00  0.00     0.109 A 
HETATM   10  N   UNK N   1      36.770  14.000  13.779  0.00  0.00    -0.311 N 
HETATM   11  N   UNK N   1      36.501  15.042  13.008  0.00  0.00    -0.300 N 
HETATM   12  H   UNK N   1      37.431  13.985  14.509  0.00  0.00     0.186 HD
ATOM     13  HN  UNK N   1      36.941  15.961  13.066  1.00  0.00     0.187 HD
ENDBRANCH   1   7
BRANCH   4  14
HETATM   14  C   UNK N   1      33.208  16.716   7.806  0.00  0.00    -0.002 A 
HETATM   15  C   UNK N   1      33.911  17.176   6.683  0.00  0.00     0.014 A 
HETATM   16  C   UNK N   1      33.240  17.440   5.487  0.00  0.00     0.001 A 
HETATM   17  C   UNK N   1      31.858  17.253   5.408  0.00  0.00     0.000 A 
HETATM   18  C   UNK N   1      31.150  16.793   6.524  0.00  0.00     0.001 A 
HETATM   19  C   UNK N   1      31.822  16.524   7.721  0.00  0.00     0.014 A 
ENDBRANCH   4  14
TORSDOF 2
ENDMDL
MODEL 3
REMARK VINA RESULT:      -6.1      1.972      2.079
REMARK  2 active torsions:
REMARK  status: ('A' for Active; 'I' for Inactive)
REMARK    1  A    between atoms: C_2  and  C_3 
REMARK    2  A    between atoms: C_7  and  C_8 
ROOT
HETATM    1  C   UNK N   1      35.423  13.326  13.157  0.00  0.00     0.050 A 
HETATM    2  N   UNK N   1      36.446  13.955  15.167  0.00  0.00    -0.358 N 
ATOM      3  HN  UNK N   1      37.053  14.497  15.781  1.00  0.00     0.166 HD
HETATM    4  C   UNK N   1      35.672  12.918  15.589  0.00  0.00     0.085 A 
HETATM    5  S   UNK N   1      34.846  12.294  14.304  0.00  0.00    -0.068 SA
HETATM    6  C   UNK N   1      36.317  14.192  13.809  0.00  0.00     0.110 A 
ENDROOT
BRANCH   1   7
HETATM    7  C   UNK N   1      34.998  13.359  11.755  0.00  0.00     0.068 A 
HETATM    8  C   UNK N   1      35.448  12.514  10.764  0.00  0.00     0.051 A 
HETATM    9  C   UNK N   1      34.733  12.896   9.643  0.00  0.00     0.109 A 
HETATM   10  N   UNK N   1      33.910  13.909   9.977  0.00  0.00    -0.311 N 
HETATM   11  N   UNK N   1      34.070  14.190  11.261  0.00  0.00    -0.300 N 
HETATM   12  H   UNK N   1      33.289  14.367   9.365  0.00  0.00     0.186 HD
ATOM     13  HN  UNK N   1      33.573  14.912  11.783  1.00  0.00     0.187 HD
ENDBRANCH   1   7
BRANCH   4  14
HETATM   14  C   UNK N   1      35.522  12.484  16.985  0.00  0.00    -0.002 A 
HETATM   15  C   UNK N   1      35.196  13.424  17.974  0.00  0.00     0.014 A 
HETATM   16  C   UNK N   1      35.100  13.038  19.312  0.00  0.00     0.001 A 
HETATM   17  C   UNK N   1      35.339  11.710  19.673  0.00  0.00     0.000 A 
HETATM   18  C   UNK N   1      35.664  10.767  18.692  0.00  0.00     0.001 A 
HETATM   19  C   UNK N   1      35.756  11.152  17.350  0.00  0.00     0.014 A 
ENDBRANCH   4  14
TORSDOF 2
ENDMDL
MODEL 4
REMARK VINA RESULT:      -5.9      3.332      7.968
REMARK  2 active torsions:
REMARK  status: ('A' for Active; 'I' for Inactive)
REMARK    1  A    between atoms: C_2  and  C_3 
REMARK    2  A    between atoms: C_7  and  C_8 
ROOT
HETATM    1  C   UNK N   1      35.957  14.313  11.938  0.00  0.00     0.050 A 
HETATM    2  N   UNK N   1      35.225  13.857   9.762  0.00  0.00    -0.358 N 
ATOM      3  HN  UNK N   1      34.970  13.283   8.958  1.00  0.00     0.166 HD
HETATM    4  C   UNK N   1      35.171  15.217   9.769  0.00  0.00     0.085 A 
HETATM    5  S   UNK N   1      35.667  15.776  11.240  0.00  0.00    -0.068 SA
HETATM    6  C   UNK N   1      35.664  13.339  10.968  0.00  0.00     0.110 A 
ENDROOT
BRANCH   1   7
HETATM    7  C   UNK N   1      36.358  14.103  13.332  0.00  0.00     0.068 A 
HETATM    8  C   UNK N   1      36.320  12.899  14.001  0.00  0.00     0.051 A 
HETATM    9  C   UNK N   1      36.834  13.190  15.251  0.00  0.00     0.109 A 
HETATM   10  N   UNK N   1      37.156  14.498  15.296  0.00  0.00    -0.311 N 
HETATM   11  N   UNK N   1      36.867  15.053  14.128  0.00  0.00    -0.300 N 
HETATM   12  H   UNK N   1      37.543  14.966  16.070  0.00  0.00     0.186 HD
ATOM     13  HN  UNK N   1      37.009  16.032  13.879  1.00  0.00     0.187 HD
ENDBRANCH   1   7
BRANCH   4  14
HETATM   14  C   UNK N   1      34.659  16.052   8.673  0.00  0.00    -0.002 A 
HETATM   15  C   UNK N   1      34.623  15.540   7.367  0.00  0.00     0.014 A 
HETATM   16  C   UNK N   1      34.188  16.337   6.307  0.00  0.00     0.001 A 
HETATM   17  C   UNK N   1      33.794  17.656   6.543  0.00  0.00     0.000 A 
HETATM   18  C   UNK N   1      33.826  18.173   7.843  0.00  0.00     0.001 A 
HETATM   19  C   UNK N   1      34.258  17.374   8.907  0.00  0.00     0.014 A 
ENDBRANCH   4  14
TORSDOF 2
ENDMDL
MODEL 5
REMARK VINA RESULT:      -5.7      1.819      2.255
REMARK  2 active torsions:
REMARK  status: ('A' for Active; 'I' for Inactive)
REMARK    1  A    between atoms: C_2  and  C_3 
REMARK    2  A    between atoms: C_7  and  C_8 
ROOT
HETATM    1  C   UNK N   1      35.971  12.761  14.359  0.00  0.00     0.050 A 
HETATM    2  N   UNK N   1      36.800  11.109  15.796  0.00  0.00    -0.358 N 
ATOM      3  HN  UNK N   1      37.454  10.407  16.140  1.00  0.00     0.166 HD
HETATM    4  C   UNK N   1      35.632  11.427  16.419  0.00  0.00     0.085 A 
HETATM    5  S   UNK N   1      34.851  12.595  15.555  0.00  0.00    -0.068 SA
HETATM    6  C   UNK N   1      37.000  11.847  14.642  0.00  0.00     0.110 A 
ENDROOT
BRANCH   1   7
HETATM    7  C   UNK N   1      35.913  13.743  13.273  0.00  0.00     0.068 A 
HETATM    8  C   UNK N   1      35.059  13.690  12.193  0.00  0.00     0.051 A 
HETATM    9  C   UNK N   1      35.339  14.842  11.481  0.00  0.00     0.109 A 
HETATM   10  N   UNK N   1      36.307  15.526  12.125  0.00  0.00    -0.311 N 
HETATM   11  N   UNK N   1      36.654  14.858  13.215  0.00  0.00    -0.300 N 
HETATM   12  H   UNK N   1      36.692  16.383  11.833  0.00  0.00     0.186 HD
ATOM     13  HN  UNK N   1      37.362  15.143  13.892  1.00  0.00     0.187 HD
ENDBRANCH   1   7
BRANCH   4  14
HETATM   14  C   UNK N   1      35.184  10.884  17.709  0.00  0.00    -0.002 A 
HETATM   15  C   UNK N   1      35.404  11.614  18.886  0.00  0.00     0.014 A 
HETATM   16  C   UNK N   1      35.031  11.089  20.125  0.00  0.00     0.001 A 
HETATM   17  C   UNK N   1      34.442   9.825  20.197  0.00  0.00     0.000 A 
HETATM   18  C   UNK N   1      34.217   9.091  19.027  0.00  0.00     0.001 A 
HETATM   19  C   UNK N   1      34.587   9.618  17.785  0.00  0.00     0.014 A 
ENDBRANCH   4  14
TORSDOF 2
ENDMDL
MODEL 6
REMARK VINA RESULT:      -5.7      3.238      4.519
REMARK  2 active torsions:
REMARK  status: ('A' for Active; 'I' for Inactive)
REMARK    1  A    between atoms: C_2  and  C_3 
REMARK    2  A    between atoms: C_7  and  C_8 
ROOT
HETATM    1  C   UNK N   1      34.533  15.663  10.139  0.00  0.00     0.050 A 
HETATM    2  N   UNK N   1      34.243  13.539  11.078  0.00  0.00    -0.358 N 
ATOM      3  HN  UNK N   1      33.894  12.583  11.147  1.00  0.00     0.166 HD
HETATM    4  C   UNK N   1      35.056  14.118  12.003  0.00  0.00     0.085 A 
HETATM    5  S   UNK N   1      35.393  15.666  11.543  0.00  0.00    -0.068 SA
HETATM    6  C   UNK N   1      33.942  14.393  10.031  0.00  0.00     0.110 A 
ENDROOT
BRANCH   1   7
HETATM    7  C   UNK N   1      34.487  16.762   9.170  0.00  0.00     0.068 A 
HETATM    8  C   UNK N   1      33.885  16.712   7.932  0.00  0.00     0.051 A 
HETATM    9  C   UNK N   1      34.058  17.983   7.418  0.00  0.00     0.109 A 
HETATM   10  N   UNK N   1      34.726  18.730   8.320  0.00  0.00    -0.311 N 
HETATM   11  N   UNK N   1      34.985  17.988   9.386  0.00  0.00    -0.300 N 
HETATM   12  H   UNK N   1      34.979  19.674   8.206  0.00  0.00     0.186 HD
ATOM     13  HN  UNK N   1      35.477  18.296  10.225  1.00  0.00     0.187 HD
ENDBRANCH   1   7
BRANCH   4  14
HETATM   14  C   UNK N   1      35.623  13.440  13.177  0.00  0.00    -0.002 A 
HETATM   15  C   UNK N   1      35.355  12.080  13.392  0.00  0.00     0.014 A 
HETATM   16  C   UNK N   1      35.843  11.433  14.529  0.00  0.00     0.001 A 
HETATM   17  C   UNK N   1      36.597  12.145  15.466  0.00  0.00     0.000 A 
HETATM   18  C   UNK N   1      36.869  13.502  15.258  0.00  0.00     0.001 A 
HETATM   19  C   UNK N   1      36.384  14.149  14.116  0.00  0.00     0.014 A 
ENDBRANCH   4  14
TORSDOF 2
ENDMDL
MODEL 7
REMARK VINA RESULT:      -5.7     20.848     23.413
REMARK  2 active torsions:
REMARK  status: ('A' for Active; 'I' for Inactive)
REMARK    1  A    between atoms: C_2  and  C_3 
REMARK    2  A    between atoms: C_7  and  C_8 
ROOT
HETATM    1  C   UNK N   1      29.656  22.796  -3.569  0.00  0.00     0.050 A 
HETATM    2  N   UNK N   1      27.816  23.906  -2.643  0.00  0.00    -0.358 N 
ATOM      3  HN  UNK N   1      27.149  24.177  -1.920  1.00  0.00     0.166 HD
HETATM    4  C   UNK N   1      27.777  24.371  -3.922  0.00  0.00     0.085 A 
HETATM    5  S   UNK N   1      29.009  23.697  -4.786  0.00  0.00    -0.068 SA
HETATM    6  C   UNK N   1      28.861  23.023  -2.433  0.00  0.00     0.110 A 
ENDROOT
BRANCH   1   7
HETATM    7  C   UNK N   1      30.878  21.992  -3.666  0.00  0.00     0.068 A 
HETATM    8  C   UNK N   1      32.156  22.492  -3.783  0.00  0.00     0.051 A 
HETATM    9  C   UNK N   1      32.961  21.368  -3.789  0.00  0.00     0.109 A 
HETATM   10  N   UNK N   1      32.181  20.274  -3.677  0.00  0.00    -0.311 N 
HETATM   11  N   UNK N   1      30.915  20.654  -3.601  0.00  0.00    -0.300 N 
HETATM   12  H   UNK N   1      32.501  19.344  -3.655  0.00  0.00     0.186 HD
ATOM     13  HN  UNK N   1      30.109  20.035  -3.508  1.00  0.00     0.187 HD
ENDBRANCH   1   7
BRANCH   4  14
HETATM   14  C   UNK N   1      26.844  25.388  -4.426  0.00  0.00    -0.002 A 
HETATM   15  C   UNK N   1      26.519  26.493  -3.626  0.00  0.00     0.014 A 
HETATM   16  C   UNK N   1      25.595  27.441  -4.070  0.00  0.00     0.001 A 
HETATM   17  C   UNK N   1      24.982  27.286  -5.315  0.00  0.00     0.000 A 
HETATM   18  C   UNK N   1      25.302  26.187  -6.120  0.00  0.00     0.001 A 
HETATM   19  C   UNK N   1      26.231  25.239  -5.678  0.00  0.00     0.014 A 
ENDBRANCH   4  14
TORSDOF 2
ENDMDL
MODEL 8
REMARK VINA RESULT:      -5.6     15.654     16.812
REMARK  2 active torsions:
REMARK  status: ('A' for Active; 'I' for Inactive)
REMARK    1  A    between atoms: C_2  and  C_3 
REMARK    2  A    between atoms: C_7  and  C_8 
ROOT
HETATM    1  C   UNK N   1      20.667  16.236   6.270  0.00  0.00     0.050 A 
HETATM    2  N   UNK N   1      20.643  15.959   8.594  0.00  0.00    -0.358 N 
ATOM      3  HN  UNK N   1      20.414  16.179   9.564  1.00  0.00     0.166 HD
HETATM    4  C   UNK N   1      21.377  14.876   8.216  0.00  0.00     0.085 A 
HETATM    5  S   UNK N   1      21.537  14.870   6.575  0.00  0.00    -0.068 SA
HETATM    6  C   UNK N   1      20.242  16.727   7.516  0.00  0.00     0.110 A 
ENDROOT
BRANCH   1   7
HETATM    7  C   UNK N   1      20.347  16.757   4.939  0.00  0.00     0.068 A 
HETATM    8  C   UNK N   1      21.200  17.488   4.140  0.00  0.00     0.051 A 
HETATM    9  C   UNK N   1      20.477  17.705   2.981  0.00  0.00     0.109 A 
HETATM   10  N   UNK N   1      19.267  17.124   3.108  0.00  0.00    -0.311 N 
HETATM   11  N   UNK N   1      19.189  16.546   4.298  0.00  0.00    -0.300 N 
HETATM   12  H   UNK N   1      18.558  17.127   2.427  0.00  0.00     0.186 HD
ATOM     13  HN  UNK N   1      18.387  16.031   4.661  1.00  0.00     0.187 HD
ENDBRANCH   1   7
BRANCH   4  14
HETATM   14  C   UNK N   1      21.866  13.826   9.120  0.00  0.00    -0.002 A 
HETATM   15  C   UNK N   1      23.127  13.252   8.903  0.00  0.00     0.014 A 
HETATM   16  C   UNK N   1      23.585  12.218   9.721  0.00  0.00     0.001 A 
HETATM   17  C   UNK N   1      22.780  11.743  10.759  0.00  0.00     0.000 A 
HETATM   18  C   UNK N   1      21.521  12.311  10.983  0.00  0.00     0.001 A 
HETATM   19  C   UNK N   1      21.063  13.350  10.166  0.00  0.00     0.014 A 
ENDBRANCH   4  14
TORSDOF 2
ENDMDL
MODEL 9
REMARK VINA RESULT:      -5.6     24.852     26.397
REMARK  2 active torsions:
REMARK  status: ('A' for Active; 'I' for Inactive)
REMARK    1  A    between atoms: C_2  and  C_3 
REMARK    2  A    between atoms: C_7  and  C_8 
ROOT
HETATM    1  C   UNK N   1      25.863  23.992  -6.196  0.00  0.00     0.050 A 
HETATM    2  N   UNK N   1      26.266  25.331  -4.319  0.00  0.00    -0.358 N 
ATOM      3  HN  UNK N   1      26.412  25.545  -3.332  1.00  0.00     0.166 HD
HETATM    4  C   UNK N   1      26.276  26.267  -5.307  0.00  0.00     0.085 A 
HETATM    5  S   UNK N   1      25.994  25.535  -6.758  0.00  0.00    -0.068 SA
HETATM    6  C   UNK N   1      26.034  24.055  -4.803  0.00  0.00     0.110 A 
ENDROOT
BRANCH   1   7
HETATM    7  C   UNK N   1      25.687  22.799  -7.028  0.00  0.00     0.068 A 
HETATM    8  C   UNK N   1      26.581  22.345  -7.974  0.00  0.00     0.051 A 
HETATM    9  C   UNK N   1      26.009  21.181  -8.451  0.00  0.00     0.109 A 
HETATM   10  N   UNK N   1      24.843  20.974  -7.807  0.00  0.00    -0.311 N 
HETATM   11  N   UNK N   1      24.649  21.956  -6.941  0.00  0.00    -0.300 N 
HETATM   12  H   UNK N   1      24.235  20.214  -7.956  0.00  0.00     0.186 HD
ATOM     13  HN  UNK N   1      23.848  22.055  -6.317  1.00  0.00     0.187 HD
ENDBRANCH   1   7
BRANCH   4  14
HETATM   14  C   UNK N   1      26.586  27.692  -5.122  0.00  0.00    -0.002 A 
HETATM   15  C   UNK N   1      27.506  28.321  -5.973  0.00  0.00     0.014 A 
HETATM   16  C   UNK N   1      27.850  29.660  -5.779  0.00  0.00     0.001 A 
HETATM   17  C   UNK N   1      27.282  30.379  -4.725  0.00  0.00     0.000 A 
HETATM   18  C   UNK N   1      26.362  29.759  -3.872  0.00  0.00     0.001 A 
HETATM   19  C   UNK N   1      26.014  28.418  -4.069  0.00  0.00     0.014 A 
ENDBRANCH   4  14
TORSDOF 2
ENDMDL
