REMARK  2 active torsions:
REMARK  status: ('A' for Active; 'I' for Inactive)
REMARK    1  A    between atoms: C_2  and  C_3 
REMARK    2  A    between atoms: C_7  and  C_8 
ROOT
HETATM    1  C   UNK N   1       6.843   0.791   0.003  0.00  0.00     0.050 A 
HETATM    2  N   UNK N   1       9.163   0.872   0.302  0.00  0.00    -0.358 N 
ATOM      3  HN  UNK N   1      10.103   0.507   0.456  1.00  0.00     0.166 HD
HETATM    4  C   UNK N   1       8.879   2.195   0.152  0.00  0.00     0.085 A 
HETATM    5  S   UNK N   1       7.255   2.384  -0.067  0.00  0.00    -0.068 SA
HETATM    6  C   UNK N   1       8.033   0.077   0.222  0.00  0.00     0.110 A 
ENDROOT
BRANCH   1   7
HETATM    7  C   UNK N   1       5.497   0.253  -0.213  0.00  0.00     0.068 A 
HETATM    8  C   UNK N   1       4.371   1.001  -0.480  0.00  0.00     0.051 A 
HETATM    9  C   UNK N   1       3.372   0.061  -0.653  0.00  0.00     0.109 A 
HETATM   10  N   UNK N   1       3.901  -1.169  -0.496  0.00  0.00    -0.311 N 
HETATM   11  N   UNK N   1       5.193  -1.052  -0.230  0.00  0.00    -0.300 N 
HETATM   12  H   UNK N   1       3.407  -2.017  -0.568  0.00  0.00     0.186 HD
ATOM     13  HN  UNK N   1       5.843  -1.821  -0.067  1.00  0.00     0.187 HD
ENDBRANCH   1   7
BRANCH   4  14
HETATM   14  C   UNK N   1       9.874   3.275   0.097  0.00  0.00    -0.002 A 
HETATM   15  C   UNK N   1       9.454   4.600  -0.091  0.00  0.00     0.014 A 
HETATM   16  C   UNK N   1      10.389   5.631  -0.197  0.00  0.00     0.001 A 
HETATM   17  C   UNK N   1      11.754   5.343  -0.124  0.00  0.00     0.000 A 
HETATM   18  C   UNK N   1      12.181   4.024   0.065  0.00  0.00     0.001 A 
HETATM   19  C   UNK N   1      11.244   2.991   0.175  0.00  0.00     0.014 A 
ENDBRANCH   4  14
TORSDOF 2
