MODEL 1
REMARK VINA RESULT:      -8.1      0.000      0.000
REMARK  6 active torsions:
REMARK  status: ('A' for Active; 'I' for Inactive)
REMARK    1  A    between atoms: C_1  and  C_2 
REMARK    2  A    between atoms: C_8  and  N_12 
REMARK    3  A    between atoms: N_12  and  C_15 
REMARK    4  A    between atoms: C_19  and  O_22 
REMARK    5  A    between atoms: C_21  and  C_23 
REMARK    6  A    between atoms: C_23  and  O_24 
ROOT
HETATM    1  C   UNK N   1      35.666  12.195  13.898  0.00  0.00     0.051 A 
HETATM    2  N   UNK N   1      34.644  12.636  13.070  0.00  0.00    -0.335 N 
ATOM      3  HN  UNK N   1      33.717  12.905  13.398  1.00  0.00     0.168 HD
HETATM    4  C   UNK N   1      36.877  11.870  13.253  0.00  0.00     0.083 A 
HETATM    5  C   UNK N   1      35.031  12.662  11.768  0.00  0.00     0.149 A 
HETATM    6  S   UNK N   1      36.600  12.155  11.659  0.00  0.00    -0.064 SA
ENDROOT
BRANCH   5   7
HETATM    7  N   UNK N   1      34.183  13.075  10.694  0.00  0.00    -0.337 N 
HETATM    8  H   UNK N   1      33.475  12.452  10.410  0.00  0.00     0.168 HD
BRANCH   7   9
HETATM    9  C   UNK N   1      34.282  14.321   9.999  0.00  0.00     0.036 A 
HETATM   10  C   UNK N   1      35.000  15.380  10.570  0.00  0.00     0.067 A 
HETATM   11  C   UNK N   1      35.110  16.610   9.900  0.00  0.00     0.084 A 
HETATM   12  C   UNK N   1      34.494  16.789   8.639  0.00  0.00     0.070 A 
HETATM   13  C   UNK N   1      33.779  15.726   8.081  0.00  0.00     0.023 A 
HETATM   14  C   UNK N   1      33.677  14.515   8.753  0.00  0.00     0.030 A 
BRANCH  11  15
HETATM   15  O   UNK N   1      35.808  17.607  10.475  0.00  0.00    -0.360 OA
HETATM   16  H   UNK N   1      35.657  18.494  10.216  0.00  0.00     0.217 HD
ENDBRANCH  11  15
BRANCH  12  17
HETATM   17  C   UNK N   1      34.573  18.061   7.876  0.00  0.00     0.178 C 
HETATM   18  O   UNK N   1      34.208  18.099   6.712  0.00  0.00    -0.646 OA
BRANCH  17  19
HETATM   19  O   UNK N   1      35.047  19.184   8.452  0.00  0.00    -0.773 OA
HETATM   20  H   UNK N   1      35.618  19.751   7.972  0.00  0.00     0.167 HD
ENDBRANCH  17  19
ENDBRANCH  12  17
ENDBRANCH   7   9
ENDBRANCH   5   7
BRANCH   1  21
HETATM   21  C   UNK N   1      35.527  12.064  15.362  0.00  0.00    -0.008 A 
HETATM   22  C   UNK N   1      35.449  13.224  16.148  0.00  0.00     0.023 A 
HETATM   23  C   UNK N   1      35.318  13.141  17.532  0.00  0.00    -0.022 A 
HETATM   24  C   UNK N   1      35.261  11.887  18.151  0.00  0.00     0.122 A 
HETATM   25  C   UNK N   1      35.240  14.393  18.334  0.00  0.00     0.051 C 
HETATM   26  C   UNK N   1      35.338  10.722  17.375  0.00  0.00     0.044 A 
HETATM   27  F   UNK N   1      35.133  11.793  19.498  0.00  0.00    -0.206 F 
HETATM   28  C   UNK N   1      35.470  10.808  15.982  0.00  0.00     0.017 A 
ENDBRANCH   1  21
TORSDOF 6
ENDMDL
MODEL 2
REMARK VINA RESULT:      -8.1     13.697     15.409
REMARK  6 active torsions:
REMARK  status: ('A' for Active; 'I' for Inactive)
REMARK    1  A    between atoms: C_1  and  C_2 
REMARK    2  A    between atoms: C_8  and  N_12 
REMARK    3  A    between atoms: N_12  and  C_15 
REMARK    4  A    between atoms: C_19  and  O_22 
REMARK    5  A    between atoms: C_21  and  C_23 
REMARK    6  A    between atoms: C_23  and  O_24 
ROOT
HETATM    1  C   UNK N   1      20.844  14.549   8.557  0.00  0.00     0.051 A 
HETATM    2  N   UNK N   1      21.170  14.422   7.215  0.00  0.00    -0.335 N 
ATOM      3  HN  UNK N   1      21.794  13.708   6.841  1.00  0.00     0.168 HD
HETATM    4  C   UNK N   1      19.963  15.601   8.876  0.00  0.00     0.083 A 
HETATM    5  C   UNK N   1      20.554  15.370   6.460  0.00  0.00     0.149 A 
HETATM    6  S   UNK N   1      19.633  16.330   7.441  0.00  0.00    -0.064 SA
ENDROOT
BRANCH   5   7
HETATM    7  N   UNK N   1      20.705  15.481   5.043  0.00  0.00    -0.337 N 
HETATM    8  H   UNK N   1      20.777  14.645   4.527  0.00  0.00     0.168 HD
BRANCH   7   9
HETATM    9  C   UNK N   1      20.759  16.711   4.315  0.00  0.00     0.036 A 
HETATM   10  C   UNK N   1      19.608  17.194   3.680  0.00  0.00     0.067 A 
HETATM   11  C   UNK N   1      19.642  18.402   2.963  0.00  0.00     0.084 A 
HETATM   12  C   UNK N   1      20.845  19.142   2.876  0.00  0.00     0.070 A 
HETATM   13  C   UNK N   1      21.987  18.648   3.511  0.00  0.00     0.023 A 
HETATM   14  C   UNK N   1      21.941  17.452   4.217  0.00  0.00     0.030 A 
BRANCH  11  15
HETATM   15  O   UNK N   1      18.518  18.840   2.366  0.00  0.00    -0.360 OA
HETATM   16  H   UNK N   1      18.377  19.758   2.248  0.00  0.00     0.217 HD
ENDBRANCH  11  15
BRANCH  12  17
HETATM   17  C   UNK N   1      20.951  20.425   2.137  0.00  0.00     0.178 C 
HETATM   18  O   UNK N   1      21.653  21.324   2.571  0.00  0.00    -0.646 OA
BRANCH  17  19
HETATM   19  O   UNK N   1      20.276  20.618   0.986  0.00  0.00    -0.773 OA
HETATM   20  H   UNK N   1      19.593  21.259   0.944  0.00  0.00     0.167 HD
ENDBRANCH  17  19
ENDBRANCH  12  17
ENDBRANCH   7   9
ENDBRANCH   5   7
BRANCH   1  21
HETATM   21  C   UNK N   1      21.370  13.655   9.608  0.00  0.00    -0.008 A 
HETATM   22  C   UNK N   1      22.751  13.407   9.667  0.00  0.00     0.023 A 
HETATM   23  C   UNK N   1      23.285  12.571  10.643  0.00  0.00    -0.022 A 
HETATM   24  C   UNK N   1      22.439  11.968  11.582  0.00  0.00     0.122 A 
HETATM   25  C   UNK N   1      24.754  12.329  10.674  0.00  0.00     0.051 C 
HETATM   26  C   UNK N   1      21.059  12.210  11.532  0.00  0.00     0.044 A 
HETATM   27  F   UNK N   1      22.947  11.151  12.538  0.00  0.00    -0.206 F 
HETATM   28  C   UNK N   1      20.524  13.052  10.548  0.00  0.00     0.017 A 
ENDBRANCH   1  21
TORSDOF 6
ENDMDL
MODEL 3
REMARK VINA RESULT:      -7.9     13.333     15.211
REMARK  6 active torsions:
REMARK  status: ('A' for Active; 'I' for Inactive)
REMARK    1  A    between atoms: C_1  and  C_2 
REMARK    2  A    between atoms: C_8  and  N_12 
REMARK    3  A    between atoms: N_12  and  C_15 
REMARK    4  A    between atoms: C_19  and  O_22 
REMARK    5  A    between atoms: C_21  and  C_23 
REMARK    6  A    between atoms: C_23  and  O_24 
ROOT
HETATM    1  C   UNK N   1      22.690  14.418   7.214  0.00  0.00     0.051 A 
HETATM    2  N   UNK N   1      21.468  14.954   6.835  0.00  0.00    -0.335 N 
ATOM      3  HN  UNK N   1      20.610  14.865   7.377  1.00  0.00     0.168 HD
HETATM    4  C   UNK N   1      23.761  14.651   6.328  0.00  0.00     0.083 A 
HETATM    5  C   UNK N   1      21.559  15.613   5.650  0.00  0.00     0.149 A 
HETATM    6  S   UNK N   1      23.114  15.528   5.099  0.00  0.00    -0.064 SA
ENDROOT
BRANCH   5   7
HETATM    7  N   UNK N   1      20.456  16.266   5.016  0.00  0.00    -0.337 N 
HETATM    8  H   UNK N   1      19.550  15.958   5.251  0.00  0.00     0.168 HD
BRANCH   7   9
HETATM    9  C   UNK N   1      20.564  17.332   4.068  0.00  0.00     0.036 A 
HETATM   10  C   UNK N   1      20.233  17.104   2.726  0.00  0.00     0.067 A 
HETATM   11  C   UNK N   1      20.330  18.140   1.781  0.00  0.00     0.084 A 
HETATM   12  C   UNK N   1      20.765  19.425   2.181  0.00  0.00     0.070 A 
HETATM   13  C   UNK N   1      21.094  19.639   3.522  0.00  0.00     0.023 A 
HETATM   14  C   UNK N   1      20.994  18.608   4.447  0.00  0.00     0.030 A 
BRANCH  11  15
HETATM   15  O   UNK N   1      20.004  17.888   0.501  0.00  0.00    -0.360 OA
HETATM   16  H   UNK N   1      20.665  17.901  -0.162  0.00  0.00     0.217 HD
ENDBRANCH  11  15
BRANCH  12  17
HETATM   17  C   UNK N   1      20.888  20.564   1.236  0.00  0.00     0.178 C 
HETATM   18  O   UNK N   1      21.011  20.357   0.040  0.00  0.00    -0.646 OA
BRANCH  17  19
HETATM   19  O   UNK N   1      20.867  21.837   1.682  0.00  0.00    -0.773 OA
HETATM   20  H   UNK N   1      20.525  22.030   2.532  0.00  0.00     0.167 HD
ENDBRANCH  17  19
ENDBRANCH  12  17
ENDBRANCH   7   9
ENDBRANCH   5   7
BRANCH   1  21
HETATM   21  C   UNK N   1      22.888  13.647   8.458  0.00  0.00    -0.008 A 
HETATM   22  C   UNK N   1      21.775  13.336   9.254  0.00  0.00     0.023 A 
HETATM   23  C   UNK N   1      21.921  12.611  10.433  0.00  0.00    -0.022 A 
HETATM   24  C   UNK N   1      23.192  12.184  10.834  0.00  0.00     0.122 A 
HETATM   25  C   UNK N   1      20.717  12.300  11.253  0.00  0.00     0.051 C 
HETATM   26  C   UNK N   1      24.310  12.490  10.046  0.00  0.00     0.044 A 
HETATM   27  F   UNK N   1      23.348  11.477  11.982  0.00  0.00    -0.206 F 
HETATM   28  C   UNK N   1      24.161  13.220   8.859  0.00  0.00     0.017 A 
ENDBRANCH   1  21
TORSDOF 6
ENDMDL
MODEL 4
REMARK VINA RESULT:      -7.8      0.726      1.493
REMARK  6 active torsions:
REMARK  status: ('A' for Active; 'I' for Inactive)
REMARK    1  A    between atoms: C_1  and  C_2 
REMARK    2  A    between atoms: C_8  and  N_12 
REMARK    3  A    between atoms: N_12  and  C_15 
REMARK    4  A    between atoms: C_19  and  O_22 
REMARK    5  A    between atoms: C_21  and  C_23 
REMARK    6  A    between atoms: C_23  and  O_24 
ROOT
HETATM    1  C   UNK N   1      35.830  12.545  14.449  0.00  0.00     0.051 A 
HETATM    2  N   UNK N   1      34.845  12.862  13.525  0.00  0.00    -0.335 N 
ATOM      3  HN  UNK N   1      33.895  13.138  13.772  1.00  0.00     0.168 HD
HETATM    4  C   UNK N   1      37.082  12.188  13.908  0.00  0.00     0.083 A 
HETATM    5  C   UNK N   1      35.304  12.758  12.250  0.00  0.00     0.149 A 
HETATM    6  S   UNK N   1      36.887  12.288  12.280  0.00  0.00    -0.064 SA
ENDROOT
BRANCH   5   7
HETATM    7  N   UNK N   1      34.507  13.025  11.093  0.00  0.00    -0.337 N 
HETATM    8  H   UNK N   1      33.965  12.285  10.734  0.00  0.00     0.168 HD
BRANCH   7   9
HETATM    9  C   UNK N   1      34.435  14.283  10.416  0.00  0.00     0.036 A 
HETATM   10  C   UNK N   1      35.239  15.348  10.841  0.00  0.00     0.067 A 
HETATM   11  C   UNK N   1      35.184  16.590  10.185  0.00  0.00     0.084 A 
HETATM   12  C   UNK N   1      34.311  16.774   9.087  0.00  0.00     0.070 A 
HETATM   13  C   UNK N   1      33.512  15.704   8.674  0.00  0.00     0.023 A 
HETATM   14  C   UNK N   1      33.575  14.482   9.330  0.00  0.00     0.030 A 
BRANCH  11  15
HETATM   15  O   UNK N   1      35.970  17.592  10.618  0.00  0.00    -0.360 OA
HETATM   16  H   UNK N   1      36.279  17.598  11.502  0.00  0.00     0.217 HD
ENDBRANCH  11  15
BRANCH  12  17
HETATM   17  C   UNK N   1      34.204  18.057   8.349  0.00  0.00     0.178 C 
HETATM   18  O   UNK N   1      33.216  18.293   7.672  0.00  0.00    -0.646 OA
BRANCH  17  19
HETATM   19  O   UNK N   1      35.190  18.975   8.411  0.00  0.00    -0.773 OA
HETATM   20  H   UNK N   1      36.086  18.701   8.423  0.00  0.00     0.167 HD
ENDBRANCH  17  19
ENDBRANCH  12  17
ENDBRANCH   7   9
ENDBRANCH   5   7
BRANCH   1  21
HETATM   21  C   UNK N   1      35.614  12.570  15.909  0.00  0.00    -0.008 A 
HETATM   22  C   UNK N   1      35.577  11.358  16.615  0.00  0.00     0.023 A 
HETATM   23  C   UNK N   1      35.375  11.340  17.993  0.00  0.00    -0.022 A 
HETATM   24  C   UNK N   1      35.207  12.545  18.686  0.00  0.00     0.122 A 
HETATM   25  C   UNK N   1      35.341  10.036  18.709  0.00  0.00     0.051 C 
HETATM   26  C   UNK N   1      35.242  13.761  17.990  0.00  0.00     0.044 A 
HETATM   27  F   UNK N   1      35.010  12.541  20.028  0.00  0.00    -0.206 F 
HETATM   28  C   UNK N   1      35.446  13.776  16.603  0.00  0.00     0.017 A 
ENDBRANCH   1  21
TORSDOF 6
ENDMDL
MODEL 5
REMARK VINA RESULT:      -7.5      2.518      3.798
REMARK  6 active torsions:
REMARK  status: ('A' for Active; 'I' for Inactive)
REMARK    1  A    between atoms: C_1  and  C_2 
REMARK    2  A    between atoms: C_8  and  N_12 
REMARK    3  A    between atoms: N_12  and  C_15 
REMARK    4  A    between atoms: C_19  and  O_22 
REMARK    5  A    between atoms: C_21  and  C_23 
REMARK    6  A    between atoms: C_23  and  O_24 
ROOT
HETATM    1  C   UNK N   1      35.571  14.431  11.905  0.00  0.00     0.051 A 
HETATM    2  N   UNK N   1      34.858  15.595  11.659  0.00  0.00    -0.335 N 
ATOM      3  HN  UNK N   1      34.332  16.106  12.368  1.00  0.00     0.168 HD
HETATM    4  C   UNK N   1      36.234  13.875  10.792  0.00  0.00     0.083 A 
HETATM    5  C   UNK N   1      34.946  15.970  10.355  0.00  0.00     0.149 A 
HETATM    6  S   UNK N   1      35.887  14.882   9.542  0.00  0.00    -0.064 SA
ENDROOT
BRANCH   5   7
HETATM    7  N   UNK N   1      34.311  17.131   9.816  0.00  0.00    -0.337 N 
HETATM    8  H   UNK N   1      34.430  17.980  10.302  0.00  0.00     0.168 HD
BRANCH   7   9
HETATM    9  C   UNK N   1      33.518  17.159   8.627  0.00  0.00     0.036 A 
HETATM   10  C   UNK N   1      34.099  17.542   7.412  0.00  0.00     0.067 A 
HETATM   11  C   UNK N   1      33.336  17.572   6.232  0.00  0.00     0.084 A 
HETATM   12  C   UNK N   1      31.968  17.213   6.264  0.00  0.00     0.070 A 
HETATM   13  C   UNK N   1      31.398  16.835   7.483  0.00  0.00     0.023 A 
HETATM   14  C   UNK N   1      32.163  16.810   8.642  0.00  0.00     0.030 A 
BRANCH  11  15
HETATM   15  O   UNK N   1      33.926  17.943   5.081  0.00  0.00    -0.360 OA
HETATM   16  H   UNK N   1      34.226  18.824   4.972  0.00  0.00     0.217 HD
ENDBRANCH  11  15
BRANCH  12  17
HETATM   17  C   UNK N   1      31.104  17.220   5.057  0.00  0.00     0.178 C 
HETATM   18  O   UNK N   1      30.112  16.511   5.010  0.00  0.00    -0.646 OA
BRANCH  17  19
HETATM   19  O   UNK N   1      31.401  18.002   3.999  0.00  0.00    -0.773 OA
HETATM   20  H   UNK N   1      30.720  18.286   3.421  0.00  0.00     0.167 HD
ENDBRANCH  17  19
ENDBRANCH  12  17
ENDBRANCH   7   9
ENDBRANCH   5   7
BRANCH   1  21
HETATM   21  C   UNK N   1      35.651  13.792  13.233  0.00  0.00    -0.008 A 
HETATM   22  C   UNK N   1      34.846  12.674  13.503  0.00  0.00     0.023 A 
HETATM   23  C   UNK N   1      34.892  12.043  14.743  0.00  0.00    -0.022 A 
HETATM   24  C   UNK N   1      35.752  12.526  15.736  0.00  0.00     0.122 A 
HETATM   25  C   UNK N   1      34.022  10.861  14.994  0.00  0.00     0.051 C 
HETATM   26  C   UNK N   1      36.560  13.641  15.477  0.00  0.00     0.044 A 
HETATM   27  F   UNK N   1      35.806  11.920  16.949  0.00  0.00    -0.206 F 
HETATM   28  C   UNK N   1      36.511  14.274  14.228  0.00  0.00     0.017 A 
ENDBRANCH   1  21
TORSDOF 6
ENDMDL
MODEL 6
REMARK VINA RESULT:      -7.3      8.529     10.458
REMARK  6 active torsions:
REMARK  status: ('A' for Active; 'I' for Inactive)
REMARK    1  A    between atoms: C_1  and  C_2 
REMARK    2  A    between atoms: C_8  and  N_12 
REMARK    3  A    between atoms: N_12  and  C_15 
REMARK    4  A    between atoms: C_19  and  O_22 
REMARK    5  A    between atoms: C_21  and  C_23 
REMARK    6  A    between atoms: C_23  and  O_24 
ROOT
HETATM    1  C   UNK N   1      25.033  13.834   7.996  0.00  0.00     0.051 A 
HETATM    2  N   UNK N   1      25.643  15.080   8.021  0.00  0.00    -0.335 N 
ATOM      3  HN  UNK N   1      25.638  15.704   8.828  1.00  0.00     0.168 HD
HETATM    4  C   UNK N   1      25.151  13.121   6.786  0.00  0.00     0.083 A 
HETATM    5  C   UNK N   1      26.247  15.365   6.838  0.00  0.00     0.149 A 
HETATM    6  S   UNK N   1      26.026  14.100   5.798  0.00  0.00    -0.064 SA
ENDROOT
BRANCH   5   7
HETATM    7  N   UNK N   1      26.954  16.580   6.578  0.00  0.00    -0.337 N 
HETATM    8  H   UNK N   1      26.464  17.301   6.120  0.00  0.00     0.168 HD
BRANCH   7   9
HETATM    9  C   UNK N   1      28.317  16.831   6.931  0.00  0.00     0.036 A 
HETATM   10  C   UNK N   1      28.620  17.400   8.174  0.00  0.00     0.067 A 
HETATM   11  C   UNK N   1      29.954  17.650   8.539  0.00  0.00     0.084 A 
HETATM   12  C   UNK N   1      31.005  17.328   7.649  0.00  0.00     0.070 A 
HETATM   13  C   UNK N   1      30.690  16.762   6.411  0.00  0.00     0.023 A 
HETATM   14  C   UNK N   1      29.368  16.519   6.061  0.00  0.00     0.030 A 
BRANCH  11  15
HETATM   15  O   UNK N   1      30.210  18.197   9.741  0.00  0.00    -0.360 OA
HETATM   16  H   UNK N   1      29.544  18.216  10.399  0.00  0.00     0.217 HD
ENDBRANCH  11  15
BRANCH  12  17
HETATM   17  C   UNK N   1      32.435  17.563   7.971  0.00  0.00     0.178 C 
HETATM   18  O   UNK N   1      33.193  17.988   7.115  0.00  0.00    -0.646 OA
BRANCH  17  19
HETATM   19  O   UNK N   1      32.916  17.309   9.205  0.00  0.00    -0.773 OA
HETATM   20  H   UNK N   1      32.520  17.710   9.954  0.00  0.00     0.167 HD
ENDBRANCH  17  19
ENDBRANCH  12  17
ENDBRANCH   7   9
ENDBRANCH   5   7
BRANCH   1  21
HETATM   21  C   UNK N   1      24.299  13.265   9.143  0.00  0.00    -0.008 A 
HETATM   22  C   UNK N   1      22.907  13.432   9.215  0.00  0.00     0.023 A 
HETATM   23  C   UNK N   1      22.179  12.909  10.281  0.00  0.00    -0.022 A 
HETATM   24  C   UNK N   1      22.840  12.207  11.296  0.00  0.00     0.122 A 
HETATM   25  C   UNK N   1      20.704  13.107  10.325  0.00  0.00     0.051 C 
HETATM   26  C   UNK N   1      24.230  12.035  11.233  0.00  0.00     0.044 A 
HETATM   27  F   UNK N   1      22.143  11.693  12.340  0.00  0.00    -0.206 F 
HETATM   28  C   UNK N   1      24.960  12.562  10.159  0.00  0.00     0.017 A 
ENDBRANCH   1  21
TORSDOF 6
ENDMDL
MODEL 7
REMARK VINA RESULT:      -7.3      2.244      3.033
REMARK  6 active torsions:
REMARK  status: ('A' for Active; 'I' for Inactive)
REMARK    1  A    between atoms: C_1  and  C_2 
REMARK    2  A    between atoms: C_8  and  N_12 
REMARK    3  A    between atoms: N_12  and  C_15 
REMARK    4  A    between atoms: C_19  and  O_22 
REMARK    5  A    between atoms: C_21  and  C_23 
REMARK    6  A    between atoms: C_23  and  O_24 
ROOT
HETATM    1  C   UNK N   1      36.371  13.884  12.432  0.00  0.00     0.051 A 
HETATM    2  N   UNK N   1      35.574  15.010  12.286  0.00  0.00    -0.335 N 
ATOM      3  HN  UNK N   1      34.951  15.369  13.009  1.00  0.00     0.168 HD
HETATM    4  C   UNK N   1      37.165  13.550  11.316  0.00  0.00     0.083 A 
HETATM    5  C   UNK N   1      35.726  15.575  11.059  0.00  0.00     0.149 A 
HETATM    6  S   UNK N   1      36.823  14.696  10.190  0.00  0.00    -0.064 SA
ENDROOT
BRANCH   5   7
HETATM    7  N   UNK N   1      35.030  16.747  10.631  0.00  0.00    -0.337 N 
HETATM    8  H   UNK N   1      35.033  17.524  11.236  0.00  0.00     0.168 HD
BRANCH   7   9
HETATM    9  C   UNK N   1      34.328  16.881   9.392  0.00  0.00     0.036 A 
HETATM   10  C   UNK N   1      33.384  15.915   9.019  0.00  0.00     0.067 A 
HETATM   11  C   UNK N   1      32.683  16.032   7.807  0.00  0.00     0.084 A 
HETATM   12  C   UNK N   1      32.926  17.131   6.951  0.00  0.00     0.070 A 
HETATM   13  C   UNK N   1      33.871  18.087   7.332  0.00  0.00     0.023 A 
HETATM   14  C   UNK N   1      34.558  17.961   8.533  0.00  0.00     0.030 A 
BRANCH  11  15
HETATM   15  O   UNK N   1      31.782  15.088   7.480  0.00  0.00    -0.360 OA
HETATM   16  H   UNK N   1      31.853  14.636   6.662  0.00  0.00     0.217 HD
ENDBRANCH  11  15
BRANCH  12  17
HETATM   17  C   UNK N   1      32.219  17.318   5.658  0.00  0.00     0.178 C 
HETATM   18  O   UNK N   1      31.008  17.185   5.598  0.00  0.00    -0.646 OA
BRANCH  17  19
HETATM   19  O   UNK N   1      32.900  17.633   4.538  0.00  0.00    -0.773 OA
HETATM   20  H   UNK N   1      32.718  18.435   4.089  0.00  0.00     0.167 HD
ENDBRANCH  17  19
ENDBRANCH  12  17
ENDBRANCH   7   9
ENDBRANCH   5   7
BRANCH   1  21
HETATM   21  C   UNK N   1      36.408  13.068  13.661  0.00  0.00    -0.008 A 
HETATM   22  C   UNK N   1      35.681  13.491  14.785  0.00  0.00     0.023 A 
HETATM   23  C   UNK N   1      35.690  12.749  15.963  0.00  0.00    -0.022 A 
HETATM   24  C   UNK N   1      36.432  11.564  16.032  0.00  0.00     0.122 A 
HETATM   25  C   UNK N   1      34.908  13.230  17.135  0.00  0.00     0.051 C 
HETATM   26  C   UNK N   1      37.161  11.132  14.915  0.00  0.00     0.044 A 
HETATM   27  F   UNK N   1      36.449  10.832  17.173  0.00  0.00    -0.206 F 
HETATM   28  C   UNK N   1      37.150  11.882  13.731  0.00  0.00     0.017 A 
ENDBRANCH   1  21
TORSDOF 6
ENDMDL
MODEL 8
REMARK VINA RESULT:      -7.2     10.008     13.858
REMARK  6 active torsions:
REMARK  status: ('A' for Active; 'I' for Inactive)
REMARK    1  A    between atoms: C_1  and  C_2 
REMARK    2  A    between atoms: C_8  and  N_12 
REMARK    3  A    between atoms: N_12  and  C_15 
REMARK    4  A    between atoms: C_19  and  O_22 
REMARK    5  A    between atoms: C_21  and  C_23 
REMARK    6  A    between atoms: C_23  and  O_24 
ROOT
HETATM    1  C   UNK N   1      25.563  19.223   4.511  0.00  0.00     0.051 A 
HETATM    2  N   UNK N   1      25.877  18.363   5.554  0.00  0.00    -0.335 N 
ATOM      3  HN  UNK N   1      25.199  17.768   6.030  1.00  0.00     0.168 HD
HETATM    4  C   UNK N   1      26.642  19.961   3.983  0.00  0.00     0.083 A 
HETATM    5  C   UNK N   1      27.199  18.411   5.861  0.00  0.00     0.149 A 
HETATM    6  S   UNK N   1      27.949  19.492   4.861  0.00  0.00    -0.064 SA
ENDROOT
BRANCH   5   7
HETATM    7  N   UNK N   1      27.805  17.630   6.894  0.00  0.00    -0.337 N 
HETATM    8  H   UNK N   1      27.223  17.020   7.402  0.00  0.00     0.168 HD
BRANCH   7   9
HETATM    9  C   UNK N   1      29.191  17.666   7.247  0.00  0.00     0.036 A 
HETATM   10  C   UNK N   1      30.138  17.068   6.407  0.00  0.00     0.067 A 
HETATM   11  C   UNK N   1      31.504  17.096   6.736  0.00  0.00     0.084 A 
HETATM   12  C   UNK N   1      31.934  17.731   7.925  0.00  0.00     0.070 A 
HETATM   13  C   UNK N   1      30.979  18.323   8.756  0.00  0.00     0.023 A 
HETATM   14  C   UNK N   1      29.631  18.288   8.420  0.00  0.00     0.030 A 
BRANCH  11  15
HETATM   15  O   UNK N   1      32.389  16.513   5.906  0.00  0.00    -0.360 OA
HETATM   16  H   UNK N   1      32.994  15.880   6.237  0.00  0.00     0.217 HD
ENDBRANCH  11  15
BRANCH  12  17
HETATM   17  C   UNK N   1      33.360  17.800   8.332  0.00  0.00     0.178 C 
HETATM   18  O   UNK N   1      34.188  18.286   7.580  0.00  0.00    -0.646 OA
BRANCH  17  19
HETATM   19  O   UNK N   1      33.759  17.328   9.530  0.00  0.00    -0.773 OA
HETATM   20  H   UNK N   1      34.366  16.615   9.575  0.00  0.00     0.167 HD
ENDBRANCH  17  19
ENDBRANCH  12  17
ENDBRANCH   7   9
ENDBRANCH   5   7
BRANCH   1  21
HETATM   21  C   UNK N   1      24.199  19.379   3.968  0.00  0.00    -0.008 A 
HETATM   22  C   UNK N   1      23.209  18.453   4.331  0.00  0.00     0.023 A 
HETATM   23  C   UNK N   1      21.911  18.567   3.840  0.00  0.00    -0.022 A 
HETATM   24  C   UNK N   1      21.585  19.617   2.974  0.00  0.00     0.122 A 
HETATM   25  C   UNK N   1      20.887  17.565   4.245  0.00  0.00     0.051 C 
HETATM   26  C   UNK N   1      22.566  20.547   2.606  0.00  0.00     0.044 A 
HETATM   27  F   UNK N   1      20.324  19.739   2.489  0.00  0.00    -0.206 F 
HETATM   28  C   UNK N   1      23.872  20.431   3.102  0.00  0.00     0.017 A 
ENDBRANCH   1  21
TORSDOF 6
ENDMDL
MODEL 9
REMARK VINA RESULT:      -7.0      8.208     12.288
REMARK  6 active torsions:
REMARK  status: ('A' for Active; 'I' for Inactive)
REMARK    1  A    between atoms: C_1  and  C_2 
REMARK    2  A    between atoms: C_8  and  N_12 
REMARK    3  A    between atoms: N_12  and  C_15 
REMARK    4  A    between atoms: C_19  and  O_22 
REMARK    5  A    between atoms: C_21  and  C_23 
REMARK    6  A    between atoms: C_23  and  O_24 
ROOT
HETATM    1  C   UNK N   1      27.806  18.751   5.736  0.00  0.00     0.051 A 
HETATM    2  N   UNK N   1      28.842  17.913   5.349  0.00  0.00    -0.335 N 
ATOM      3  HN  UNK N   1      28.985  17.581   4.396  1.00  0.00     0.168 HD
HETATM    4  C   UNK N   1      27.779  19.099   7.102  0.00  0.00     0.083 A 
HETATM    5  C   UNK N   1      29.641  17.589   6.400  0.00  0.00     0.149 A 
HETATM    6  S   UNK N   1      29.071  18.329   7.763  0.00  0.00    -0.064 SA
ENDROOT
BRANCH   5   7
HETATM    7  N   UNK N   1      30.787  16.741   6.295  0.00  0.00    -0.337 N 
HETATM    8  H   UNK N   1      30.845  16.152   5.508  0.00  0.00     0.168 HD
BRANCH   7   9
HETATM    9  C   UNK N   1      31.855  16.679   7.245  0.00  0.00     0.036 A 
HETATM   10  C   UNK N   1      31.742  15.845   8.365  0.00  0.00     0.067 A 
HETATM   11  C   UNK N   1      32.783  15.769   9.306  0.00  0.00     0.084 A 
HETATM   12  C   UNK N   1      33.956  16.538   9.129  0.00  0.00     0.070 A 
HETATM   13  C   UNK N   1      34.056  17.369   8.009  0.00  0.00     0.023 A 
HETATM   14  C   UNK N   1      33.020  17.435   7.085  0.00  0.00     0.030 A 
BRANCH  11  15
HETATM   15  O   UNK N   1      32.644  14.957  10.369  0.00  0.00    -0.360 OA
HETATM   16  H   UNK N   1      31.828  14.524  10.525  0.00  0.00     0.217 HD
ENDBRANCH  11  15
BRANCH  12  17
HETATM   17  C   UNK N   1      35.094  16.505  10.082  0.00  0.00     0.178 C 
HETATM   18  O   UNK N   1      36.131  15.939   9.777  0.00  0.00    -0.646 OA
BRANCH  17  19
HETATM   19  O   UNK N   1      35.000  17.093  11.292  0.00  0.00    -0.773 OA
HETATM   20  H   UNK N   1      35.260  17.987  11.400  0.00  0.00     0.167 HD
ENDBRANCH  17  19
ENDBRANCH  12  17
ENDBRANCH   7   9
ENDBRANCH   5   7
BRANCH   1  21
HETATM   21  C   UNK N   1      26.782  19.261   4.803  0.00  0.00    -0.008 A 
HETATM   22  C   UNK N   1      25.473  18.761   4.884  0.00  0.00     0.023 A 
HETATM   23  C   UNK N   1      24.480  19.217   4.022  0.00  0.00    -0.022 A 
HETATM   24  C   UNK N   1      24.785  20.189   3.062  0.00  0.00     0.122 A 
HETATM   25  C   UNK N   1      23.103  18.663   4.136  0.00  0.00     0.051 C 
HETATM   26  C   UNK N   1      26.089  20.695   2.973  0.00  0.00     0.044 A 
HETATM   27  F   UNK N   1      23.826  20.642   2.216  0.00  0.00    -0.206 F 
HETATM   28  C   UNK N   1      27.087  20.234   3.842  0.00  0.00     0.017 A 
ENDBRANCH   1  21
TORSDOF 6
ENDMDL
