REMARK  3 active torsions:
REMARK  status: ('A' for Active; 'I' for Inactive)
REMARK    1  A    between atoms: C_1  and  C_8 
REMARK    2  A    between atoms: C_11  and  C_13 
REMARK    3  A    between atoms: C_13  and  N_14 
ROOT
HETATM    1  C   UNK N   1       1.215  -0.138   0.000  0.00  0.00     0.087 A 
HETATM    2  C   UNK N   1       2.366  -0.908   0.000  0.00  0.00     0.040 A 
HETATM    3  C   UNK N   1       1.928  -2.227   0.000  0.00  0.00     0.037 A 
HETATM    4  C   UNK N   1       0.548  -2.156   0.000  0.00  0.00     0.071 A 
HETATM    5  O   UNK N   1       0.160  -0.908  -0.000  0.00  0.00    -0.313 OA
ENDROOT
BRANCH   1   6
HETATM    6  C   UNK N   1       1.116   1.327  -0.000  0.00  0.00     0.013 A 
HETATM    7  C   UNK N   1      -0.147   1.925  -0.000  0.00  0.00     0.017 A 
HETATM    8  C   UNK N   1      -0.263   3.313  -0.000  0.00  0.00     0.018 A 
HETATM    9  C   UNK N   1       0.895   4.092  -0.000  0.00  0.00     0.087 A 
HETATM   10  N   UNK N   1       2.119   3.497   0.000  0.00  0.00    -0.374 N 
HETATM   11  C   UNK N   1       2.254   2.142   0.000  0.00  0.00     0.101 A 
ATOM     12  HN  UNK N   1       2.956   4.080   0.000  1.00  0.00     0.164 HD
ENDBRANCH   1   6
BRANCH   4  13
HETATM   13  C   UNK N   1      -0.402  -3.306  -0.000  0.00  0.00     0.178 C 
BRANCH  13  14
HETATM   14  N   UNK N   1      -1.767  -2.802  -0.000  0.00  0.00    -0.420 N 
HETATM   15  C   UNK N   1      -2.657  -3.946   0.000  0.00  0.00     0.140 C 
HETATM   16  H   UNK N   1      -2.047  -1.821  -0.000  0.00  0.00     0.153 HD
ENDBRANCH  13  14
ENDBRANCH   4  13
TORSDOF 3
