MODEL 1
REMARK VINA RESULT:      -5.3      0.000      0.000
REMARK  3 active torsions:
REMARK  status: ('A' for Active; 'I' for Inactive)
REMARK    1  A    between atoms: C_1  and  C_8 
REMARK    2  A    between atoms: C_11  and  C_13 
REMARK    3  A    between atoms: C_13  and  N_14 
ROOT
HETATM    1  C   UNK N   1      35.194  12.710  15.553  0.00  0.00     0.087 A 
HETATM    2  C   UNK N   1      34.534  11.868  14.673  0.00  0.00     0.040 A 
HETATM    3  C   UNK N   1      34.796  12.379  13.407  0.00  0.00     0.037 A 
HETATM    4  C   UNK N   1      35.592  13.489  13.616  0.00  0.00     0.071 A 
HETATM    5  O   UNK N   1      35.808  13.656  14.894  0.00  0.00    -0.313 OA
ENDROOT
BRANCH   1   6
HETATM    6  C   UNK N   1      35.241  12.617  17.017  0.00  0.00     0.013 A 
HETATM    7  C   UNK N   1      35.355  11.360  17.617  0.00  0.00     0.017 A 
HETATM    8  C   UNK N   1      35.401  11.249  19.005  0.00  0.00     0.018 A 
HETATM    9  C   UNK N   1      35.333  12.407  19.782  0.00  0.00     0.087 A 
HETATM   10  N   UNK N   1      35.223  13.625  19.185  0.00  0.00    -0.374 N 
HETATM   11  C   UNK N   1      35.176  13.754  17.830  0.00  0.00     0.101 A 
ATOM     12  HN  UNK N   1      35.174  14.462  19.766  1.00  0.00     0.164 HD
ENDBRANCH   1   6
BRANCH   4  13
HETATM   13  C   UNK N   1      36.148  14.395  12.570  0.00  0.00     0.178 C 
BRANCH  13  14
HETATM   14  N   UNK N   1      37.252  13.729  11.895  0.00  0.00    -0.420 N 
HETATM   15  C   UNK N   1      37.101  13.963  10.472  0.00  0.00     0.140 C 
HETATM   16  H   UNK N   1      37.997  13.195  12.342  0.00  0.00     0.153 HD
ENDBRANCH  13  14
ENDBRANCH   4  13
TORSDOF 3
ENDMDL
MODEL 2
REMARK VINA RESULT:      -5.1     17.247     19.189
REMARK  3 active torsions:
REMARK  status: ('A' for Active; 'I' for Inactive)
REMARK    1  A    between atoms: C_1  and  C_8 
REMARK    2  A    between atoms: C_11  and  C_13 
REMARK    3  A    between atoms: C_13  and  N_14 
ROOT
HETATM    1  C   UNK N   1      22.786  19.617   3.268  0.00  0.00     0.087 A 
HETATM    2  C   UNK N   1      22.118  20.659   2.647  0.00  0.00     0.040 A 
HETATM    3  C   UNK N   1      20.831  20.186   2.414  0.00  0.00     0.037 A 
HETATM    4  C   UNK N   1      20.818  18.897   2.911  0.00  0.00     0.071 A 
HETATM    5  O   UNK N   1      21.988  18.592   3.408  0.00  0.00    -0.313 OA
ENDROOT
BRANCH   1   6
HETATM    6  C   UNK N   1      24.180  19.593   3.728  0.00  0.00     0.013 A 
HETATM    7  C   UNK N   1      25.140  20.334   3.034  0.00  0.00     0.017 A 
HETATM    8  C   UNK N   1      26.468  20.325   3.454  0.00  0.00     0.018 A 
HETATM    9  C   UNK N   1      26.822  19.569   4.572  0.00  0.00     0.087 A 
HETATM   10  N   UNK N   1      25.877  18.851   5.240  0.00  0.00    -0.374 N 
HETATM   11  C   UNK N   1      24.574  18.847   4.845  0.00  0.00     0.101 A 
ATOM     12  HN  UNK N   1      26.152  18.304   6.055  1.00  0.00     0.164 HD
ENDBRANCH   1   6
BRANCH   4  13
HETATM   13  C   UNK N   1      19.663  17.953   2.904  0.00  0.00     0.178 C 
BRANCH  13  14
HETATM   14  N   UNK N   1      19.171  17.806   1.543  0.00  0.00    -0.420 N 
HETATM   15  C   UNK N   1      20.066  16.902   0.848  0.00  0.00     0.140 C 
HETATM   16  H   UNK N   1      18.345  18.257   1.149  0.00  0.00     0.153 HD
ENDBRANCH  13  14
ENDBRANCH   4  13
TORSDOF 3
ENDMDL
MODEL 3
REMARK VINA RESULT:      -5.0     15.083     16.136
REMARK  3 active torsions:
REMARK  status: ('A' for Active; 'I' for Inactive)
REMARK    1  A    between atoms: C_1  and  C_8 
REMARK    2  A    between atoms: C_11  and  C_13 
REMARK    3  A    between atoms: C_13  and  N_14 
ROOT
HETATM    1  C   UNK N   1      21.373  14.106   8.999  0.00  0.00     0.087 A 
HETATM    2  C   UNK N   1      21.259  13.968   7.625  0.00  0.00     0.040 A 
HETATM    3  C   UNK N   1      20.452  15.023   7.214  0.00  0.00     0.037 A 
HETATM    4  C   UNK N   1      20.140  15.718   8.367  0.00  0.00     0.071 A 
HETATM    5  O   UNK N   1      20.700  15.149   9.403  0.00  0.00    -0.313 OA
ENDROOT
BRANCH   1   6
HETATM    6  C   UNK N   1      22.120  13.247   9.927  0.00  0.00     0.013 A 
HETATM    7  C   UNK N   1      23.503  13.121   9.775  0.00  0.00     0.017 A 
HETATM    8  C   UNK N   1      24.231  12.312  10.645  0.00  0.00     0.018 A 
HETATM    9  C   UNK N   1      23.560  11.634  11.664  0.00  0.00     0.087 A 
HETATM   10  N   UNK N   1      22.212  11.765  11.800  0.00  0.00    -0.374 N 
HETATM   11  C   UNK N   1      21.483  12.551  10.961  0.00  0.00     0.101 A 
ATOM     12  HN  UNK N   1      21.737  11.263  12.550  1.00  0.00     0.164 HD
ENDBRANCH   1   6
BRANCH   4  13
HETATM   13  C   UNK N   1      19.294  16.942   8.467  0.00  0.00     0.178 C 
BRANCH  13  14
HETATM   14  N   UNK N   1      18.194  16.692   9.386  0.00  0.00    -0.420 N 
HETATM   15  C   UNK N   1      16.973  17.131   8.739  0.00  0.00     0.140 C 
HETATM   16  H   UNK N   1      18.268  16.282  10.317  0.00  0.00     0.153 HD
ENDBRANCH  13  14
ENDBRANCH   4  13
TORSDOF 3
ENDMDL
MODEL 4
REMARK VINA RESULT:      -5.0     10.415     13.049
REMARK  3 active torsions:
REMARK  status: ('A' for Active; 'I' for Inactive)
REMARK    1  A    between atoms: C_1  and  C_8 
REMARK    2  A    between atoms: C_11  and  C_13 
REMARK    3  A    between atoms: C_13  and  N_14 
ROOT
HETATM    1  C   UNK N   1      28.707  18.499   7.549  0.00  0.00     0.087 A 
HETATM    2  C   UNK N   1      28.429  18.490   8.905  0.00  0.00     0.040 A 
HETATM    3  C   UNK N   1      29.424  17.708   9.480  0.00  0.00     0.037 A 
HETATM    4  C   UNK N   1      30.227  17.304   8.431  0.00  0.00     0.071 A 
HETATM    5  O   UNK N   1      29.775  17.789   7.304  0.00  0.00    -0.313 OA
ENDROOT
BRANCH   1   6
HETATM    6  C   UNK N   1      27.959  19.180   6.485  0.00  0.00     0.013 A 
HETATM    7  C   UNK N   1      27.300  20.378   6.774  0.00  0.00     0.017 A 
HETATM    8  C   UNK N   1      26.585  21.041   5.780  0.00  0.00     0.018 A 
HETATM    9  C   UNK N   1      26.537  20.493   4.497  0.00  0.00     0.087 A 
HETATM   10  N   UNK N   1      27.183  19.326   4.228  0.00  0.00    -0.374 N 
HETATM   11  C   UNK N   1      27.887  18.662   5.186  0.00  0.00     0.101 A 
ATOM     12  HN  UNK N   1      27.139  18.938   3.286  1.00  0.00     0.164 HD
ENDBRANCH   1   6
BRANCH   4  13
HETATM   13  C   UNK N   1      31.441  16.443   8.520  0.00  0.00     0.178 C 
BRANCH  13  14
HETATM   14  N   UNK N   1      32.528  17.203   9.119  0.00  0.00    -0.420 N 
HETATM   15  C   UNK N   1      33.150  17.982   8.067  0.00  0.00     0.140 C 
HETATM   16  H   UNK N   1      32.802  17.190  10.102  0.00  0.00     0.153 HD
ENDBRANCH  13  14
ENDBRANCH   4  13
TORSDOF 3
ENDMDL
MODEL 5
REMARK VINA RESULT:      -5.0     16.329     18.444
REMARK  3 active torsions:
REMARK  status: ('A' for Active; 'I' for Inactive)
REMARK    1  A    between atoms: C_1  and  C_8 
REMARK    2  A    between atoms: C_11  and  C_13 
REMARK    3  A    between atoms: C_13  and  N_14 
ROOT
HETATM    1  C   UNK N   1      24.112  19.903   3.463  0.00  0.00     0.087 A 
HETATM    2  C   UNK N   1      25.000  20.501   2.584  0.00  0.00     0.040 A 
HETATM    3  C   UNK N   1      26.232  20.469   3.226  0.00  0.00     0.037 A 
HETATM    4  C   UNK N   1      25.998  19.856   4.442  0.00  0.00     0.071 A 
HETATM    5  O   UNK N   1      24.736  19.534   4.549  0.00  0.00    -0.313 OA
ENDROOT
BRANCH   1   6
HETATM    6  C   UNK N   1      22.673  19.681   3.272  0.00  0.00     0.013 A 
HETATM    7  C   UNK N   1      22.079  18.544   3.825  0.00  0.00     0.017 A 
HETATM    8  C   UNK N   1      20.715  18.315   3.656  0.00  0.00     0.018 A 
HETATM    9  C   UNK N   1      19.957  19.234   2.929  0.00  0.00     0.087 A 
HETATM   10  N   UNK N   1      20.548  20.338   2.395  0.00  0.00    -0.374 N 
HETATM   11  C   UNK N   1      21.879  20.580   2.550  0.00  0.00     0.101 A 
ATOM     12  HN  UNK N   1      19.980  21.001   1.867  1.00  0.00     0.164 HD
ENDBRANCH   1   6
BRANCH   4  13
HETATM   13  C   UNK N   1      27.004  19.579   5.507  0.00  0.00     0.178 C 
BRANCH  13  14
HETATM   14  N   UNK N   1      26.510  20.084   6.779  0.00  0.00    -0.420 N 
HETATM   15  C   UNK N   1      26.578  21.531   6.732  0.00  0.00     0.140 C 
HETATM   16  H   UNK N   1      26.175  19.522   7.561  0.00  0.00     0.153 HD
ENDBRANCH  13  14
ENDBRANCH   4  13
TORSDOF 3
ENDMDL
MODEL 6
REMARK VINA RESULT:      -5.0      6.871      9.865
REMARK  3 active torsions:
REMARK  status: ('A' for Active; 'I' for Inactive)
REMARK    1  A    between atoms: C_1  and  C_8 
REMARK    2  A    between atoms: C_11  and  C_13 
REMARK    3  A    between atoms: C_13  and  N_14 
ROOT
HETATM    1  C   UNK N   1      32.398  17.562   8.438  0.00  0.00     0.087 A 
HETATM    2  C   UNK N   1      33.354  18.372   7.850  0.00  0.00     0.040 A 
HETATM    3  C   UNK N   1      34.576  17.897   8.312  0.00  0.00     0.037 A 
HETATM    4  C   UNK N   1      34.267  16.836   9.142  0.00  0.00     0.071 A 
HETATM    5  O   UNK N   1      32.972  16.666   9.194  0.00  0.00    -0.313 OA
ENDROOT
BRANCH   1   6
HETATM    6  C   UNK N   1      30.940  17.638   8.282  0.00  0.00     0.013 A 
HETATM    7  C   UNK N   1      30.198  18.420   9.171  0.00  0.00     0.017 A 
HETATM    8  C   UNK N   1      28.814  18.506   9.040  0.00  0.00     0.018 A 
HETATM    9  C   UNK N   1      28.184  17.801   8.013  0.00  0.00     0.087 A 
HETATM   10  N   UNK N   1      28.917  17.042   7.154  0.00  0.00    -0.374 N 
HETATM   11  C   UNK N   1      30.271  16.946   7.265  0.00  0.00     0.101 A 
ATOM     12  HN  UNK N   1      28.442  16.533   6.409  1.00  0.00     0.164 HD
ENDBRANCH   1   6
BRANCH   4  13
HETATM   13  C   UNK N   1      35.233  15.982   9.891  0.00  0.00     0.178 C 
BRANCH  13  14
HETATM   14  N   UNK N   1      35.112  16.254  11.316  0.00  0.00    -0.420 N 
HETATM   15  C   UNK N   1      35.911  15.271  12.019  0.00  0.00     0.140 C 
HETATM   16  H   UNK N   1      34.564  17.002  11.742  0.00  0.00     0.153 HD
ENDBRANCH  13  14
ENDBRANCH   4  13
TORSDOF 3
ENDMDL
MODEL 7
REMARK VINA RESULT:      -4.9      1.935      6.334
REMARK  3 active torsions:
REMARK  status: ('A' for Active; 'I' for Inactive)
REMARK    1  A    between atoms: C_1  and  C_8 
REMARK    2  A    between atoms: C_11  and  C_13 
REMARK    3  A    between atoms: C_13  and  N_14 
ROOT
HETATM    1  C   UNK N   1      35.221  12.628  16.998  0.00  0.00     0.087 A 
HETATM    2  C   UNK N   1      35.162  13.656  17.924  0.00  0.00     0.040 A 
HETATM    3  C   UNK N   1      35.198  13.035  19.167  0.00  0.00     0.037 A 
HETATM    4  C   UNK N   1      35.277  11.682  18.900  0.00  0.00     0.071 A 
HETATM    5  O   UNK N   1      35.288  11.476  17.610  0.00  0.00    -0.313 OA
ENDROOT
BRANCH   1   6
HETATM    6  C   UNK N   1      35.214  12.738  15.534  0.00  0.00     0.013 A 
HETATM    7  C   UNK N   1      36.040  13.682  14.918  0.00  0.00     0.017 A 
HETATM    8  C   UNK N   1      36.049  13.803  13.530  0.00  0.00     0.018 A 
HETATM    9  C   UNK N   1      35.225  12.972  12.770  0.00  0.00     0.087 A 
HETATM   10  N   UNK N   1      34.425  12.057  13.383  0.00  0.00    -0.374 N 
HETATM   11  C   UNK N   1      34.402  11.923  14.738  0.00  0.00     0.101 A 
ATOM     12  HN  UNK N   1      33.828  11.457  12.814  1.00  0.00     0.164 HD
ENDBRANCH   1   6
BRANCH   4  13
HETATM   13  C   UNK N   1      35.341  10.579  19.903  0.00  0.00     0.178 C 
BRANCH  13  14
HETATM   14  N   UNK N   1      34.641  10.988  21.112  0.00  0.00    -0.420 N 
HETATM   15  C   UNK N   1      33.656   9.969  21.414  0.00  0.00     0.140 C 
HETATM   16  H   UNK N   1      34.813  11.838  21.650  0.00  0.00     0.153 HD
ENDBRANCH  13  14
ENDBRANCH   4  13
TORSDOF 3
ENDMDL
MODEL 8
REMARK VINA RESULT:      -4.9     25.695     26.949
REMARK  3 active torsions:
REMARK  status: ('A' for Active; 'I' for Inactive)
REMARK    1  A    between atoms: C_1  and  C_8 
REMARK    2  A    between atoms: C_11  and  C_13 
REMARK    3  A    between atoms: C_13  and  N_14 
ROOT
HETATM    1  C   UNK N   1      26.269  26.050  -5.239  0.00  0.00     0.087 A 
HETATM    2  C   UNK N   1      26.096  24.945  -4.423  0.00  0.00     0.040 A 
HETATM    3  C   UNK N   1      26.022  23.857  -5.285  0.00  0.00     0.037 A 
HETATM    4  C   UNK N   1      26.157  24.385  -6.555  0.00  0.00     0.071 A 
HETATM    5  O   UNK N   1      26.301  25.683  -6.492  0.00  0.00    -0.313 OA
ENDROOT
BRANCH   1   6
HETATM    6  C   UNK N   1      26.405  27.454  -4.830  0.00  0.00     0.013 A 
HETATM    7  C   UNK N   1      27.223  28.306  -5.577  0.00  0.00     0.017 A 
HETATM    8  C   UNK N   1      27.366  29.641  -5.206  0.00  0.00     0.018 A 
HETATM    9  C   UNK N   1      26.682  30.111  -4.084  0.00  0.00     0.087 A 
HETATM   10  N   UNK N   1      25.888  29.272  -3.366  0.00  0.00    -0.374 N 
HETATM   11  C   UNK N   1      25.735  27.963  -3.711  0.00  0.00     0.101 A 
ATOM     12  HN  UNK N   1      25.395  29.631  -2.548  1.00  0.00     0.164 HD
ENDBRANCH   1   6
BRANCH   4  13
HETATM   13  C   UNK N   1      26.146  23.627  -7.839  0.00  0.00     0.178 C 
BRANCH  13  14
HETATM   14  N   UNK N   1      24.798  23.146  -8.102  0.00  0.00    -0.420 N 
HETATM   15  C   UNK N   1      24.815  21.703  -7.977  0.00  0.00     0.140 C 
HETATM   16  H   UNK N   1      23.987  23.722  -8.333  0.00  0.00     0.153 HD
ENDBRANCH  13  14
ENDBRANCH   4  13
TORSDOF 3
ENDMDL
MODEL 9
REMARK VINA RESULT:      -4.7     14.627     15.588
REMARK  3 active torsions:
REMARK  status: ('A' for Active; 'I' for Inactive)
REMARK    1  A    between atoms: C_1  and  C_8 
REMARK    2  A    between atoms: C_11  and  C_13 
REMARK    3  A    between atoms: C_13  and  N_14 
ROOT
HETATM    1  C   UNK N   1      21.388  14.608   8.854  0.00  0.00     0.087 A 
HETATM    2  C   UNK N   1      20.273  15.403   9.062  0.00  0.00     0.040 A 
HETATM    3  C   UNK N   1      20.201  16.236   7.952  0.00  0.00     0.037 A 
HETATM    4  C   UNK N   1      21.275  15.883   7.157  0.00  0.00     0.071 A 
HETATM    5  O   UNK N   1      21.955  14.919   7.719  0.00  0.00    -0.313 OA
ENDROOT
BRANCH   1   6
HETATM    6  C   UNK N   1      21.914  13.555   9.731  0.00  0.00     0.013 A 
HETATM    7  C   UNK N   1      23.287  13.296   9.737  0.00  0.00     0.017 A 
HETATM    8  C   UNK N   1      23.808  12.301  10.561  0.00  0.00     0.018 A 
HETATM    9  C   UNK N   1      22.941  11.571  11.376  0.00  0.00     0.087 A 
HETATM   10  N   UNK N   1      21.605  11.834  11.361  0.00  0.00    -0.374 N 
HETATM   11  C   UNK N   1      21.077  12.802  10.562  0.00  0.00     0.101 A 
ATOM     12  HN  UNK N   1      20.985  11.292  11.963  1.00  0.00     0.164 HD
ENDBRANCH   1   6
BRANCH   4  13
HETATM   13  C   UNK N   1      21.645  16.484   5.843  0.00  0.00     0.178 C 
BRANCH  13  14
HETATM   14  N   UNK N   1      22.572  17.583   6.061  0.00  0.00    -0.420 N 
HETATM   15  C   UNK N   1      22.690  18.313   4.814  0.00  0.00     0.140 C 
HETATM   16  H   UNK N   1      23.054  17.801   6.934  0.00  0.00     0.153 HD
ENDBRANCH  13  14
ENDBRANCH   4  13
TORSDOF 3
ENDMDL
