MODEL 1
REMARK VINA RESULT:      -8.5      0.000      0.000
REMARK  6 active torsions:
REMARK  status: ('A' for Active; 'I' for Inactive)
REMARK    1  A    between atoms: N_1  and  C_2 
REMARK    2  A    between atoms: C_2  and  C_3 
REMARK    3  A    between atoms: N_6  and  C_9 
REMARK    4  A    between atoms: C_9  and  C_10 
REMARK       I    between atoms: C_10  and  N_11 
REMARK    5  A    between atoms: N_11  and  C_12 
REMARK    6  A    between atoms: C_22  and  C_23 
ROOT
HETATM    1  C   UNK N   1      35.133  14.211   8.916  0.00  0.00     0.050 A 
HETATM    2  C   UNK N   1      35.786  13.801   7.741  0.00  0.00     0.030 A 
HETATM    3  C   UNK N   1      36.943  12.991   7.818  0.00  0.00     0.003 A 
HETATM    4  C   UNK N   1      37.471  12.602   9.066  0.00  0.00     0.015 A 
HETATM    5  C   UNK N   1      36.798  13.013  10.214  0.00  0.00     0.009 A 
HETATM    6  C   UNK N   1      35.650  13.790  10.140  0.00  0.00     0.054 A 
HETATM    7  C   UNK N   1      37.079  12.814  11.630  0.00  0.00     0.075 A 
HETATM    8  C   UNK N   1      36.152  13.415  12.391  0.00  0.00     0.068 A 
HETATM    9  C   UNK N   1      35.184  14.053  11.511  0.00  0.00     0.199 A 
HETATM   10  N   UNK N   1      37.665  12.427  13.662  0.00  0.00    -0.303 N 
HETATM   11  C   UNK N   1      36.521  13.168  13.691  0.00  0.00     0.046 A 
HETATM   12  O   UNK N   1      34.174  14.655  11.840  0.00  0.00    -0.286 OA
HETATM   13  N   UNK N   1      38.006  12.213  12.392  0.00  0.00    -0.299 N 
ATOM     14  HN  UNK N   1      38.818  11.691  12.062  1.00  0.00     0.187 HD
HETATM   15  H   UNK N   1      38.157  12.102  14.451  0.00  0.00     0.186 HD
ENDROOT
BRANCH   1  16
HETATM   16  N   UNK N   1      34.054  15.128   8.873  0.00  0.00    -0.325 N 
HETATM   17  C   UNK N   1      32.783  14.669   8.705  0.00  0.00     0.250 C 
HETATM   18  O   UNK N   1      32.559  13.467   8.718  0.00  0.00    -0.271 OA
HETATM   19  H   UNK N   1      34.223  16.095   8.964  0.00  0.00     0.169 HD
BRANCH  17  20
HETATM   20  C   UNK N   1      31.618  15.595   8.518  0.00  0.00     0.374 C 
BRANCH  20  21
HETATM   21  N   UNK N   1      31.867  16.738   7.637  0.00  0.00     0.097 N 
HETATM   22  C   UNK N   1      31.889  18.016   8.368  0.00  0.00     0.273 C 
HETATM   23  C   UNK N   1      30.553  18.371   9.044  0.00  0.00     0.036 C 
HETATM   24  C   UNK N   1      29.410  17.474   8.580  0.00  0.00     0.006 C 
HETATM   25  C   UNK N   1      29.456  17.281   7.067  0.00  0.00     0.036 C 
HETATM   26  C   UNK N   1      30.826  16.749   6.594  0.00  0.00     0.273 C 
BRANCH  24  27
HETATM   27  C   UNK N   1      28.061  17.986   9.065  0.00  0.00     0.115 C 
BRANCH  27  28
HETATM   28  N   UNK N   1      27.633  19.139   8.291  0.00  0.00    -0.430 N 
HETATM   29  H   UNK N   1      28.062  19.827   7.673  0.00  0.00     0.149 HD
HETATM   30  H   UNK N   1      26.632  19.306   8.395  0.00  0.00     0.149 HD
ENDBRANCH  27  28
ENDBRANCH  24  27
ENDBRANCH  20  21
ENDBRANCH  17  20
ENDBRANCH   1  16
BRANCH  11  31
HETATM   31  C   UNK N   1      35.838  13.617  14.952  0.00  0.00     0.038 C 
HETATM   32  C   UNK N   1      36.860  14.227  15.914  0.00  0.00     0.011 C 
HETATM   33  C   UNK N   1      36.184  14.698  17.206  0.00  0.00     0.001 C 
HETATM   34  C   UNK N   1      35.208  13.674  17.805  0.00  0.00     0.000 C 
HETATM   35  C   UNK N   1      35.268  12.321  17.104  0.00  0.00     0.001 C 
HETATM   36  C   UNK N   1      35.012  12.490  15.606  0.00  0.00     0.011 C 
ENDBRANCH  11  31
TORSDOF 6
ENDMDL
MODEL 2
REMARK VINA RESULT:      -8.2      9.481     13.749
REMARK  6 active torsions:
REMARK  status: ('A' for Active; 'I' for Inactive)
REMARK    1  A    between atoms: N_1  and  C_2 
REMARK    2  A    between atoms: C_2  and  C_3 
REMARK    3  A    between atoms: N_6  and  C_9 
REMARK    4  A    between atoms: C_9  and  C_10 
REMARK       I    between atoms: C_10  and  N_11 
REMARK    5  A    between atoms: N_11  and  C_12 
REMARK    6  A    between atoms: C_22  and  C_23 
ROOT
HETATM    1  C   UNK N   1      21.857  17.455   4.480  0.00  0.00     0.050 A 
HETATM    2  C   UNK N   1      20.649  17.918   3.930  0.00  0.00     0.030 A 
HETATM    3  C   UNK N   1      20.633  19.090   3.138  0.00  0.00     0.003 A 
HETATM    4  C   UNK N   1      21.816  19.820   2.905  0.00  0.00     0.015 A 
HETATM    5  C   UNK N   1      23.001  19.332   3.453  0.00  0.00     0.009 A 
HETATM    6  C   UNK N   1      23.022  18.170   4.213  0.00  0.00     0.054 A 
HETATM    7  C   UNK N   1      24.366  19.842   3.427  0.00  0.00     0.075 A 
HETATM    8  C   UNK N   1      25.190  19.037   4.116  0.00  0.00     0.068 A 
HETATM    9  C   UNK N   1      24.409  17.926   4.641  0.00  0.00     0.199 A 
HETATM   10  N   UNK N   1      26.308  20.755   3.292  0.00  0.00    -0.303 N 
HETATM   11  C   UNK N   1      26.433  19.616   4.030  0.00  0.00     0.046 A 
HETATM   12  O   UNK N   1      24.823  16.970   5.276  0.00  0.00    -0.286 OA
HETATM   13  N   UNK N   1      25.033  20.892   2.925  0.00  0.00    -0.299 N 
ATOM     14  HN  UNK N   1      24.641  21.651   2.368  1.00  0.00     0.187 HD
HETATM   15  H   UNK N   1      27.039  21.375   3.068  0.00  0.00     0.186 HD
ENDROOT
BRANCH   1  16
HETATM   16  N   UNK N   1      21.880  16.363   5.384  0.00  0.00    -0.325 N 
HETATM   17  C   UNK N   1      21.581  16.566   6.697  0.00  0.00     0.250 C 
HETATM   18  O   UNK N   1      21.174  17.656   7.070  0.00  0.00    -0.271 OA
HETATM   19  H   UNK N   1      22.111  15.461   5.062  0.00  0.00     0.169 HD
BRANCH  17  20
HETATM   20  C   UNK N   1      21.718  15.481   7.723  0.00  0.00     0.374 C 
BRANCH  20  21
HETATM   21  N   UNK N   1      20.523  14.657   7.919  0.00  0.00     0.097 N 
HETATM   22  C   UNK N   1      20.268  14.367   9.340  0.00  0.00     0.273 C 
HETATM   23  C   UNK N   1      21.380  13.549  10.019  0.00  0.00     0.036 C 
HETATM   24  C   UNK N   1      22.371  12.968   9.015  0.00  0.00     0.006 C 
HETATM   25  C   UNK N   1      21.637  12.380   7.813  0.00  0.00     0.036 C 
HETATM   26  C   UNK N   1      20.694  13.410   7.153  0.00  0.00     0.273 C 
BRANCH  24  27
HETATM   27  C   UNK N   1      23.315  11.971   9.670  0.00  0.00     0.115 C 
BRANCH  27  28
HETATM   28  N   UNK N   1      22.703  11.364  10.841  0.00  0.00    -0.430 N 
HETATM   29  H   UNK N   1      23.016  10.908  11.698  0.00  0.00     0.149 HD
HETATM   30  H   UNK N   1      21.685  11.406  10.792  0.00  0.00     0.149 HD
ENDBRANCH  27  28
ENDBRANCH  24  27
ENDBRANCH  20  21
ENDBRANCH  17  20
ENDBRANCH   1  16
BRANCH  11  31
HETATM   31  C   UNK N   1      27.725  19.135   4.628  0.00  0.00     0.038 C 
HETATM   32  C   UNK N   1      28.113  17.785   4.022  0.00  0.00     0.011 C 
HETATM   33  C   UNK N   1      29.432  17.277   4.613  0.00  0.00     0.001 C 
HETATM   34  C   UNK N   1      29.510  17.386   6.144  0.00  0.00     0.000 C 
HETATM   35  C   UNK N   1      28.180  17.786   6.775  0.00  0.00     0.001 C 
HETATM   36  C   UNK N   1      27.681  19.098   6.169  0.00  0.00     0.011 C 
ENDBRANCH  11  31
TORSDOF 6
ENDMDL
MODEL 3
REMARK VINA RESULT:      -7.8      8.208     12.633
REMARK  6 active torsions:
REMARK  status: ('A' for Active; 'I' for Inactive)
REMARK    1  A    between atoms: N_1  and  C_2 
REMARK    2  A    between atoms: C_2  and  C_3 
REMARK    3  A    between atoms: N_6  and  C_9 
REMARK    4  A    between atoms: C_9  and  C_10 
REMARK       I    between atoms: C_10  and  N_11 
REMARK    5  A    between atoms: N_11  and  C_12 
REMARK    6  A    between atoms: C_22  and  C_23 
ROOT
HETATM    1  C   UNK N   1      22.958  18.231   4.039  0.00  0.00     0.050 A 
HETATM    2  C   UNK N   1      22.128  19.189   3.430  0.00  0.00     0.030 A 
HETATM    3  C   UNK N   1      22.689  20.364   2.877  0.00  0.00     0.003 A 
HETATM    4  C   UNK N   1      24.076  20.603   2.945  0.00  0.00     0.015 A 
HETATM    5  C   UNK N   1      24.876  19.632   3.543  0.00  0.00     0.009 A 
HETATM    6  C   UNK N   1      24.330  18.469   4.068  0.00  0.00     0.054 A 
HETATM    7  C   UNK N   1      26.310  19.574   3.796  0.00  0.00     0.075 A 
HETATM    8  C   UNK N   1      26.639  18.435   4.425  0.00  0.00     0.068 A 
HETATM    9  C   UNK N   1      25.425  17.656   4.623  0.00  0.00     0.199 A 
HETATM   10  N   UNK N   1      28.437  19.676   4.094  0.00  0.00    -0.303 N 
HETATM   11  C   UNK N   1      27.999  18.495   4.614  0.00  0.00     0.046 A 
HETATM   12  O   UNK N   1      25.336  16.544   5.117  0.00  0.00    -0.286 OA
HETATM   13  N   UNK N   1      27.394  20.338   3.593  0.00  0.00    -0.299 N 
ATOM     14  HN  UNK N   1      27.417  21.252   3.141  1.00  0.00     0.187 HD
HETATM   15  H   UNK N   1      29.371  19.988   4.088  0.00  0.00     0.186 HD
ENDROOT
BRANCH   1  16
HETATM   16  N   UNK N   1      22.410  17.113   4.717  0.00  0.00    -0.325 N 
HETATM   17  C   UNK N   1      21.993  17.242   6.006  0.00  0.00     0.250 C 
HETATM   18  O   UNK N   1      21.973  18.344   6.536  0.00  0.00    -0.271 OA
HETATM   19  H   UNK N   1      22.333  16.246   4.256  0.00  0.00     0.169 HD
BRANCH  17  20
HETATM   20  C   UNK N   1      21.531  16.068   6.817  0.00  0.00     0.374 C 
BRANCH  20  21
HETATM   21  N   UNK N   1      21.635  14.770   6.147  0.00  0.00     0.097 N 
HETATM   22  C   UNK N   1      20.624  13.811   6.621  0.00  0.00     0.273 C 
HETATM   23  C   UNK N   1      20.755  13.453   8.112  0.00  0.00     0.036 C 
HETATM   24  C   UNK N   1      22.068  13.942   8.714  0.00  0.00     0.006 C 
HETATM   25  C   UNK N   1      23.233  13.655   7.771  0.00  0.00     0.036 C 
HETATM   26  C   UNK N   1      22.995  14.248   6.365  0.00  0.00     0.273 C 
BRANCH  24  27
HETATM   27  C   UNK N   1      22.291  13.376  10.109  0.00  0.00     0.115 C 
BRANCH  27  28
HETATM   28  N   UNK N   1      21.103  12.691  10.590  0.00  0.00    -0.430 N 
HETATM   29  H   UNK N   1      20.710  11.751  10.543  0.00  0.00     0.149 HD
HETATM   30  H   UNK N   1      20.498  13.321  11.117  0.00  0.00     0.149 HD
ENDBRANCH  27  28
ENDBRANCH  24  27
ENDBRANCH  20  21
ENDBRANCH  17  20
ENDBRANCH   1  16
BRANCH  11  31
HETATM   31  C   UNK N   1      28.889  17.482   5.278  0.00  0.00     0.038 C 
HETATM   32  C   UNK N   1      29.163  17.895   6.726  0.00  0.00     0.011 C 
HETATM   33  C   UNK N   1      30.065  16.873   7.427  0.00  0.00     0.001 C 
HETATM   34  C   UNK N   1      31.285  16.448   6.594  0.00  0.00     0.000 C 
HETATM   35  C   UNK N   1      31.457  17.285   5.330  0.00  0.00     0.001 C 
HETATM   36  C   UNK N   1      30.185  17.228   4.483  0.00  0.00     0.011 C 
ENDBRANCH  11  31
TORSDOF 6
ENDMDL
MODEL 4
REMARK VINA RESULT:      -7.7      1.563      2.198
REMARK  6 active torsions:
REMARK  status: ('A' for Active; 'I' for Inactive)
REMARK    1  A    between atoms: N_1  and  C_2 
REMARK    2  A    between atoms: C_2  and  C_3 
REMARK    3  A    between atoms: N_6  and  C_9 
REMARK    4  A    between atoms: C_9  and  C_10 
REMARK       I    between atoms: C_10  and  N_11 
REMARK    5  A    between atoms: N_11  and  C_12 
REMARK    6  A    between atoms: C_22  and  C_23 
ROOT
HETATM    1  C   UNK N   1      36.396  13.184  10.447  0.00  0.00     0.050 A 
HETATM    2  C   UNK N   1      37.151  12.626   9.401  0.00  0.00     0.030 A 
HETATM    3  C   UNK N   1      37.959  11.490   9.637  0.00  0.00     0.003 A 
HETATM    4  C   UNK N   1      38.038  10.915  10.921  0.00  0.00     0.015 A 
HETATM    5  C   UNK N   1      37.271  11.481  11.937  0.00  0.00     0.009 A 
HETATM    6  C   UNK N   1      36.461  12.583  11.702  0.00  0.00     0.054 A 
HETATM    7  C   UNK N   1      37.140  11.157  13.352  0.00  0.00     0.075 A 
HETATM    8  C   UNK N   1      36.286  11.996  13.957  0.00  0.00     0.068 A 
HETATM    9  C   UNK N   1      35.788  12.936  12.963  0.00  0.00     0.199 A 
HETATM   10  N   UNK N   1      37.090  10.540  15.411  0.00  0.00    -0.303 N 
HETATM   11  C   UNK N   1      36.249  11.603  15.273  0.00  0.00     0.046 A 
HETATM   12  O   UNK N   1      34.959  13.815  13.131  0.00  0.00    -0.286 OA
HETATM   13  N   UNK N   1      37.639  10.269  14.226  0.00  0.00    -0.299 N 
ATOM     14  HN  UNK N   1      38.309   9.528  14.024  1.00  0.00     0.187 HD
HETATM   15  H   UNK N   1      37.264  10.051  16.248  0.00  0.00     0.186 HD
ENDROOT
BRANCH   1  16
HETATM   16  N   UNK N   1      35.684  14.397  10.271  0.00  0.00    -0.325 N 
HETATM   17  C   UNK N   1      34.454  14.381   9.687  0.00  0.00     0.250 C 
HETATM   18  O   UNK N   1      33.912  13.314   9.431  0.00  0.00    -0.271 OA
HETATM   19  H   UNK N   1      36.078  15.249  10.571  0.00  0.00     0.169 HD
BRANCH  17  20
HETATM   20  C   UNK N   1      33.712  15.640   9.354  0.00  0.00     0.374 C 
BRANCH  20  21
HETATM   21  N   UNK N   1      33.999  16.200   8.032  0.00  0.00     0.097 N 
HETATM   22  C   UNK N   1      34.018  17.672   8.037  0.00  0.00     0.273 C 
HETATM   23  C   UNK N   1      32.670  18.312   8.410  0.00  0.00     0.036 C 
HETATM   24  C   UNK N   1      31.528  17.301   8.415  0.00  0.00     0.006 C 
HETATM   25  C   UNK N   1      31.611  16.387   7.196  0.00  0.00     0.036 C 
HETATM   26  C   UNK N   1      32.987  15.693   7.088  0.00  0.00     0.273 C 
BRANCH  24  27
HETATM   27  C   UNK N   1      30.174  17.983   8.544  0.00  0.00     0.115 C 
BRANCH  27  28
HETATM   28  N   UNK N   1      30.063  18.686   9.812  0.00  0.00    -0.430 N 
HETATM   29  H   UNK N   1      29.315  19.045  10.406  0.00  0.00     0.149 HD
HETATM   30  H   UNK N   1      30.980  18.870  10.217  0.00  0.00     0.149 HD
ENDBRANCH  27  28
ENDBRANCH  24  27
ENDBRANCH  20  21
ENDBRANCH  17  20
ENDBRANCH   1  16
BRANCH  11  31
HETATM   31  C   UNK N   1      35.457  12.205  16.400  0.00  0.00     0.038 C 
HETATM   32  C   UNK N   1      36.061  13.552  16.805  0.00  0.00     0.011 C 
HETATM   33  C   UNK N   1      35.266  14.188  17.949  0.00  0.00     0.001 C 
HETATM   34  C   UNK N   1      34.938  13.216  19.092  0.00  0.00     0.000 C 
HETATM   35  C   UNK N   1      35.648  11.873  18.947  0.00  0.00     0.001 C 
HETATM   36  C   UNK N   1      35.312  11.242  17.596  0.00  0.00     0.011 C 
ENDBRANCH  11  31
TORSDOF 6
ENDMDL
MODEL 5
REMARK VINA RESULT:      -7.6      4.197      8.006
REMARK  6 active torsions:
REMARK  status: ('A' for Active; 'I' for Inactive)
REMARK    1  A    between atoms: N_1  and  C_2 
REMARK    2  A    between atoms: C_2  and  C_3 
REMARK    3  A    between atoms: N_6  and  C_9 
REMARK    4  A    between atoms: C_9  and  C_10 
REMARK       I    between atoms: C_10  and  N_11 
REMARK    5  A    between atoms: N_11  and  C_12 
REMARK    6  A    between atoms: C_22  and  C_23 
ROOT
HETATM    1  C   UNK N   1      35.531  12.078  12.020  0.00  0.00     0.050 A 
HETATM    2  C   UNK N   1      36.145  12.076  13.284  0.00  0.00     0.030 A 
HETATM    3  C   UNK N   1      36.442  13.299  13.930  0.00  0.00     0.003 A 
HETATM    4  C   UNK N   1      36.150  14.532  13.312  0.00  0.00     0.015 A 
HETATM    5  C   UNK N   1      35.532  14.504  12.063  0.00  0.00     0.009 A 
HETATM    6  C   UNK N   1      35.220  13.305  11.438  0.00  0.00     0.054 A 
HETATM    7  C   UNK N   1      35.123  15.569  11.157  0.00  0.00     0.075 A 
HETATM    8  C   UNK N   1      34.575  15.064  10.041  0.00  0.00     0.068 A 
HETATM    9  C   UNK N   1      34.582  13.612  10.147  0.00  0.00     0.199 A 
HETATM   10  N   UNK N   1      34.605  17.271   9.949  0.00  0.00    -0.303 N 
HETATM   11  C   UNK N   1      34.240  16.149   9.268  0.00  0.00     0.046 A 
HETATM   12  O   UNK N   1      34.122  12.813   9.347  0.00  0.00    -0.286 OA
HETATM   13  N   UNK N   1      35.151  16.910  11.110  0.00  0.00    -0.299 N 
ATOM     14  HN  UNK N   1      35.519  17.535  11.827  1.00  0.00     0.187 HD
HETATM   15  H   UNK N   1      34.485  18.196   9.635  0.00  0.00     0.186 HD
ENDROOT
BRANCH   1  16
HETATM   16  N   UNK N   1      35.344  10.874  11.294  0.00  0.00    -0.325 N 
HETATM   17  C   UNK N   1      34.355  10.012  11.659  0.00  0.00     0.250 C 
HETATM   18  O   UNK N   1      33.553  10.332  12.525  0.00  0.00    -0.271 OA
HETATM   19  H   UNK N   1      35.929  10.662  10.530  0.00  0.00     0.169 HD
BRANCH  17  20
HETATM   20  C   UNK N   1      34.193   8.667  11.017  0.00  0.00     0.374 C 
BRANCH  20  21
HETATM   21  N   UNK N   1      34.118   8.679   9.555  0.00  0.00     0.097 N 
HETATM   22  C   UNK N   1      32.895   9.332   9.061  0.00  0.00     0.273 C 
HETATM   23  C   UNK N   1      31.596   8.619   9.477  0.00  0.00     0.036 C 
HETATM   24  C   UNK N   1      31.855   7.237  10.069  0.00  0.00     0.006 C 
HETATM   25  C   UNK N   1      32.891   6.482   9.240  0.00  0.00     0.036 C 
HETATM   26  C   UNK N   1      34.199   7.287   9.079  0.00  0.00     0.273 C 
BRANCH  24  27
HETATM   27  C   UNK N   1      30.564   6.452  10.249  0.00  0.00     0.115 C 
BRANCH  27  28
HETATM   28  N   UNK N   1      29.409   7.259   9.892  0.00  0.00    -0.430 N 
HETATM   29  H   UNK N   1      28.789   7.924  10.354  0.00  0.00     0.149 HD
HETATM   30  H   UNK N   1      29.148   7.124   8.915  0.00  0.00     0.149 HD
ENDBRANCH  27  28
ENDBRANCH  24  27
ENDBRANCH  20  21
ENDBRANCH  17  20
ENDBRANCH   1  16
BRANCH  11  31
HETATM   31  C   UNK N   1      33.599  16.157   7.908  0.00  0.00     0.038 C 
HETATM   32  C   UNK N   1      34.071  17.376   7.113  0.00  0.00     0.011 C 
HETATM   33  C   UNK N   1      33.435  17.403   5.720  0.00  0.00     0.001 C 
HETATM   34  C   UNK N   1      31.923  17.133   5.722  0.00  0.00     0.000 C 
HETATM   35  C   UNK N   1      31.332  17.099   7.129  0.00  0.00     0.001 C 
HETATM   36  C   UNK N   1      32.061  16.062   7.982  0.00  0.00     0.011 C 
ENDBRANCH  11  31
TORSDOF 6
ENDMDL
MODEL 6
REMARK VINA RESULT:      -7.4      6.298     12.866
REMARK  6 active torsions:
REMARK  status: ('A' for Active; 'I' for Inactive)
REMARK    1  A    between atoms: N_1  and  C_2 
REMARK    2  A    between atoms: C_2  and  C_3 
REMARK    3  A    between atoms: N_6  and  C_9 
REMARK    4  A    between atoms: C_9  and  C_10 
REMARK       I    between atoms: C_10  and  N_11 
REMARK    5  A    between atoms: N_11  and  C_12 
REMARK    6  A    between atoms: C_22  and  C_23 
ROOT
HETATM    1  C   UNK N   1      26.597  18.983   4.155  0.00  0.00     0.050 A 
HETATM    2  C   UNK N   1      26.944  20.142   3.440  0.00  0.00     0.030 A 
HETATM    3  C   UNK N   1      25.938  20.931   2.835  0.00  0.00     0.003 A 
HETATM    4  C   UNK N   1      24.581  20.559   2.920  0.00  0.00     0.015 A 
HETATM    5  C   UNK N   1      24.264  19.412   3.644  0.00  0.00     0.009 A 
HETATM    6  C   UNK N   1      25.248  18.649   4.256  0.00  0.00     0.054 A 
HETATM    7  C   UNK N   1      22.994  18.747   3.904  0.00  0.00     0.075 A 
HETATM    8  C   UNK N   1      23.175  17.644   4.648  0.00  0.00     0.068 A 
HETATM    9  C   UNK N   1      24.596  17.516   4.934  0.00  0.00     0.199 A 
HETATM   10  N   UNK N   1      21.034  17.902   4.167  0.00  0.00    -0.303 N 
HETATM   11  C   UNK N   1      21.924  17.103   4.820  0.00  0.00     0.046 A 
HETATM   12  O   UNK N   1      25.135  16.665   5.623  0.00  0.00    -0.286 OA
HETATM   13  N   UNK N   1      21.697  18.912   3.602  0.00  0.00    -0.299 N 
ATOM     14  HN  UNK N   1      21.293  19.666   3.046  1.00  0.00     0.187 HD
HETATM   15  H   UNK N   1      20.061  17.757   4.120  0.00  0.00     0.186 HD
ENDROOT
BRANCH   1  16
HETATM   16  N   UNK N   1      27.591  18.105   4.656  0.00  0.00    -0.325 N 
HETATM   17  C   UNK N   1      28.206  18.385   5.838  0.00  0.00     0.250 C 
HETATM   18  O   UNK N   1      27.816  19.318   6.525  0.00  0.00    -0.271 OA
HETATM   19  H   UNK N   1      27.836  17.296   4.150  0.00  0.00     0.169 HD
BRANCH  17  20
HETATM   20  C   UNK N   1      29.354  17.569   6.352  0.00  0.00     0.374 C 
BRANCH  20  21
HETATM   21  N   UNK N   1      29.949  16.650   5.380  0.00  0.00     0.097 N 
HETATM   22  C   UNK N   1      30.437  15.410   6.006  0.00  0.00     0.273 C 
HETATM   23  C   UNK N   1      31.567  15.628   7.027  0.00  0.00     0.036 C 
HETATM   24  C   UNK N   1      32.139  17.042   6.968  0.00  0.00     0.006 C 
HETATM   25  C   UNK N   1      32.342  17.480   5.520  0.00  0.00     0.036 C 
HETATM   26  C   UNK N   1      31.045  17.355   4.692  0.00  0.00     0.273 C 
BRANCH  24  27
HETATM   27  C   UNK N   1      33.404  17.171   7.802  0.00  0.00     0.115 C 
BRANCH  27  28
HETATM   28  N   UNK N   1      33.153  16.813   9.189  0.00  0.00    -0.430 N 
HETATM   29  H   UNK N   1      32.515  16.204   9.701  0.00  0.00     0.149 HD
HETATM   30  H   UNK N   1      33.787  17.304   9.820  0.00  0.00     0.149 HD
ENDBRANCH  27  28
ENDBRANCH  24  27
ENDBRANCH  20  21
ENDBRANCH  17  20
ENDBRANCH   1  16
BRANCH  11  31
HETATM   31  C   UNK N   1      21.547  15.856   5.570  0.00  0.00     0.038 C 
HETATM   32  C   UNK N   1      21.750  16.065   7.072  0.00  0.00     0.011 C 
HETATM   33  C   UNK N   1      21.366  14.807   7.858  0.00  0.00     0.001 C 
HETATM   34  C   UNK N   1      21.934  13.508   7.266  0.00  0.00     0.000 C 
HETATM   35  C   UNK N   1      22.931  13.759   6.139  0.00  0.00     0.001 C 
HETATM   36  C   UNK N   1      22.286  14.608   5.044  0.00  0.00     0.011 C 
ENDBRANCH  11  31
TORSDOF 6
ENDMDL
MODEL 7
REMARK VINA RESULT:      -7.4     16.917     20.434
REMARK  6 active torsions:
REMARK  status: ('A' for Active; 'I' for Inactive)
REMARK    1  A    between atoms: N_1  and  C_2 
REMARK    2  A    between atoms: C_2  and  C_3 
REMARK    3  A    between atoms: N_6  and  C_9 
REMARK    4  A    between atoms: C_9  and  C_10 
REMARK       I    between atoms: C_10  and  N_11 
REMARK    5  A    between atoms: N_11  and  C_12 
REMARK    6  A    between atoms: C_22  and  C_23 
ROOT
HETATM    1  C   UNK N   1      26.320  23.406  -7.435  0.00  0.00     0.050 A 
HETATM    2  C   UNK N   1      25.264  22.995  -8.266  0.00  0.00     0.030 A 
HETATM    3  C   UNK N   1      25.288  21.712  -8.862  0.00  0.00     0.003 A 
HETATM    4  C   UNK N   1      26.374  20.839  -8.651  0.00  0.00     0.015 A 
HETATM    5  C   UNK N   1      27.402  21.268  -7.814  0.00  0.00     0.009 A 
HETATM    6  C   UNK N   1      27.370  22.518  -7.211  0.00  0.00     0.054 A 
HETATM    7  C   UNK N   1      28.654  20.640  -7.411  0.00  0.00     0.075 A 
HETATM    8  C   UNK N   1      29.351  21.444  -6.593  0.00  0.00     0.068 A 
HETATM    9  C   UNK N   1      28.587  22.668  -6.398  0.00  0.00     0.199 A 
HETATM   10  N   UNK N   1      30.454  19.562  -6.942  0.00  0.00    -0.303 N 
HETATM   11  C   UNK N   1      30.501  20.757  -6.289  0.00  0.00     0.046 A 
HETATM   12  O   UNK N   1      28.879  23.611  -5.681  0.00  0.00    -0.286 OA
HETATM   13  N   UNK N   1      29.317  19.495  -7.634  0.00  0.00    -0.299 N 
ATOM     14  HN  UNK N   1      29.009  18.719  -8.220  1.00  0.00     0.187 HD
HETATM   15  H   UNK N   1      31.147  18.863  -6.908  0.00  0.00     0.186 HD
ENDROOT
BRANCH   1  16
HETATM   16  N   UNK N   1      26.385  24.731  -6.934  0.00  0.00    -0.325 N 
HETATM   17  C   UNK N   1      25.689  25.065  -5.813  0.00  0.00     0.250 C 
HETATM   18  O   UNK N   1      25.112  24.199  -5.170  0.00  0.00    -0.271 OA
HETATM   19  H   UNK N   1      26.933  25.407  -7.396  0.00  0.00     0.169 HD
BRANCH  17  20
HETATM   20  C   UNK N   1      25.611  26.476  -5.312  0.00  0.00     0.374 C 
BRANCH  20  21
HETATM   21  N   UNK N   1      26.163  26.692  -3.973  0.00  0.00     0.097 N 
HETATM   22  C   UNK N   1      25.811  28.013  -3.427  0.00  0.00     0.273 C 
HETATM   23  C   UNK N   1      26.372  29.194  -4.238  0.00  0.00     0.036 C 
HETATM   24  C   UNK N   1      27.408  28.752  -5.267  0.00  0.00     0.006 C 
HETATM   25  C   UNK N   1      28.371  27.736  -4.660  0.00  0.00     0.036 C 
HETATM   26  C   UNK N   1      27.626  26.530  -4.047  0.00  0.00     0.273 C 
BRANCH  24  27
HETATM   27  C   UNK N   1      28.126  29.941  -5.888  0.00  0.00     0.115 C 
BRANCH  27  28
HETATM   28  N   UNK N   1      28.174  31.062  -4.963  0.00  0.00    -0.430 N 
HETATM   29  H   UNK N   1      28.522  31.241  -4.021  0.00  0.00     0.149 HD
HETATM   30  H   UNK N   1      27.741  31.894  -5.363  0.00  0.00     0.149 HD
ENDBRANCH  27  28
ENDBRANCH  24  27
ENDBRANCH  20  21
ENDBRANCH  17  20
ENDBRANCH   1  16
BRANCH  11  31
HETATM   31  C   UNK N   1      31.641  21.198  -5.414  0.00  0.00     0.038 C 
HETATM   32  C   UNK N   1      32.563  20.012  -5.118  0.00  0.00     0.011 C 
HETATM   33  C   UNK N   1      33.738  20.439  -4.232  0.00  0.00     0.001 C 
HETATM   34  C   UNK N   1      33.327  21.302  -3.029  0.00  0.00     0.000 C 
HETATM   35  C   UNK N   1      31.814  21.384  -2.851  0.00  0.00     0.001 C 
HETATM   36  C   UNK N   1      31.159  21.904  -4.131  0.00  0.00     0.011 C 
ENDBRANCH  11  31
TORSDOF 6
ENDMDL
MODEL 8
REMARK VINA RESULT:      -7.3      3.556      6.985
REMARK  6 active torsions:
REMARK  status: ('A' for Active; 'I' for Inactive)
REMARK    1  A    between atoms: N_1  and  C_2 
REMARK    2  A    between atoms: C_2  and  C_3 
REMARK    3  A    between atoms: N_6  and  C_9 
REMARK    4  A    between atoms: C_9  and  C_10 
REMARK       I    between atoms: C_10  and  N_11 
REMARK    5  A    between atoms: N_11  and  C_12 
REMARK    6  A    between atoms: C_22  and  C_23 
ROOT
HETATM    1  C   UNK N   1      36.295  12.954  15.839  0.00  0.00     0.050 A 
HETATM    2  C   UNK N   1      35.531  13.435  16.917  0.00  0.00     0.030 A 
HETATM    3  C   UNK N   1      35.131  12.556  17.950  0.00  0.00     0.003 A 
HETATM    4  C   UNK N   1      35.469  11.188  17.907  0.00  0.00     0.015 A 
HETATM    5  C   UNK N   1      36.236  10.741  16.833  0.00  0.00     0.009 A 
HETATM    6  C   UNK N   1      36.648  11.606  15.829  0.00  0.00     0.054 A 
HETATM    7  C   UNK N   1      36.729   9.417  16.475  0.00  0.00     0.075 A 
HETATM    8  C   UNK N   1      37.420   9.459  15.326  0.00  0.00     0.068 A 
HETATM    9  C   UNK N   1      37.433  10.835  14.851  0.00  0.00     0.199 A 
HETATM   10  N   UNK N   1      37.354   7.393  16.107  0.00  0.00    -0.303 N 
HETATM   11  C   UNK N   1      37.824   8.167  15.088  0.00  0.00     0.046 A 
HETATM   12  O   UNK N   1      38.004  11.268  13.863  0.00  0.00    -0.286 OA
HETATM   13  N   UNK N   1      36.678   8.166  16.957  0.00  0.00    -0.299 N 
ATOM     14  HN  UNK N   1      36.212   7.862  17.812  1.00  0.00     0.187 HD
HETATM   15  H   UNK N   1      37.491   6.422  16.199  0.00  0.00     0.186 HD
ENDROOT
BRANCH   1  16
HETATM   16  N   UNK N   1      36.595  13.780  14.727  0.00  0.00    -0.325 N 
HETATM   17  C   UNK N   1      35.718  13.862  13.689  0.00  0.00     0.250 C 
HETATM   18  O   UNK N   1      34.621  13.327  13.770  0.00  0.00    -0.271 OA
HETATM   19  H   UNK N   1      37.436  14.293  14.706  0.00  0.00     0.169 HD
BRANCH  17  20
HETATM   20  C   UNK N   1      36.038  14.612  12.431  0.00  0.00     0.374 C 
BRANCH  20  21
HETATM   21  N   UNK N   1      36.724  13.831  11.399  0.00  0.00     0.097 N 
HETATM   22  C   UNK N   1      36.958  14.607  10.170  0.00  0.00     0.273 C 
HETATM   23  C   UNK N   1      35.669  15.069   9.469  0.00  0.00     0.036 C 
HETATM   24  C   UNK N   1      34.425  14.388  10.032  0.00  0.00     0.006 C 
HETATM   25  C   UNK N   1      34.672  12.896  10.236  0.00  0.00     0.036 C 
HETATM   26  C   UNK N   1      35.914  12.633  11.116  0.00  0.00     0.273 C 
BRANCH  24  27
HETATM   27  C   UNK N   1      33.197  14.666   9.177  0.00  0.00     0.115 C 
BRANCH  27  28
HETATM   28  N   UNK N   1      32.063  15.050  10.002  0.00  0.00    -0.430 N 
HETATM   29  H   UNK N   1      31.329  15.759   9.983  0.00  0.00     0.149 HD
HETATM   30  H   UNK N   1      31.979  14.449  10.822  0.00  0.00     0.149 HD
ENDBRANCH  27  28
ENDBRANCH  24  27
ENDBRANCH  20  21
ENDBRANCH  17  20
ENDBRANCH   1  16
BRANCH  11  31
HETATM   31  C   UNK N   1      38.627   7.643  13.930  0.00  0.00     0.038 C 
HETATM   32  C   UNK N   1      40.060   8.174  14.002  0.00  0.00     0.011 C 
HETATM   33  C   UNK N   1      40.900   7.647  12.834  0.00  0.00     0.001 C 
HETATM   34  C   UNK N   1      40.200   7.752  11.470  0.00  0.00     0.000 C 
HETATM   35  C   UNK N   1      38.899   8.547  11.534  0.00  0.00     0.001 C 
HETATM   36  C   UNK N   1      37.958   7.936  12.572  0.00  0.00     0.011 C 
ENDBRANCH  11  31
TORSDOF 6
ENDMDL
MODEL 9
REMARK VINA RESULT:      -7.2      3.996      7.750
REMARK  6 active torsions:
REMARK  status: ('A' for Active; 'I' for Inactive)
REMARK    1  A    between atoms: N_1  and  C_2 
REMARK    2  A    between atoms: C_2  and  C_3 
REMARK    3  A    between atoms: N_6  and  C_9 
REMARK    4  A    between atoms: C_9  and  C_10 
REMARK       I    between atoms: C_10  and  N_11 
REMARK    5  A    between atoms: N_11  and  C_12 
REMARK    6  A    between atoms: C_22  and  C_23 
ROOT
HETATM    1  C   UNK N   1      35.336  12.795  16.754  0.00  0.00     0.050 A 
HETATM    2  C   UNK N   1      35.027  13.780  17.708  0.00  0.00     0.030 A 
HETATM    3  C   UNK N   1      35.061  13.468  19.087  0.00  0.00     0.003 A 
HETATM    4  C   UNK N   1      35.383  12.167  19.525  0.00  0.00     0.015 A 
HETATM    5  C   UNK N   1      35.696  11.213  18.559  0.00  0.00     0.009 A 
HETATM    6  C   UNK N   1      35.684  11.523  17.206  0.00  0.00     0.054 A 
HETATM    7  C   UNK N   1      36.042   9.802  18.663  0.00  0.00     0.075 A 
HETATM    8  C   UNK N   1      36.248   9.269  17.449  0.00  0.00     0.068 A 
HETATM    9  C   UNK N   1      36.056  10.314  16.454  0.00  0.00     0.199 A 
HETATM   10  N   UNK N   1      36.518   7.735  19.016  0.00  0.00    -0.303 N 
HETATM   11  C   UNK N   1      36.556   7.948  17.670  0.00  0.00     0.046 A 
HETATM   12  O   UNK N   1      36.204  10.218  15.247  0.00  0.00    -0.286 OA
HETATM   13  N   UNK N   1      36.199   8.877  19.624  0.00  0.00    -0.299 N 
ATOM     14  HN  UNK N   1      36.094   9.021  20.628  1.00  0.00     0.187 HD
HETATM   15  H   UNK N   1      36.697   6.877  19.465  0.00  0.00     0.186 HD
ENDROOT
BRANCH   1  16
HETATM   16  N   UNK N   1      35.180  13.043  15.367  0.00  0.00    -0.325 N 
HETATM   17  C   UNK N   1      36.190  13.631  14.669  0.00  0.00     0.250 C 
HETATM   18  O   UNK N   1      37.271  13.829  15.205  0.00  0.00    -0.271 OA
HETATM   19  H   UNK N   1      34.344  12.790  14.911  0.00  0.00     0.169 HD
BRANCH  17  20
HETATM   20  C   UNK N   1      36.035  14.039  13.234  0.00  0.00     0.374 C 
BRANCH  20  21
HETATM   21  N   UNK N   1      36.301  12.983  12.255  0.00  0.00     0.097 N 
HETATM   22  C   UNK N   1      37.326  13.373  11.273  0.00  0.00     0.273 C 
HETATM   23  C   UNK N   1      36.929  14.576  10.400  0.00  0.00     0.036 C 
HETATM   24  C   UNK N   1      35.452  14.932  10.537  0.00  0.00     0.006 C 
HETATM   25  C   UNK N   1      34.590  13.672  10.513  0.00  0.00     0.036 C 
HETATM   26  C   UNK N   1      35.032  12.650  11.583  0.00  0.00     0.273 C 
BRANCH  24  27
HETATM   27  C   UNK N   1      35.021  15.956   9.497  0.00  0.00     0.115 C 
BRANCH  27  28
HETATM   28  N   UNK N   1      34.750  17.244  10.115  0.00  0.00    -0.430 N 
HETATM   29  H   UNK N   1      35.250  17.914  10.698  0.00  0.00     0.149 HD
HETATM   30  H   UNK N   1      33.802  17.562   9.911  0.00  0.00     0.149 HD
ENDBRANCH  27  28
ENDBRANCH  24  27
ENDBRANCH  20  21
ENDBRANCH  17  20
ENDBRANCH   1  16
BRANCH  11  31
HETATM   31  C   UNK N   1      36.871   6.886  16.655  0.00  0.00     0.038 C 
HETATM   32  C   UNK N   1      38.124   7.271  15.865  0.00  0.00     0.011 C 
HETATM   33  C   UNK N   1      38.470   6.198  14.827  0.00  0.00     0.001 C 
HETATM   34  C   UNK N   1      37.264   5.720  14.004  0.00  0.00     0.000 C 
HETATM   35  C   UNK N   1      36.013   6.558  14.249  0.00  0.00     0.001 C 
HETATM   36  C   UNK N   1      35.671   6.573  15.739  0.00  0.00     0.011 C 
ENDBRANCH  11  31
TORSDOF 6
ENDMDL
