REMARK  7 active torsions:
REMARK  status: ('A' for Active; 'I' for Inactive)
REMARK    1  A    between atoms: C_2  and  C_5 
REMARK    2  A    between atoms: C_5  and  O_7 
REMARK    3  A    between atoms: C_5  and  C_8 
REMARK    4  A    between atoms: C_11  and  C_14 
REMARK       I    between atoms: C_14  and  N_16 
REMARK    5  A    between atoms: N_16  and  C_17 
REMARK    6  A    between atoms: C_20  and  N_16 
REMARK    7  A    between atoms: C_23  and  C_26 
ROOT
HETATM    1  C   UNK N   1       0.485   0.808  -0.165  0.00  0.00     0.254 C 
HETATM    2  O   UNK N   1       0.475   2.028  -0.251  0.00  0.00    -0.267 OA
HETATM    3  N   UNK N   1      -0.577   0.043  -0.646  0.00  0.00    -0.339 N 
ENDROOT
BRANCH   3   4
HETATM    4  C   UNK N   1      -0.351  -1.407  -0.814  0.00  0.00     0.088 A 
HETATM    5  C   UNK N   1      -0.484  -2.127   0.527  0.00  0.00     0.027 A 
HETATM    6  C   UNK N   1      -1.547  -2.306  -0.511  0.00  0.00     0.027 A 
ENDBRANCH   3   4
BRANCH   3   7
HETATM    7  C   UNK N   1      -1.765   0.652  -1.306  0.00  0.00     0.088 C 
HETATM    8  C   UNK N   1      -3.094  -0.018  -0.922  0.00  0.00     0.026 C 
HETATM    9  C   UNK N   1      -3.445   0.228   0.542  0.00  0.00     0.011 C 
HETATM   10  C   UNK N   1      -3.608   1.725   0.820  0.00  0.00     0.020 C 
HETATM   11  C   UNK N   1      -2.325   2.455   0.391  0.00  0.00     0.011 C 
HETATM   12  C   UNK N   1      -1.969   2.161  -1.075  0.00  0.00     0.026 C 
BRANCH  10  13
HETATM   13  C   UNK N   1      -4.866   2.284   0.181  0.00  0.00    -0.039 A 
HETATM   14  C   UNK N   1      -6.112   1.726   0.493  0.00  0.00     0.010 A 
HETATM   15  C   UNK N   1      -7.275   2.251  -0.073  0.00  0.00     0.018 A 
HETATM   16  C   UNK N   1      -7.182   3.339  -0.942  0.00  0.00     0.087 A 
HETATM   17  N   UNK N   1      -5.969   3.878  -1.235  0.00  0.00    -0.375 N 
HETATM   18  C   UNK N   1      -4.823   3.379  -0.697  0.00  0.00     0.095 A 
ATOM     19  HN  UNK N   1      -5.916   4.674  -1.871  1.00  0.00     0.164 HD
ENDBRANCH  10  13
ENDBRANCH   3   7
BRANCH   1  20
HETATM   20  C   UNK N   1       1.741   0.176   0.287  0.00  0.00     0.032 A 
HETATM   21  C   UNK N   1       1.768  -0.626   1.431  0.00  0.00     0.017 A 
HETATM   22  C   UNK N   1       2.895  -1.388   1.728  0.00  0.00     0.011 A 
HETATM   23  C   UNK N   1       4.007  -1.379   0.873  0.00  0.00    -0.015 A 
HETATM   24  C   UNK N   1       3.993  -0.531  -0.250  0.00  0.00     0.011 A 
HETATM   25  C   UNK N   1       2.874   0.257  -0.528  0.00  0.00     0.017 A 
BRANCH  23  26
HETATM   26  C   UNK N   1       5.085  -2.432   1.067  0.00  0.00     0.179 C 
HETATM   27  C   UNK N   1       6.064  -1.974   2.137  0.00  0.00     0.061 C 
BRANCH  26  28
HETATM   28  C   UNK N   1       5.832  -2.786  -0.238  0.00  0.00     0.422 C 
HETATM   29  F   UNK N   1       4.920  -3.102  -1.233  0.00  0.00    -0.167 F 
HETATM   30  F   UNK N   1       6.619  -1.732  -0.668  0.00  0.00    -0.167 F 
HETATM   31  F   UNK N   1       6.641  -3.890  -0.032  0.00  0.00    -0.167 F 
ENDBRANCH  26  28
BRANCH  26  32
HETATM   32  O   UNK N   1       4.471  -3.606   1.517  0.00  0.00    -0.376 OA
HETATM   33  H   UNK N   1       3.553  -3.644   1.829  0.00  0.00     0.211 HD
ENDBRANCH  26  32
ENDBRANCH  23  26
ENDBRANCH   1  20
TORSDOF 7
