MODEL 1
REMARK VINA RESULT:      -7.7      0.000      0.000
REMARK  7 active torsions:
REMARK  status: ('A' for Active; 'I' for Inactive)
REMARK    1  A    between atoms: C_2  and  C_5 
REMARK    2  A    between atoms: C_5  and  O_7 
REMARK    3  A    between atoms: C_5  and  C_8 
REMARK    4  A    between atoms: C_11  and  C_14 
REMARK       I    between atoms: C_14  and  N_16 
REMARK    5  A    between atoms: N_16  and  C_17 
REMARK    6  A    between atoms: C_20  and  N_16 
REMARK    7  A    between atoms: C_23  and  C_26 
ROOT
HETATM    1  C   UNK N   1      36.390  14.140  12.792  0.00  0.00     0.254 C 
HETATM    2  O   UNK N   1      36.470  15.097  13.549  0.00  0.00    -0.267 OA
HETATM    3  N   UNK N   1      36.739  12.857  13.213  0.00  0.00    -0.339 N 
ENDROOT
BRANCH   3   4
HETATM    4  C   UNK N   1      36.304  11.722  12.373  0.00  0.00     0.088 A 
HETATM    5  C   UNK N   1      37.316  11.465  11.258  0.00  0.00     0.027 A 
HETATM    6  C   UNK N   1      37.211  10.495  12.393  0.00  0.00     0.027 A 
ENDBRANCH   3   4
BRANCH   3   7
HETATM    7  C   UNK N   1      37.205  12.570  14.598  0.00  0.00     0.088 C 
HETATM    8  C   UNK N   1      36.646  13.543  15.650  0.00  0.00     0.026 C 
HETATM    9  C   UNK N   1      35.142  13.371  15.831  0.00  0.00     0.011 C 
HETATM   10  C   UNK N   1      34.809  11.957  16.316  0.00  0.00     0.020 C 
HETATM   11  C   UNK N   1      35.403  10.938  15.330  0.00  0.00     0.011 C 
HETATM   12  C   UNK N   1      36.912  11.156  15.132  0.00  0.00     0.026 C 
BRANCH  10  13
HETATM   13  C   UNK N   1      35.245  11.736  17.753  0.00  0.00    -0.039 A 
HETATM   14  C   UNK N   1      35.769  10.495  18.138  0.00  0.00     0.010 A 
HETATM   15  C   UNK N   1      36.193  10.293  19.452  0.00  0.00     0.018 A 
HETATM   16  C   UNK N   1      36.098  11.340  20.371  0.00  0.00     0.087 A 
HETATM   17  N   UNK N   1      35.594  12.542  19.987  0.00  0.00    -0.375 N 
HETATM   18  C   UNK N   1      35.171  12.759  18.712  0.00  0.00     0.095 A 
ATOM     19  HN  UNK N   1      35.531  13.299  20.669  1.00  0.00     0.164 HD
ENDBRANCH  10  13
ENDBRANCH   3   7
BRANCH   1  20
HETATM   20  C   UNK N   1      35.730  14.366  11.491  0.00  0.00     0.032 A 
HETATM   21  C   UNK N   1      34.347  14.551  11.411  0.00  0.00     0.017 A 
HETATM   22  C   UNK N   1      33.763  14.976  10.221  0.00  0.00     0.011 A 
HETATM   23  C   UNK N   1      34.554  15.244   9.094  0.00  0.00    -0.015 A 
HETATM   24  C   UNK N   1      35.940  15.007   9.166  0.00  0.00     0.011 A 
HETATM   25  C   UNK N   1      36.519  14.550  10.351  0.00  0.00     0.017 A 
BRANCH  23  26
HETATM   26  C   UNK N   1      33.928  15.978   7.920  0.00  0.00     0.179 C 
HETATM   27  C   UNK N   1      34.719  15.690   6.653  0.00  0.00     0.061 C 
BRANCH  26  28
HETATM   28  C   UNK N   1      33.805  17.501   8.150  0.00  0.00     0.422 C 
HETATM   29  F   UNK N   1      32.629  17.782   8.828  0.00  0.00    -0.167 F 
HETATM   30  F   UNK N   1      34.873  17.986   8.883  0.00  0.00    -0.167 F 
HETATM   31  F   UNK N   1      33.765  18.158   6.933  0.00  0.00    -0.167 F 
ENDBRANCH  26  28
BRANCH  26  32
HETATM   32  O   UNK N   1      32.631  15.486   7.741  0.00  0.00    -0.376 OA
HETATM   33  H   UNK N   1      32.368  14.578   7.960  0.00  0.00     0.211 HD
ENDBRANCH  26  32
ENDBRANCH  23  26
ENDBRANCH   1  20
TORSDOF 7
ENDMDL
MODEL 2
REMARK VINA RESULT:      -7.3      8.664     13.824
REMARK  7 active torsions:
REMARK  status: ('A' for Active; 'I' for Inactive)
REMARK    1  A    between atoms: C_2  and  C_5 
REMARK    2  A    between atoms: C_5  and  O_7 
REMARK    3  A    between atoms: C_5  and  C_8 
REMARK    4  A    between atoms: C_11  and  C_14 
REMARK       I    between atoms: C_14  and  N_16 
REMARK    5  A    between atoms: N_16  and  C_17 
REMARK    6  A    between atoms: C_20  and  N_16 
REMARK    7  A    between atoms: C_23  and  C_26 
ROOT
HETATM    1  C   UNK N   1      28.511  17.765   4.433  0.00  0.00     0.254 C 
HETATM    2  O   UNK N   1      28.289  18.965   4.355  0.00  0.00    -0.267 OA
HETATM    3  N   UNK N   1      27.654  16.834   3.846  0.00  0.00    -0.339 N 
ENDROOT
BRANCH   3   4
HETATM    4  C   UNK N   1      28.152  15.452   3.691  0.00  0.00     0.088 A 
HETATM    5  C   UNK N   1      27.883  14.943   2.276  0.00  0.00     0.027 A 
HETATM    6  C   UNK N   1      29.286  15.263   2.687  0.00  0.00     0.027 A 
ENDBRANCH   3   4
BRANCH   3   7
HETATM    7  C   UNK N   1      26.443  17.237   3.079  0.00  0.00     0.088 C 
HETATM    8  C   UNK N   1      25.346  16.161   3.050  0.00  0.00     0.026 C 
HETATM    9  C   UNK N   1      24.731  15.948   4.430  0.00  0.00     0.011 C 
HETATM   10  C   UNK N   1      24.075  17.235   4.939  0.00  0.00     0.020 C 
HETATM   11  C   UNK N   1      25.116  18.365   4.926  0.00  0.00     0.011 C 
HETATM   12  C   UNK N   1      25.752  18.535   3.536  0.00  0.00     0.026 C 
BRANCH  10  13
HETATM   13  C   UNK N   1      22.810  17.567   4.167  0.00  0.00    -0.039 A 
HETATM   14  C   UNK N   1      21.960  16.536   3.749  0.00  0.00     0.010 A 
HETATM   15  C   UNK N   1      20.783  16.836   3.060  0.00  0.00     0.018 A 
HETATM   16  C   UNK N   1      20.463  18.170   2.803  0.00  0.00     0.087 A 
HETATM   17  N   UNK N   1      21.291  19.165   3.218  0.00  0.00    -0.375 N 
HETATM   18  C   UNK N   1      22.444  18.893   3.887  0.00  0.00     0.095 A 
ATOM     19  HN  UNK N   1      21.044  20.135   3.024  1.00  0.00     0.164 HD
ENDBRANCH  10  13
ENDBRANCH   3   7
BRANCH   1  20
HETATM   20  C   UNK N   1      29.812  17.357   5.000  0.00  0.00     0.032 A 
HETATM   21  C   UNK N   1      31.005  17.637   4.329  0.00  0.00     0.017 A 
HETATM   22  C   UNK N   1      32.230  17.446   4.964  0.00  0.00     0.011 A 
HETATM   23  C   UNK N   1      32.282  16.993   6.290  0.00  0.00    -0.015 A 
HETATM   24  C   UNK N   1      31.079  16.664   6.943  0.00  0.00     0.011 A 
HETATM   25  C   UNK N   1      29.854  16.826   6.293  0.00  0.00     0.017 A 
BRANCH  23  26
HETATM   26  C   UNK N   1      33.601  17.077   7.039  0.00  0.00     0.179 C 
HETATM   27  C   UNK N   1      34.035  15.685   7.474  0.00  0.00     0.061 C 
BRANCH  26  28
HETATM   28  C   UNK N   1      33.554  18.035   8.250  0.00  0.00     0.422 C 
HETATM   29  F   UNK N   1      34.624  18.915   8.197  0.00  0.00    -0.167 F 
HETATM   30  F   UNK N   1      32.376  18.761   8.270  0.00  0.00    -0.167 F 
HETATM   31  F   UNK N   1      33.651  17.312   9.426  0.00  0.00    -0.167 F 
ENDBRANCH  26  28
BRANCH  26  32
HETATM   32  O   UNK N   1      34.569  17.576   6.161  0.00  0.00    -0.376 OA
HETATM   33  H   UNK N   1      34.401  17.748   5.221  0.00  0.00     0.211 HD
ENDBRANCH  26  32
ENDBRANCH  23  26
ENDBRANCH   1  20
TORSDOF 7
ENDMDL
MODEL 3
REMARK VINA RESULT:      -7.3      4.790      7.806
REMARK  7 active torsions:
REMARK  status: ('A' for Active; 'I' for Inactive)
REMARK    1  A    between atoms: C_2  and  C_5 
REMARK    2  A    between atoms: C_5  and  O_7 
REMARK    3  A    between atoms: C_5  and  C_8 
REMARK    4  A    between atoms: C_11  and  C_14 
REMARK       I    between atoms: C_14  and  N_16 
REMARK    5  A    between atoms: N_16  and  C_17 
REMARK    6  A    between atoms: C_20  and  N_16 
REMARK    7  A    between atoms: C_23  and  C_26 
ROOT
HETATM    1  C   UNK N   1      31.903  15.758   7.077  0.00  0.00     0.254 C 
HETATM    2  O   UNK N   1      31.675  14.557   7.027  0.00  0.00    -0.267 OA
HETATM    3  N   UNK N   1      33.169  16.237   7.412  0.00  0.00    -0.339 N 
ENDROOT
BRANCH   3   4
HETATM    4  C   UNK N   1      33.456  17.658   7.127  0.00  0.00     0.088 A 
HETATM    5  C   UNK N   1      33.075  18.530   8.323  0.00  0.00     0.027 A 
HETATM    6  C   UNK N   1      34.521  18.310   8.006  0.00  0.00     0.027 A 
ENDBRANCH   3   4
BRANCH   3   7
HETATM    7  C   UNK N   1      34.314  15.332   7.705  0.00  0.00     0.088 C 
HETATM    8  C   UNK N   1      35.238  15.847   8.820  0.00  0.00     0.026 C 
HETATM    9  C   UNK N   1      34.539  15.843  10.176  0.00  0.00     0.011 C 
HETATM   10  C   UNK N   1      34.121  14.424  10.570  0.00  0.00     0.020 C 
HETATM   11  C   UNK N   1      33.244  13.834   9.453  0.00  0.00     0.011 C 
HETATM   12  C   UNK N   1      33.952  13.885   8.090  0.00  0.00     0.026 C 
BRANCH  10  13
HETATM   13  C   UNK N   1      35.318  13.560  10.921  0.00  0.00    -0.039 A 
HETATM   14  C   UNK N   1      35.310  12.196  10.601  0.00  0.00     0.010 A 
HETATM   15  C   UNK N   1      36.417  11.401  10.900  0.00  0.00     0.018 A 
HETATM   16  C   UNK N   1      37.531  11.980  11.510  0.00  0.00     0.087 A 
HETATM   17  N   UNK N   1      37.532  13.306  11.812  0.00  0.00    -0.375 N 
HETATM   18  C   UNK N   1      36.462  14.098  11.533  0.00  0.00     0.095 A 
ATOM     19  HN  UNK N   1      38.354  13.716  12.257  1.00  0.00     0.164 HD
ENDBRANCH  10  13
ENDBRANCH   3   7
BRANCH   1  20
HETATM   20  C   UNK N   1      30.847  16.664   6.583  0.00  0.00     0.032 A 
HETATM   21  C   UNK N   1      30.693  16.907   5.216  0.00  0.00     0.017 A 
HETATM   22  C   UNK N   1      29.571  17.584   4.744  0.00  0.00     0.011 A 
HETATM   23  C   UNK N   1      28.571  18.010   5.630  0.00  0.00    -0.015 A 
HETATM   24  C   UNK N   1      28.755  17.806   7.011  0.00  0.00     0.011 A 
HETATM   25  C   UNK N   1      29.897  17.156   7.484  0.00  0.00     0.017 A 
BRANCH  23  26
HETATM   26  C   UNK N   1      27.241  18.474   5.061  0.00  0.00     0.179 C 
HETATM   27  C   UNK N   1      26.900  17.660   3.823  0.00  0.00     0.061 C 
BRANCH  26  28
HETATM   28  C   UNK N   1      27.210  19.986   4.744  0.00  0.00     0.422 C 
HETATM   29  F   UNK N   1      25.961  20.506   5.045  0.00  0.00    -0.167 F 
HETATM   30  F   UNK N   1      28.168  20.671   5.469  0.00  0.00    -0.167 F 
HETATM   31  F   UNK N   1      27.444  20.188   3.395  0.00  0.00    -0.167 F 
ENDBRANCH  26  28
BRANCH  26  32
HETATM   32  O   UNK N   1      26.250  18.238   6.020  0.00  0.00    -0.376 OA
HETATM   33  H   UNK N   1      25.509  18.843   6.184  0.00  0.00     0.211 HD
ENDBRANCH  26  32
ENDBRANCH  23  26
ENDBRANCH   1  20
TORSDOF 7
ENDMDL
MODEL 4
REMARK VINA RESULT:      -7.1     18.916     21.761
REMARK  7 active torsions:
REMARK  status: ('A' for Active; 'I' for Inactive)
REMARK    1  A    between atoms: C_2  and  C_5 
REMARK    2  A    between atoms: C_5  and  O_7 
REMARK    3  A    between atoms: C_5  and  C_8 
REMARK    4  A    between atoms: C_11  and  C_14 
REMARK       I    between atoms: C_14  and  N_16 
REMARK    5  A    between atoms: N_16  and  C_17 
REMARK    6  A    between atoms: C_20  and  N_16 
REMARK    7  A    between atoms: C_23  and  C_26 
ROOT
HETATM    1  C   UNK N   1      29.551  22.943  -3.876  0.00  0.00     0.254 C 
HETATM    2  O   UNK N   1      29.715  22.457  -2.766  0.00  0.00    -0.267 OA
HETATM    3  N   UNK N   1      29.907  22.244  -5.029  0.00  0.00    -0.339 N 
ENDROOT
BRANCH   3   4
HETATM    4  C   UNK N   1      29.380  22.739  -6.316  0.00  0.00     0.088 A 
HETATM    5  C   UNK N   1      28.764  21.593  -7.118  0.00  0.00     0.027 A 
HETATM    6  C   UNK N   1      27.869  22.624  -6.505  0.00  0.00     0.027 A 
ENDBRANCH   3   4
BRANCH   3   7
HETATM    7  C   UNK N   1      30.480  20.870  -4.984  0.00  0.00     0.088 C 
HETATM    8  C   UNK N   1      31.252  20.482  -6.255  0.00  0.00     0.026 C 
HETATM    9  C   UNK N   1      32.530  21.301  -6.409  0.00  0.00     0.011 C 
HETATM   10  C   UNK N   1      33.475  21.063  -5.228  0.00  0.00     0.020 C 
HETATM   11  C   UNK N   1      32.729  21.374  -3.921  0.00  0.00     0.011 C 
HETATM   12  C   UNK N   1      31.426  20.568  -3.806  0.00  0.00     0.026 C 
BRANCH  10  13
HETATM   13  C   UNK N   1      34.083  19.673  -5.263  0.00  0.00    -0.039 A 
HETATM   14  C   UNK N   1      34.554  19.149  -6.474  0.00  0.00     0.010 A 
HETATM   15  C   UNK N   1      35.135  17.881  -6.509  0.00  0.00     0.018 A 
HETATM   16  C   UNK N   1      35.249  17.148  -5.326  0.00  0.00     0.087 A 
HETATM   17  N   UNK N   1      34.795  17.666  -4.155  0.00  0.00    -0.375 N 
HETATM   18  C   UNK N   1      34.221  18.899  -4.100  0.00  0.00     0.095 A 
ATOM     19  HN  UNK N   1      34.886  17.120  -3.298  1.00  0.00     0.164 HD
ENDBRANCH  10  13
ENDBRANCH   3   7
BRANCH   1  20
HETATM   20  C   UNK N   1      28.790  24.207  -3.951  0.00  0.00     0.032 A 
HETATM   21  C   UNK N   1      29.263  25.283  -4.707  0.00  0.00     0.017 A 
HETATM   22  C   UNK N   1      28.445  26.384  -4.949  0.00  0.00     0.011 A 
HETATM   23  C   UNK N   1      27.131  26.417  -4.458  0.00  0.00    -0.015 A 
HETATM   24  C   UNK N   1      26.679  25.353  -3.656  0.00  0.00     0.011 A 
HETATM   25  C   UNK N   1      27.512  24.265  -3.388  0.00  0.00     0.017 A 
BRANCH  23  26
HETATM   26  C   UNK N   1      26.183  27.483  -4.982  0.00  0.00     0.179 C 
HETATM   27  C   UNK N   1      25.550  28.226  -3.816  0.00  0.00     0.061 C 
BRANCH  26  28
HETATM   28  C   UNK N   1      25.095  26.920  -5.923  0.00  0.00     0.422 C 
HETATM   29  F   UNK N   1      24.809  25.607  -5.582  0.00  0.00    -0.167 F 
HETATM   30  F   UNK N   1      23.932  27.667  -5.850  0.00  0.00    -0.167 F 
HETATM   31  F   UNK N   1      25.551  26.933  -7.230  0.00  0.00    -0.167 F 
ENDBRANCH  26  28
BRANCH  26  32
HETATM   32  O   UNK N   1      26.930  28.402  -5.726  0.00  0.00    -0.376 OA
HETATM   33  H   UNK N   1      26.739  29.353  -5.748  0.00  0.00     0.211 HD
ENDBRANCH  26  32
ENDBRANCH  23  26
ENDBRANCH   1  20
TORSDOF 7
ENDMDL
MODEL 5
REMARK VINA RESULT:      -7.1      1.480      1.878
REMARK  7 active torsions:
REMARK  status: ('A' for Active; 'I' for Inactive)
REMARK    1  A    between atoms: C_2  and  C_5 
REMARK    2  A    between atoms: C_5  and  O_7 
REMARK    3  A    between atoms: C_5  and  C_8 
REMARK    4  A    between atoms: C_11  and  C_14 
REMARK       I    between atoms: C_14  and  N_16 
REMARK    5  A    between atoms: N_16  and  C_17 
REMARK    6  A    between atoms: C_20  and  N_16 
REMARK    7  A    between atoms: C_23  and  C_26 
ROOT
HETATM    1  C   UNK N   1      36.110  13.499  11.934  0.00  0.00     0.254 C 
HETATM    2  O   UNK N   1      36.788  14.227  12.645  0.00  0.00    -0.267 OA
HETATM    3  N   UNK N   1      35.818  12.189  12.314  0.00  0.00    -0.339 N 
ENDROOT
BRANCH   3   4
HETATM    4  C   UNK N   1      34.737  11.494  11.587  0.00  0.00     0.088 A 
HETATM    5  C   UNK N   1      35.291  10.796  10.346  0.00  0.00     0.027 A 
HETATM    6  C   UNK N   1      34.853   9.973  11.517  0.00  0.00     0.027 A 
ENDBRANCH   3   4
BRANCH   3   7
HETATM    7  C   UNK N   1      36.286  11.609  13.603  0.00  0.00     0.088 C 
HETATM    8  C   UNK N   1      36.637  12.665  14.663  0.00  0.00     0.026 C 
HETATM    9  C   UNK N   1      35.398  13.416  15.141  0.00  0.00     0.011 C 
HETATM   10  C   UNK N   1      34.395  12.456  15.789  0.00  0.00     0.020 C 
HETATM   11  C   UNK N   1      34.058  11.338  14.790  0.00  0.00     0.011 C 
HETATM   12  C   UNK N   1      35.324  10.622  14.291  0.00  0.00     0.026 C 
BRANCH  10  13
HETATM   13  C   UNK N   1      34.890  11.943  17.129  0.00  0.00    -0.039 A 
HETATM   14  C   UNK N   1      35.153  12.847  18.166  0.00  0.00     0.010 A 
HETATM   15  C   UNK N   1      35.585  12.380  19.408  0.00  0.00     0.018 A 
HETATM   16  C   UNK N   1      35.742  11.007  19.606  0.00  0.00     0.087 A 
HETATM   17  N   UNK N   1      35.479  10.137  18.596  0.00  0.00    -0.375 N 
HETATM   18  C   UNK N   1      35.060  10.572  17.376  0.00  0.00     0.095 A 
ATOM     19  HN  UNK N   1      35.597   9.136  18.755  1.00  0.00     0.164 HD
ENDBRANCH  10  13
ENDBRANCH   3   7
BRANCH   1  20
HETATM   20  C   UNK N   1      35.460  14.119  10.762  0.00  0.00     0.032 A 
HETATM   21  C   UNK N   1      34.308  14.896  10.910  0.00  0.00     0.017 A 
HETATM   22  C   UNK N   1      33.828  15.650   9.842  0.00  0.00     0.011 A 
HETATM   23  C   UNK N   1      34.505  15.658   8.614  0.00  0.00    -0.015 A 
HETATM   24  C   UNK N   1      35.635  14.834   8.456  0.00  0.00     0.011 A 
HETATM   25  C   UNK N   1      36.096  14.054   9.518  0.00  0.00     0.017 A 
BRANCH  23  26
HETATM   26  C   UNK N   1      34.127  16.705   7.579  0.00  0.00     0.179 C 
HETATM   27  C   UNK N   1      34.411  18.095   8.128  0.00  0.00     0.061 C 
BRANCH  26  28
HETATM   28  C   UNK N   1      32.660  16.595   7.109  0.00  0.00     0.422 C 
HETATM   29  F   UNK N   1      31.824  17.223   8.019  0.00  0.00    -0.167 F 
HETATM   30  F   UNK N   1      32.486  17.175   5.865  0.00  0.00    -0.167 F 
HETATM   31  F   UNK N   1      32.289  15.264   7.035  0.00  0.00    -0.167 F 
ENDBRANCH  26  28
BRANCH  26  32
HETATM   32  O   UNK N   1      34.933  16.513   6.451  0.00  0.00    -0.376 OA
HETATM   33  H   UNK N   1      35.187  15.638   6.118  0.00  0.00     0.211 HD
ENDBRANCH  26  32
ENDBRANCH  23  26
ENDBRANCH   1  20
TORSDOF 7
ENDMDL
MODEL 6
REMARK VINA RESULT:      -7.1      8.895     14.132
REMARK  7 active torsions:
REMARK  status: ('A' for Active; 'I' for Inactive)
REMARK    1  A    between atoms: C_2  and  C_5 
REMARK    2  A    between atoms: C_5  and  O_7 
REMARK    3  A    between atoms: C_5  and  C_8 
REMARK    4  A    between atoms: C_11  and  C_14 
REMARK       I    between atoms: C_14  and  N_16 
REMARK    5  A    between atoms: N_16  and  C_17 
REMARK    6  A    between atoms: C_20  and  N_16 
REMARK    7  A    between atoms: C_23  and  C_26 
ROOT
HETATM    1  C   UNK N   1      28.188  17.229   4.006  0.00  0.00     0.254 C 
HETATM    2  O   UNK N   1      28.137  16.245   3.283  0.00  0.00    -0.267 OA
HETATM    3  N   UNK N   1      27.159  18.171   4.015  0.00  0.00    -0.339 N 
ENDROOT
BRANCH   3   4
HETATM    4  C   UNK N   1      27.127  19.134   5.135  0.00  0.00     0.088 A 
HETATM    5  C   UNK N   1      28.187  20.216   4.939  0.00  0.00     0.027 A 
HETATM    6  C   UNK N   1      26.742  20.565   4.770  0.00  0.00     0.027 A 
ENDBRANCH   3   4
BRANCH   3   7
HETATM    7  C   UNK N   1      25.939  18.029   3.173  0.00  0.00     0.088 C 
HETATM    8  C   UNK N   1      25.430  16.582   3.066  0.00  0.00     0.026 C 
HETATM    9  C   UNK N   1      24.895  16.074   4.401  0.00  0.00     0.011 C 
HETATM   10  C   UNK N   1      23.713  16.925   4.874  0.00  0.00     0.020 C 
HETATM   11  C   UNK N   1      24.151  18.398   4.937  0.00  0.00     0.011 C 
HETATM   12  C   UNK N   1      24.723  18.876   3.593  0.00  0.00     0.026 C 
BRANCH  10  13
HETATM   13  C   UNK N   1      22.476  16.696   4.024  0.00  0.00    -0.039 A 
HETATM   14  C   UNK N   1      21.557  17.736   3.839  0.00  0.00     0.010 A 
HETATM   15  C   UNK N   1      20.430  17.539   3.040  0.00  0.00     0.018 A 
HETATM   16  C   UNK N   1      20.237  16.303   2.422  0.00  0.00     0.087 A 
HETATM   17  N   UNK N   1      21.137  15.301   2.603  0.00  0.00    -0.375 N 
HETATM   18  C   UNK N   1      22.240  15.471   3.381  0.00  0.00     0.095 A 
ATOM     19  HN  UNK N   1      20.984  14.402   2.145  1.00  0.00     0.164 HD
ENDBRANCH  10  13
ENDBRANCH   3   7
BRANCH   1  20
HETATM   20  C   UNK N   1      29.279  17.278   5.001  0.00  0.00     0.032 A 
HETATM   21  C   UNK N   1      29.045  16.946   6.338  0.00  0.00     0.017 A 
HETATM   22  C   UNK N   1      30.111  16.784   7.218  0.00  0.00     0.011 A 
HETATM   23  C   UNK N   1      31.433  16.930   6.771  0.00  0.00    -0.015 A 
HETATM   24  C   UNK N   1      31.660  17.314   5.436  0.00  0.00     0.011 A 
HETATM   25  C   UNK N   1      30.587  17.507   4.563  0.00  0.00     0.017 A 
BRANCH  23  26
HETATM   26  C   UNK N   1      32.564  16.463   7.672  0.00  0.00     0.179 C 
HETATM   27  C   UNK N   1      31.995  15.685   8.849  0.00  0.00     0.061 C 
BRANCH  26  28
HETATM   28  C   UNK N   1      33.463  17.617   8.167  0.00  0.00     0.422 C 
HETATM   29  F   UNK N   1      32.711  18.773   8.313  0.00  0.00    -0.167 F 
HETATM   30  F   UNK N   1      34.053  17.309   9.381  0.00  0.00    -0.167 F 
HETATM   31  F   UNK N   1      34.460  17.868   7.240  0.00  0.00    -0.167 F 
ENDBRANCH  26  28
BRANCH  26  32
HETATM   32  O   UNK N   1      33.379  15.597   6.935  0.00  0.00    -0.376 OA
HETATM   33  H   UNK N   1      34.223  15.866   6.538  0.00  0.00     0.211 HD
ENDBRANCH  26  32
ENDBRANCH  23  26
ENDBRANCH   1  20
TORSDOF 7
ENDMDL
MODEL 7
REMARK VINA RESULT:      -6.9      5.995     11.459
REMARK  7 active torsions:
REMARK  status: ('A' for Active; 'I' for Inactive)
REMARK    1  A    between atoms: C_2  and  C_5 
REMARK    2  A    between atoms: C_5  and  O_7 
REMARK    3  A    between atoms: C_5  and  C_8 
REMARK    4  A    between atoms: C_11  and  C_14 
REMARK       I    between atoms: C_14  and  N_16 
REMARK    5  A    between atoms: N_16  and  C_17 
REMARK    6  A    between atoms: C_20  and  N_16 
REMARK    7  A    between atoms: C_23  and  C_26 
ROOT
HETATM    1  C   UNK N   1      31.835  17.100   6.713  0.00  0.00     0.254 C 
HETATM    2  O   UNK N   1      32.274  16.981   5.578  0.00  0.00    -0.267 OA
HETATM    3  N   UNK N   1      30.501  17.441   6.938  0.00  0.00    -0.339 N 
ENDROOT
BRANCH   3   4
HETATM    4  C   UNK N   1      29.967  17.238   8.300  0.00  0.00     0.088 A 
HETATM    5  C   UNK N   1      30.325  18.422   9.196  0.00  0.00     0.027 A 
HETATM    6  C   UNK N   1      28.907  18.238   8.755  0.00  0.00     0.027 A 
ENDBRANCH   3   4
BRANCH   3   7
HETATM    7  C   UNK N   1      29.534  17.657   5.827  0.00  0.00     0.088 C 
HETATM    8  C   UNK N   1      29.825  16.803   4.582  0.00  0.00     0.026 C 
HETATM    9  C   UNK N   1      29.596  15.319   4.853  0.00  0.00     0.011 C 
HETATM   10  C   UNK N   1      28.138  15.054   5.240  0.00  0.00     0.020 C 
HETATM   11  C   UNK N   1      27.774  15.935   6.445  0.00  0.00     0.011 C 
HETATM   12  C   UNK N   1      28.050  17.421   6.165  0.00  0.00     0.026 C 
BRANCH  10  13
HETATM   13  C   UNK N   1      27.201  15.224   4.059  0.00  0.00    -0.039 A 
HETATM   14  C   UNK N   1      25.886  15.656   4.271  0.00  0.00     0.010 A 
HETATM   15  C   UNK N   1      25.025  15.837   3.186  0.00  0.00     0.018 A 
HETATM   16  C   UNK N   1      25.492  15.592   1.894  0.00  0.00     0.087 A 
HETATM   17  N   UNK N   1      26.772  15.177   1.697  0.00  0.00    -0.375 N 
HETATM   18  C   UNK N   1      27.625  14.991   2.741  0.00  0.00     0.095 A 
ATOM     19  HN  UNK N   1      27.100  15.003   0.747  1.00  0.00     0.164 HD
ENDBRANCH  10  13
ENDBRANCH   3   7
BRANCH   1  20
HETATM   20  C   UNK N   1      32.716  16.682   7.822  0.00  0.00     0.032 A 
HETATM   21  C   UNK N   1      32.748  15.351   8.249  0.00  0.00     0.017 A 
HETATM   22  C   UNK N   1      33.728  14.923   9.140  0.00  0.00     0.011 A 
HETATM   23  C   UNK N   1      34.709  15.813   9.602  0.00  0.00    -0.015 A 
HETATM   24  C   UNK N   1      34.641  17.162   9.209  0.00  0.00     0.011 A 
HETATM   25  C   UNK N   1      33.637  17.597   8.341  0.00  0.00     0.017 A 
BRANCH  23  26
HETATM   26  C   UNK N   1      35.919  15.251  10.329  0.00  0.00     0.179 C 
HETATM   27  C   UNK N   1      36.750  14.412   9.370  0.00  0.00     0.061 C 
BRANCH  26  28
HETATM   28  C   UNK N   1      35.550  14.435  11.587  0.00  0.00     0.422 C 
HETATM   29  F   UNK N   1      35.519  13.083  11.280  0.00  0.00    -0.167 F 
HETATM   30  F   UNK N   1      36.461  14.643  12.607  0.00  0.00    -0.167 F 
HETATM   31  F   UNK N   1      34.292  14.801  12.033  0.00  0.00    -0.167 F 
ENDBRANCH  26  28
BRANCH  26  32
HETATM   32  O   UNK N   1      36.707  16.326  10.757  0.00  0.00    -0.376 OA
HETATM   33  H   UNK N   1      36.466  16.905  11.497  0.00  0.00     0.211 HD
ENDBRANCH  26  32
ENDBRANCH  23  26
ENDBRANCH   1  20
TORSDOF 7
ENDMDL
MODEL 8
REMARK VINA RESULT:      -6.8      2.603      3.332
REMARK  7 active torsions:
REMARK  status: ('A' for Active; 'I' for Inactive)
REMARK    1  A    between atoms: C_2  and  C_5 
REMARK    2  A    between atoms: C_5  and  O_7 
REMARK    3  A    between atoms: C_5  and  C_8 
REMARK    4  A    between atoms: C_11  and  C_14 
REMARK       I    between atoms: C_14  and  N_16 
REMARK    5  A    between atoms: N_16  and  C_17 
REMARK    6  A    between atoms: C_20  and  N_16 
REMARK    7  A    between atoms: C_23  and  C_26 
ROOT
HETATM    1  C   UNK N   1      35.710  14.307  12.318  0.00  0.00     0.254 C 
HETATM    2  O   UNK N   1      35.329  14.421  13.474  0.00  0.00    -0.267 OA
HETATM    3  N   UNK N   1      36.568  13.275  11.941  0.00  0.00    -0.339 N 
ENDROOT
BRANCH   3   4
HETATM    4  C   UNK N   1      36.712  13.001  10.496  0.00  0.00     0.088 A 
HETATM    5  C   UNK N   1      37.804  13.882   9.892  0.00  0.00     0.027 A 
HETATM    6  C   UNK N   1      38.053  12.416  10.060  0.00  0.00     0.027 A 
ENDBRANCH   3   4
BRANCH   3   7
HETATM    7  C   UNK N   1      37.053  12.248  12.904  0.00  0.00     0.088 C 
HETATM    8  C   UNK N   1      36.185  12.129  14.167  0.00  0.00     0.026 C 
HETATM    9  C   UNK N   1      34.803  11.567  13.848  0.00  0.00     0.011 C 
HETATM   10  C   UNK N   1      34.910  10.161  13.252  0.00  0.00     0.020 C 
HETATM   11  C   UNK N   1      35.825  10.210  12.017  0.00  0.00     0.011 C 
HETATM   12  C   UNK N   1      37.197  10.817  12.353  0.00  0.00     0.026 C 
BRANCH  10  13
HETATM   13  C   UNK N   1      35.345   9.140  14.287  0.00  0.00    -0.039 A 
HETATM   14  C   UNK N   1      35.164   9.410  15.649  0.00  0.00     0.010 A 
HETATM   15  C   UNK N   1      35.540   8.465  16.606  0.00  0.00     0.018 A 
HETATM   16  C   UNK N   1      36.086   7.251  16.190  0.00  0.00     0.087 A 
HETATM   17  N   UNK N   1      36.253   6.994  14.865  0.00  0.00    -0.375 N 
HETATM   18  C   UNK N   1      35.897   7.903  13.917  0.00  0.00     0.095 A 
ATOM     19  HN  UNK N   1      36.652   6.101  14.575  1.00  0.00     0.164 HD
ENDBRANCH  10  13
ENDBRANCH   3   7
BRANCH   1  20
HETATM   20  C   UNK N   1      35.074  15.180  11.311  0.00  0.00     0.032 A 
HETATM   21  C   UNK N   1      35.644  16.408  10.964  0.00  0.00     0.017 A 
HETATM   22  C   UNK N   1      35.164  17.121   9.869  0.00  0.00     0.011 A 
HETATM   23  C   UNK N   1      34.119  16.608   9.087  0.00  0.00    -0.015 A 
HETATM   24  C   UNK N   1      33.515  15.397   9.471  0.00  0.00     0.011 A 
HETATM   25  C   UNK N   1      33.977  14.699  10.589  0.00  0.00     0.017 A 
BRANCH  23  26
HETATM   26  C   UNK N   1      33.823  17.260   7.747  0.00  0.00     0.179 C 
HETATM   27  C   UNK N   1      32.379  17.738   7.716  0.00  0.00     0.061 C 
BRANCH  26  28
HETATM   28  C   UNK N   1      34.117  16.338   6.543  0.00  0.00     0.422 C 
HETATM   29  F   UNK N   1      35.328  15.690   6.730  0.00  0.00    -0.167 F 
HETATM   30  F   UNK N   1      33.121  15.392   6.380  0.00  0.00    -0.167 F 
HETATM   31  F   UNK N   1      34.209  17.091   5.385  0.00  0.00    -0.167 F 
ENDBRANCH  26  28
BRANCH  26  32
HETATM   32  O   UNK N   1      34.652  18.380   7.615  0.00  0.00    -0.376 OA
HETATM   33  H   UNK N   1      34.378  19.280   7.856  0.00  0.00     0.211 HD
ENDBRANCH  26  32
ENDBRANCH  23  26
ENDBRANCH   1  20
TORSDOF 7
ENDMDL
MODEL 9
REMARK VINA RESULT:      -6.8      3.219      5.481
REMARK  7 active torsions:
REMARK  status: ('A' for Active; 'I' for Inactive)
REMARK    1  A    between atoms: C_2  and  C_5 
REMARK    2  A    between atoms: C_5  and  O_7 
REMARK    3  A    between atoms: C_5  and  C_8 
REMARK    4  A    between atoms: C_11  and  C_14 
REMARK       I    between atoms: C_14  and  N_16 
REMARK    5  A    between atoms: N_16  and  C_17 
REMARK    6  A    between atoms: C_20  and  N_16 
REMARK    7  A    between atoms: C_23  and  C_26 
ROOT
HETATM    1  C   UNK N   1      34.577  16.214   8.556  0.00  0.00     0.254 C 
HETATM    2  O   UNK N   1      34.407  16.995   9.481  0.00  0.00    -0.267 OA
HETATM    3  N   UNK N   1      35.540  15.208   8.630  0.00  0.00    -0.339 N 
ENDROOT
BRANCH   3   4
HETATM    4  C   UNK N   1      35.461  14.114   7.640  0.00  0.00     0.088 A 
HETATM    5  C   UNK N   1      36.051  14.560   6.303  0.00  0.00     0.027 A 
HETATM    6  C   UNK N   1      36.797  13.570   7.142  0.00  0.00     0.027 A 
ENDBRANCH   3   4
BRANCH   3   7
HETATM    7  C   UNK N   1      36.397  15.009   9.832  0.00  0.00     0.088 C 
HETATM    8  C   UNK N   1      35.696  15.365  11.153  0.00  0.00     0.026 C 
HETATM    9  C   UNK N   1      34.563  14.393  11.467  0.00  0.00     0.011 C 
HETATM   10  C   UNK N   1      35.095  12.966  11.619  0.00  0.00     0.020 C 
HETATM   11  C   UNK N   1      35.864  12.581  10.345  0.00  0.00     0.011 C 
HETATM   12  C   UNK N   1      36.974  13.595  10.026  0.00  0.00     0.026 C 
BRANCH  10  13
HETATM   13  C   UNK N   1      35.906  12.798  12.891  0.00  0.00    -0.039 A 
HETATM   14  C   UNK N   1      35.490  13.429  14.070  0.00  0.00     0.010 A 
HETATM   15  C   UNK N   1      36.219  13.260  15.249  0.00  0.00     0.018 A 
HETATM   16  C   UNK N   1      37.355  12.450  15.240  0.00  0.00     0.087 A 
HETATM   17  N   UNK N   1      37.749  11.836  14.092  0.00  0.00    -0.375 N 
HETATM   18  C   UNK N   1      37.055  11.992  12.932  0.00  0.00     0.095 A 
ATOM     19  HN  UNK N   1      38.581  11.246  14.101  1.00  0.00     0.164 HD
ENDBRANCH  10  13
ENDBRANCH   3   7
BRANCH   1  20
HETATM   20  C   UNK N   1      33.599  16.257   7.451  0.00  0.00     0.032 A 
HETATM   21  C   UNK N   1      32.438  15.480   7.491  0.00  0.00     0.017 A 
HETATM   22  C   UNK N   1      31.423  15.685   6.560  0.00  0.00     0.011 A 
HETATM   23  C   UNK N   1      31.542  16.687   5.585  0.00  0.00    -0.015 A 
HETATM   24  C   UNK N   1      32.734  17.431   5.518  0.00  0.00     0.011 A 
HETATM   25  C   UNK N   1      33.764  17.202   6.433  0.00  0.00     0.017 A 
BRANCH  23  26
HETATM   26  C   UNK N   1      30.310  17.075   4.784  0.00  0.00     0.179 C 
HETATM   27  C   UNK N   1      29.118  17.225   5.716  0.00  0.00     0.061 C 
BRANCH  26  28
HETATM   28  C   UNK N   1      29.988  16.084   3.644  0.00  0.00     0.422 C 
HETATM   29  F   UNK N   1      31.164  15.567   3.121  0.00  0.00    -0.167 F 
HETATM   30  F   UNK N   1      29.199  15.040   4.094  0.00  0.00    -0.167 F 
HETATM   31  F   UNK N   1      29.319  16.740   2.625  0.00  0.00    -0.167 F 
ENDBRANCH  26  28
BRANCH  26  32
HETATM   32  O   UNK N   1      30.553  18.318   4.188  0.00  0.00    -0.376 OA
HETATM   33  H   UNK N   1      31.431  18.609   3.896  0.00  0.00     0.211 HD
ENDBRANCH  26  32
ENDBRANCH  23  26
ENDBRANCH   1  20
TORSDOF 7
ENDMDL
