REMARK  5 active torsions:
REMARK  status: ('A' for Active; 'I' for Inactive)
REMARK    1  A    between atoms: C_4  and  S_8 
REMARK    2  A    between atoms: S_8  and  C_11 
REMARK    3  A    between atoms: C_12  and  N_24 
REMARK    4  A    between atoms: C_14  and  C_20 
REMARK    5  A    between atoms: C_16  and  N_17 
ROOT
HETATM    1  C   UNK N   1      -0.025  -1.068  -0.611  0.00  0.00     0.130 A 
HETATM    2  C   UNK N   1       1.174  -1.883  -0.468  0.00  0.00     0.128 A 
HETATM    3  C   UNK N   1       1.041  -3.208  -0.042  0.00  0.00     0.053 A 
HETATM    4  C   UNK N   1      -0.180  -3.785   0.235  0.00  0.00     0.052 A 
HETATM    5  C   UNK N   1      -1.324  -3.013   0.158  0.00  0.00     0.053 A 
HETATM    6  C   UNK N   1      -1.292  -1.666  -0.230  0.00  0.00     0.128 A 
ENDROOT
BRANCH   1   7
HETATM    7  S   UNK N   1       0.005   0.677  -1.231  0.00  0.00     0.213 S 
HETATM    8  O   UNK N   1      -1.149   0.761  -2.245  0.00  0.00    -0.217 OA
HETATM    9  O   UNK N   1       1.087   0.900  -2.291  0.00  0.00    -0.217 OA
BRANCH   7  10
HETATM   10  C   UNK N   1      -0.077   2.221  -0.302  0.00  0.00     0.086 A 
HETATM   11  C   UNK N   1       0.984   2.622   0.531  0.00  0.00     0.057 A 
HETATM   12  C   UNK N   1       0.950   3.873   1.150  0.00  0.00     0.049 A 
HETATM   13 Cl   UNK N   1       2.386   1.603   0.799  0.00  0.00    -0.083 Cl
HETATM   14  C   UNK N   1      -0.133   4.731   0.959  0.00  0.00     0.041 A 
HETATM   15  C   UNK N   1      -1.213   4.324   0.158  0.00  0.00    -0.039 A 
HETATM   16 Cl   UNK N   1      -0.099   6.316   1.717  0.00  0.00    -0.084 Cl
HETATM   17  C   UNK N   1      -1.176   3.076  -0.474  0.00  0.00     0.034 A 
HETATM   18  C   UNK N   1      -2.389   5.213  -0.057  0.00  0.00     0.050 C 
ENDBRANCH   7  10
ENDBRANCH   1   7
BRANCH   2  19
HETATM   19  N   UNK N   1       2.522  -1.465  -0.726  0.00  0.00    -0.114 N 
HETATM   20  O   UNK N   1       3.521  -2.227  -0.330  0.00  0.00    -0.532 OA
HETATM   21  O   UNK N   1       2.773  -0.488  -1.352  0.00  0.00    -0.532 OA
ENDBRANCH   2  19
BRANCH   6  22
HETATM   22  N   UNK N   1      -2.551  -0.973  -0.201  0.00  0.00    -0.114 N 
HETATM   23  O   UNK N   1      -3.645  -1.634   0.114  0.00  0.00    -0.532 OA
HETATM   24  O   UNK N   1      -2.614   0.214  -0.297  0.00  0.00    -0.532 OA
ENDBRANCH   6  22
BRANCH   4  25
HETATM   25  C   UNK N   1      -0.271  -5.245   0.569  0.00  0.00     0.417 C 
HETATM   26  F   UNK N   1      -0.843  -5.416   1.815  0.00  0.00    -0.166 F 
HETATM   27  F   UNK N   1       0.984  -5.835   0.567  0.00  0.00    -0.166 F 
HETATM   28  F   UNK N   1      -1.052  -5.876  -0.382  0.00  0.00    -0.166 F 
ENDBRANCH   4  25
TORSDOF 5
