MODEL 1
REMARK VINA RESULT:      -7.7      0.000      0.000
REMARK  5 active torsions:
REMARK  status: ('A' for Active; 'I' for Inactive)
REMARK    1  A    between atoms: C_4  and  S_8 
REMARK    2  A    between atoms: S_8  and  C_11 
REMARK    3  A    between atoms: C_12  and  N_24 
REMARK    4  A    between atoms: C_14  and  C_20 
REMARK    5  A    between atoms: C_16  and  N_17 
ROOT
HETATM    1  C   UNK N   1      20.720  14.314   7.245  0.00  0.00     0.130 A 
HETATM    2  C   UNK N   1      20.419  14.790   8.589  0.00  0.00     0.128 A 
HETATM    3  C   UNK N   1      20.841  14.029   9.683  0.00  0.00     0.053 A 
HETATM    4  C   UNK N   1      21.545  12.852   9.548  0.00  0.00     0.052 A 
HETATM    5  C   UNK N   1      21.792  12.355   8.282  0.00  0.00     0.053 A 
HETATM    6  C   UNK N   1      21.384  13.029   7.122  0.00  0.00     0.128 A 
ENDROOT
BRANCH   1   7
HETATM    7  S   UNK N   1      20.279  15.259   5.714  0.00  0.00     0.213 S 
HETATM    8  O   UNK N   1      18.791  15.616   5.879  0.00  0.00    -0.217 OA
HETATM    9  O   UNK N   1      20.030  14.341   4.515  0.00  0.00    -0.217 OA
BRANCH   7  10
HETATM   10  C   UNK N   1      21.041  16.743   5.028  0.00  0.00     0.086 A 
HETATM   11  C   UNK N   1      22.413  17.002   5.209  0.00  0.00     0.057 A 
HETATM   12  C   UNK N   1      23.005  18.095   4.574  0.00  0.00     0.049 A 
HETATM   13 Cl   UNK N   1      23.428  15.966   6.195  0.00  0.00    -0.083 Cl
HETATM   14  C   UNK N   1      22.248  18.943   3.765  0.00  0.00     0.041 A 
HETATM   15  C   UNK N   1      20.872  18.713   3.608  0.00  0.00    -0.039 A 
HETATM   16 Cl   UNK N   1      23.056  20.271   2.945  0.00  0.00    -0.084 Cl
HETATM   17  C   UNK N   1      20.277  17.611   4.234  0.00  0.00     0.034 A 
HETATM   18  C   UNK N   1      20.034  19.606   2.760  0.00  0.00     0.050 C 
ENDBRANCH   7  10
ENDBRANCH   1   7
BRANCH   2  19
HETATM   19  N   UNK N   1      19.717  15.995   8.927  0.00  0.00    -0.114 N 
HETATM   20  O   UNK N   1      20.336  17.153   8.828  0.00  0.00    -0.532 OA
HETATM   21  O   UNK N   1      18.567  15.995   9.224  0.00  0.00    -0.532 OA
ENDBRANCH   2  19
BRANCH   6  22
HETATM   22  N   UNK N   1      21.653  12.360   5.878  0.00  0.00    -0.114 N 
HETATM   23  O   UNK N   1      22.749  12.655   5.210  0.00  0.00    -0.532 OA
HETATM   24  O   UNK N   1      20.998  11.434   5.511  0.00  0.00    -0.532 OA
ENDBRANCH   6  22
BRANCH   4  25
HETATM   25  C   UNK N   1      22.078  12.143  10.758  0.00  0.00     0.417 C 
HETATM   26  F   UNK N   1      21.064  11.929  11.672  0.00  0.00    -0.166 F 
HETATM   27  F   UNK N   1      23.082  12.881  11.366  0.00  0.00    -0.166 F 
HETATM   28  F   UNK N   1      22.605  10.925  10.370  0.00  0.00    -0.166 F 
ENDBRANCH   4  25
TORSDOF 5
ENDMDL
MODEL 2
REMARK VINA RESULT:      -7.7      0.468      2.991
REMARK  5 active torsions:
REMARK  status: ('A' for Active; 'I' for Inactive)
REMARK    1  A    between atoms: C_4  and  S_8 
REMARK    2  A    between atoms: S_8  and  C_11 
REMARK    3  A    between atoms: C_12  and  N_24 
REMARK    4  A    between atoms: C_14  and  C_20 
REMARK    5  A    between atoms: C_16  and  N_17 
ROOT
HETATM    1  C   UNK N   1      21.057  14.091   7.215  0.00  0.00     0.130 A 
HETATM    2  C   UNK N   1      21.868  12.881   7.201  0.00  0.00     0.128 A 
HETATM    3  C   UNK N   1      22.225  12.295   8.419  0.00  0.00     0.053 A 
HETATM    4  C   UNK N   1      21.829  12.805   9.638  0.00  0.00     0.052 A 
HETATM    5  C   UNK N   1      21.105  13.982   9.674  0.00  0.00     0.053 A 
HETATM    6  C   UNK N   1      20.725  14.662   8.508  0.00  0.00     0.128 A 
ENDROOT
BRANCH   1   7
HETATM    7  S   UNK N   1      20.460  14.927   5.674  0.00  0.00     0.213 S 
HETATM    8  O   UNK N   1      18.936  15.044   5.847  0.00  0.00    -0.217 OA
HETATM    9  O   UNK N   1      20.354  13.961   4.491  0.00  0.00    -0.217 OA
BRANCH   7  10
HETATM   10  C   UNK N   1      20.969  16.503   4.958  0.00  0.00     0.086 A 
HETATM   11  C   UNK N   1      22.282  16.982   5.123  0.00  0.00     0.057 A 
HETATM   12  C   UNK N   1      22.687  18.145   4.465  0.00  0.00     0.049 A 
HETATM   13 Cl   UNK N   1      23.457  16.140   6.116  0.00  0.00    -0.083 Cl
HETATM   14  C   UNK N   1      21.799  18.847   3.650  0.00  0.00     0.041 A 
HETATM   15  C   UNK N   1      20.477  18.395   3.508  0.00  0.00    -0.039 A 
HETATM   16 Cl   UNK N   1      22.377  20.273   2.802  0.00  0.00    -0.084 Cl
HETATM   17  C   UNK N   1      20.071  17.223   4.156  0.00  0.00     0.034 A 
HETATM   18  C   UNK N   1      19.501  19.128   2.653  0.00  0.00     0.050 C 
ENDBRANCH   7  10
ENDBRANCH   1   7
BRANCH   2  19
HETATM   19  N   UNK N   1      22.357  12.199   6.038  0.00  0.00    -0.114 N 
HETATM   20  O   UNK N   1      23.370  12.709   5.368  0.00  0.00    -0.532 OA
HETATM   21  O   UNK N   1      21.929  11.146   5.695  0.00  0.00    -0.532 OA
ENDBRANCH   2  19
BRANCH   6  22
HETATM   22  N   UNK N   1      20.033  15.906   8.703  0.00  0.00    -0.114 N 
HETATM   23  O   UNK N   1      18.771  15.891   9.079  0.00  0.00    -0.532 OA
HETATM   24  O   UNK N   1      20.608  16.951   8.691  0.00  0.00    -0.532 OA
ENDBRANCH   6  22
BRANCH   4  25
HETATM   25  C   UNK N   1      22.138  12.065  10.906  0.00  0.00     0.417 C 
HETATM   26  F   UNK N   1      20.986  11.882  11.647  0.00  0.00    -0.166 F 
HETATM   27  F   UNK N   1      23.060  12.759  11.675  0.00  0.00    -0.166 F 
HETATM   28  F   UNK N   1      22.675  10.831  10.587  0.00  0.00    -0.166 F 
ENDBRANCH   4  25
TORSDOF 5
ENDMDL
MODEL 3
REMARK VINA RESULT:      -7.5     16.806     17.724
REMARK  5 active torsions:
REMARK  status: ('A' for Active; 'I' for Inactive)
REMARK    1  A    between atoms: C_4  and  S_8 
REMARK    2  A    between atoms: S_8  and  C_11 
REMARK    3  A    between atoms: C_12  and  N_24 
REMARK    4  A    between atoms: C_14  and  C_20 
REMARK    5  A    between atoms: C_16  and  N_17 
ROOT
HETATM    1  C   UNK N   1      27.204  23.251  -6.247  0.00  0.00     0.130 A 
HETATM    2  C   UNK N   1      26.505  22.424  -7.221  0.00  0.00     0.128 A 
HETATM    3  C   UNK N   1      27.188  21.357  -7.813  0.00  0.00     0.053 A 
HETATM    4  C   UNK N   1      28.494  21.042  -7.503  0.00  0.00     0.052 A 
HETATM    5  C   UNK N   1      29.191  21.848  -6.622  0.00  0.00     0.053 A 
HETATM    6  C   UNK N   1      28.604  22.959  -6.000  0.00  0.00     0.128 A 
ENDROOT
BRANCH   1   7
HETATM    7  S   UNK N   1      26.395  24.650  -5.342  0.00  0.00     0.213 S 
HETATM    8  O   UNK N   1      26.296  24.177  -3.881  0.00  0.00    -0.217 OA
HETATM    9  O   UNK N   1      24.878  24.675  -5.543  0.00  0.00    -0.217 OA
BRANCH   7  10
HETATM   10  C   UNK N   1      26.890  26.382  -5.238  0.00  0.00     0.086 A 
HETATM   11  C   UNK N   1      27.027  27.166  -6.398  0.00  0.00     0.057 A 
HETATM   12  C   UNK N   1      27.298  28.532  -6.289  0.00  0.00     0.049 A 
HETATM   13 Cl   UNK N   1      26.834  26.486  -8.003  0.00  0.00    -0.083 Cl
HETATM   14  C   UNK N   1      27.445  29.129  -5.037  0.00  0.00     0.041 A 
HETATM   15  C   UNK N   1      27.346  28.346  -3.874  0.00  0.00    -0.039 A 
HETATM   16 Cl   UNK N   1      27.730  30.861  -4.955  0.00  0.00    -0.084 Cl
HETATM   17  C   UNK N   1      27.061  26.980  -3.980  0.00  0.00     0.034 A 
HETATM   18  C   UNK N   1      27.508  28.952  -2.523  0.00  0.00     0.050 C 
ENDBRANCH   7  10
ENDBRANCH   1   7
BRANCH   2  19
HETATM   19  N   UNK N   1      25.147  22.585  -7.655  0.00  0.00    -0.114 N 
HETATM   20  O   UNK N   1      24.865  23.484  -8.576  0.00  0.00    -0.532 OA
HETATM   21  O   UNK N   1      24.271  21.883  -7.267  0.00  0.00    -0.532 OA
ENDBRANCH   2  19
BRANCH   6  22
HETATM   22  N   UNK N   1      29.470  23.740  -5.161  0.00  0.00    -0.114 N 
HETATM   23  O   UNK N   1      30.020  24.835  -5.641  0.00  0.00    -0.532 OA
HETATM   24  O   UNK N   1      29.580  23.516  -3.995  0.00  0.00    -0.532 OA
ENDBRANCH   6  22
BRANCH   4  25
HETATM   25  C   UNK N   1      29.135  19.813  -8.077  0.00  0.00     0.417 C 
HETATM   26  F   UNK N   1      28.991  19.796  -9.451  0.00  0.00    -0.166 F 
HETATM   27  F   UNK N   1      28.565  18.663  -7.552  0.00  0.00    -0.166 F 
HETATM   28  F   UNK N   1      30.481  19.817  -7.759  0.00  0.00    -0.166 F 
ENDBRANCH   4  25
TORSDOF 5
ENDMDL
MODEL 4
REMARK VINA RESULT:      -7.2     17.258     17.957
REMARK  5 active torsions:
REMARK  status: ('A' for Active; 'I' for Inactive)
REMARK    1  A    between atoms: C_4  and  S_8 
REMARK    2  A    between atoms: S_8  and  C_11 
REMARK    3  A    between atoms: C_12  and  N_24 
REMARK    4  A    between atoms: C_14  and  C_20 
REMARK    5  A    between atoms: C_16  and  N_17 
ROOT
HETATM    1  C   UNK N   1      27.189  23.135  -6.977  0.00  0.00     0.130 A 
HETATM    2  C   UNK N   1      28.509  22.942  -6.392  0.00  0.00     0.128 A 
HETATM    3  C   UNK N   1      29.185  21.742  -6.634  0.00  0.00     0.053 A 
HETATM    4  C   UNK N   1      28.662  20.735  -7.417  0.00  0.00     0.052 A 
HETATM    5  C   UNK N   1      27.389  20.876  -7.936  0.00  0.00     0.053 A 
HETATM    6  C   UNK N   1      26.619  22.029  -7.725  0.00  0.00     0.128 A 
ENDROOT
BRANCH   1   7
HETATM    7  S   UNK N   1      26.219  24.701  -6.792  0.00  0.00     0.213 S 
HETATM    8  O   UNK N   1      25.128  24.376  -5.757  0.00  0.00    -0.217 OA
HETATM    9  O   UNK N   1      25.218  24.905  -7.932  0.00  0.00    -0.217 OA
BRANCH   7  10
HETATM   10  C   UNK N   1      26.792  26.356  -6.360  0.00  0.00     0.086 A 
HETATM   11  C   UNK N   1      27.641  27.076  -7.221  0.00  0.00     0.057 A 
HETATM   12  C   UNK N   1      27.980  28.397  -6.923  0.00  0.00     0.049 A 
HETATM   13 Cl   UNK N   1      28.275  26.371  -8.697  0.00  0.00    -0.083 Cl
HETATM   14  C   UNK N   1      27.491  29.013  -5.771  0.00  0.00     0.041 A 
HETATM   15  C   UNK N   1      26.672  28.290  -4.887  0.00  0.00    -0.039 A 
HETATM   16 Cl   UNK N   1      27.903  30.695  -5.472  0.00  0.00    -0.084 Cl
HETATM   17  C   UNK N   1      26.321  26.970  -5.190  0.00  0.00     0.034 A 
HETATM   18  C   UNK N   1      26.143  28.916  -3.643  0.00  0.00     0.050 C 
ENDBRANCH   7  10
ENDBRANCH   1   7
BRANCH   2  19
HETATM   19  N   UNK N   1      29.220  23.878  -5.569  0.00  0.00    -0.114 N 
HETATM   20  O   UNK N   1      30.050  24.732  -6.132  0.00  0.00    -0.532 OA
HETATM   21  O   UNK N   1      29.032  23.964  -4.400  0.00  0.00    -0.532 OA
ENDBRANCH   2  19
BRANCH   6  22
HETATM   22  N   UNK N   1      25.289  22.006  -8.270  0.00  0.00    -0.114 N 
HETATM   23  O   UNK N   1      25.125  22.072  -9.575  0.00  0.00    -0.532 OA
HETATM   24  O   UNK N   1      24.338  21.769  -7.591  0.00  0.00    -0.532 OA
ENDBRANCH   6  22
BRANCH   4  25
HETATM   25  C   UNK N   1      29.484  19.522  -7.742  0.00  0.00     0.417 C 
HETATM   26  F   UNK N   1      29.947  19.592  -9.041  0.00  0.00    -0.166 F 
HETATM   27  F   UNK N   1      28.738  18.362  -7.593  0.00  0.00    -0.166 F 
HETATM   28  F   UNK N   1      30.560  19.464  -6.876  0.00  0.00    -0.166 F 
ENDBRANCH   4  25
TORSDOF 5
ENDMDL
MODEL 5
REMARK VINA RESULT:      -7.2     10.897     12.429
REMARK  5 active torsions:
REMARK  status: ('A' for Active; 'I' for Inactive)
REMARK    1  A    between atoms: C_4  and  S_8 
REMARK    2  A    between atoms: S_8  and  C_11 
REMARK    3  A    between atoms: C_12  and  N_24 
REMARK    4  A    between atoms: C_14  and  C_20 
REMARK    5  A    between atoms: C_16  and  N_17 
ROOT
HETATM    1  C   UNK N   1      32.512  16.409   7.044  0.00  0.00     0.130 A 
HETATM    2  C   UNK N   1      32.783  17.400   8.077  0.00  0.00     0.128 A 
HETATM    3  C   UNK N   1      31.704  18.034   8.701  0.00  0.00     0.053 A 
HETATM    4  C   UNK N   1      30.391  17.752   8.392  0.00  0.00     0.052 A 
HETATM    5  C   UNK N   1      30.114  16.854   7.378  0.00  0.00     0.053 A 
HETATM    6  C   UNK N   1      31.126  16.189   6.672  0.00  0.00     0.128 A 
ENDROOT
BRANCH   1   7
HETATM    7  S   UNK N   1      33.845  15.448   6.189  0.00  0.00     0.213 S 
HETATM    8  O   UNK N   1      34.503  14.605   7.295  0.00  0.00    -0.217 OA
HETATM    9  O   UNK N   1      35.101  16.288   5.941  0.00  0.00    -0.217 OA
BRANCH   7  10
HETATM   10  C   UNK N   1      33.724  14.342   4.769  0.00  0.00     0.086 A 
HETATM   11  C   UNK N   1      33.515  14.848   3.473  0.00  0.00     0.057 A 
HETATM   12  C   UNK N   1      33.540  13.985   2.375  0.00  0.00     0.049 A 
HETATM   13 Cl   UNK N   1      33.251  16.557   3.178  0.00  0.00    -0.083 Cl
HETATM   14  C   UNK N   1      33.761  12.619   2.550  0.00  0.00     0.041 A 
HETATM   15  C   UNK N   1      33.935  12.100   3.844  0.00  0.00    -0.039 A 
HETATM   16 Cl   UNK N   1      33.838  11.587   1.130  0.00  0.00    -0.084 Cl
HETATM   17  C   UNK N   1      33.924  12.964   4.945  0.00  0.00     0.034 A 
HETATM   18  C   UNK N   1      34.163  10.645   4.065  0.00  0.00     0.050 C 
ENDBRANCH   7  10
ENDBRANCH   1   7
BRANCH   2  19
HETATM   19  N   UNK N   1      34.076  17.811   8.543  0.00  0.00    -0.114 N 
HETATM   20  O   UNK N   1      34.713  18.776   7.911  0.00  0.00    -0.532 OA
HETATM   21  O   UNK N   1      34.566  17.364   9.527  0.00  0.00    -0.532 OA
ENDBRANCH   2  19
BRANCH   6  22
HETATM   22  N   UNK N   1      30.689  15.336   5.601  0.00  0.00    -0.114 N 
HETATM   23  O   UNK N   1      30.551  14.045   5.819  0.00  0.00    -0.532 OA
HETATM   24  O   UNK N   1      30.295  15.781   4.567  0.00  0.00    -0.532 OA
ENDBRANCH   6  22
BRANCH   4  25
HETATM   25  C   UNK N   1      29.275  18.373   9.181  0.00  0.00     0.417 C 
HETATM   26  F   UNK N   1      28.519  19.198   8.370  0.00  0.00    -0.166 F 
HETATM   27  F   UNK N   1      29.770  19.118  10.241  0.00  0.00    -0.166 F 
HETATM   28  F   UNK N   1      28.471  17.370   9.690  0.00  0.00    -0.166 F 
ENDBRANCH   4  25
TORSDOF 5
ENDMDL
MODEL 6
REMARK VINA RESULT:      -7.2      7.343      9.066
REMARK  5 active torsions:
REMARK  status: ('A' for Active; 'I' for Inactive)
REMARK    1  A    between atoms: C_4  and  S_8 
REMARK    2  A    between atoms: S_8  and  C_11 
REMARK    3  A    between atoms: C_12  and  N_24 
REMARK    4  A    between atoms: C_14  and  C_20 
REMARK    5  A    between atoms: C_16  and  N_17 
ROOT
HETATM    1  C   UNK N   1      29.050  16.898   6.288  0.00  0.00     0.130 A 
HETATM    2  C   UNK N   1      30.232  16.476   5.549  0.00  0.00     0.128 A 
HETATM    3  C   UNK N   1      31.493  16.706   6.108  0.00  0.00     0.053 A 
HETATM    4  C   UNK N   1      31.668  17.304   7.338  0.00  0.00     0.052 A 
HETATM    5  C   UNK N   1      30.561  17.761   8.029  0.00  0.00     0.053 A 
HETATM    6  C   UNK N   1      29.257  17.604   7.539  0.00  0.00     0.128 A 
ENDROOT
BRANCH   1   7
HETATM    7  S   UNK N   1      27.322  16.591   5.694  0.00  0.00     0.213 S 
HETATM    8  O   UNK N   1      26.599  15.940   6.886  0.00  0.00    -0.217 OA
HETATM    9  O   UNK N   1      27.221  15.339   4.819  0.00  0.00    -0.217 OA
BRANCH   7  10
HETATM   10  C   UNK N   1      26.129  17.753   5.003  0.00  0.00     0.086 A 
HETATM   11  C   UNK N   1      26.538  19.010   4.520  0.00  0.00     0.057 A 
HETATM   12  C   UNK N   1      25.618  19.846   3.885  0.00  0.00     0.049 A 
HETATM   13 Cl   UNK N   1      28.197  19.560   4.662  0.00  0.00    -0.083 Cl
HETATM   14  C   UNK N   1      24.289  19.453   3.730  0.00  0.00     0.041 A 
HETATM   15  C   UNK N   1      23.863  18.215   4.241  0.00  0.00    -0.039 A 
HETATM   16 Cl   UNK N   1      23.186  20.520   2.874  0.00  0.00    -0.084 Cl
HETATM   17  C   UNK N   1      24.786  17.369   4.867  0.00  0.00     0.034 A 
HETATM   18  C   UNK N   1      22.448  17.770   4.101  0.00  0.00     0.050 C 
ENDBRANCH   7  10
ENDBRANCH   1   7
BRANCH   2  19
HETATM   19  N   UNK N   1      30.249  15.825   4.270  0.00  0.00    -0.114 N 
HETATM   20  O   UNK N   1      30.034  16.536   3.182  0.00  0.00    -0.532 OA
HETATM   21  O   UNK N   1      30.524  14.677   4.148  0.00  0.00    -0.532 OA
ENDBRANCH   2  19
BRANCH   6  22
HETATM   22  N   UNK N   1      28.212  18.187   8.336  0.00  0.00    -0.114 N 
HETATM   23  O   UNK N   1      27.838  17.589   9.447  0.00  0.00    -0.532 OA
HETATM   24  O   UNK N   1      27.784  19.276   8.106  0.00  0.00    -0.532 OA
ENDBRANCH   6  22
BRANCH   4  25
HETATM   25  C   UNK N   1      33.038  17.414   7.940  0.00  0.00     0.417 C 
HETATM   26  F   UNK N   1      33.307  18.726   8.280  0.00  0.00    -0.166 F 
HETATM   27  F   UNK N   1      34.008  16.972   7.054  0.00  0.00    -0.166 F 
HETATM   28  F   UNK N   1      33.093  16.628   9.077  0.00  0.00    -0.166 F 
ENDBRANCH   4  25
TORSDOF 5
ENDMDL
MODEL 7
REMARK VINA RESULT:      -7.0      2.458      2.795
REMARK  5 active torsions:
REMARK  status: ('A' for Active; 'I' for Inactive)
REMARK    1  A    between atoms: C_4  and  S_8 
REMARK    2  A    between atoms: S_8  and  C_11 
REMARK    3  A    between atoms: C_12  and  N_24 
REMARK    4  A    between atoms: C_14  and  C_20 
REMARK    5  A    between atoms: C_16  and  N_17 
ROOT
HETATM    1  C   UNK N   1      20.783  13.963   7.297  0.00  0.00     0.130 A 
HETATM    2  C   UNK N   1      20.517  14.587   8.586  0.00  0.00     0.128 A 
HETATM    3  C   UNK N   1      20.940  13.937   9.750  0.00  0.00     0.053 A 
HETATM    4  C   UNK N   1      21.614  12.735   9.731  0.00  0.00     0.052 A 
HETATM    5  C   UNK N   1      21.828  12.100   8.523  0.00  0.00     0.053 A 
HETATM    6  C   UNK N   1      21.415  12.655   7.303  0.00  0.00     0.128 A 
ENDROOT
BRANCH   1   7
HETATM    7  S   UNK N   1      20.338  14.748   5.680  0.00  0.00     0.213 S 
HETATM    8  O   UNK N   1      20.477  16.262   5.920  0.00  0.00    -0.217 OA
HETATM    9  O   UNK N   1      18.824  14.819   5.464  0.00  0.00    -0.217 OA
BRANCH   7  10
HETATM   10  C   UNK N   1      21.041  14.469   4.043  0.00  0.00     0.086 A 
HETATM   11  C   UNK N   1      22.424  14.594   3.817  0.00  0.00     0.057 A 
HETATM   12  C   UNK N   1      22.960  14.262   2.571  0.00  0.00     0.049 A 
HETATM   13 Cl   UNK N   1      23.522  15.133   5.074  0.00  0.00    -0.083 Cl
HETATM   14  C   UNK N   1      22.136  13.813   1.540  0.00  0.00     0.041 A 
HETATM   15  C   UNK N   1      20.749  13.719   1.745  0.00  0.00    -0.039 A 
HETATM   16 Cl   UNK N   1      22.870  13.355   0.010  0.00  0.00    -0.084 Cl
HETATM   17  C   UNK N   1      20.210  14.039   2.996  0.00  0.00     0.034 A 
HETATM   18  C   UNK N   1      19.841  13.252   0.660  0.00  0.00     0.050 C 
ENDBRANCH   7  10
ENDBRANCH   1   7
BRANCH   2  19
HETATM   19  N   UNK N   1      19.848  15.838   8.803  0.00  0.00    -0.114 N 
HETATM   20  O   UNK N   1      20.562  16.937   8.935  0.00  0.00    -0.532 OA
HETATM   21  O   UNK N   1      18.665  15.932   8.795  0.00  0.00    -0.532 OA
ENDBRANCH   2  19
BRANCH   6  22
HETATM   22  N   UNK N   1      21.648  11.851   6.135  0.00  0.00    -0.114 N 
HETATM   23  O   UNK N   1      22.878  11.698   5.691  0.00  0.00    -0.532 OA
HETATM   24  O   UNK N   1      20.783  11.189   5.649  0.00  0.00    -0.532 OA
ENDBRANCH   6  22
BRANCH   4  25
HETATM   25  C   UNK N   1      22.151  12.147  11.003  0.00  0.00     0.417 C 
HETATM   26  F   UNK N   1      21.146  12.049  11.947  0.00  0.00    -0.166 F 
HETATM   27  F   UNK N   1      23.175  12.926  11.518  0.00  0.00    -0.166 F 
HETATM   28  F   UNK N   1      22.652  10.885  10.738  0.00  0.00    -0.166 F 
ENDBRANCH   4  25
TORSDOF 5
ENDMDL
MODEL 8
REMARK VINA RESULT:      -6.9     11.294     12.693
REMARK  5 active torsions:
REMARK  status: ('A' for Active; 'I' for Inactive)
REMARK    1  A    between atoms: C_4  and  S_8 
REMARK    2  A    between atoms: S_8  and  C_11 
REMARK    3  A    between atoms: C_12  and  N_24 
REMARK    4  A    between atoms: C_14  and  C_20 
REMARK    5  A    between atoms: C_16  and  N_17 
ROOT
HETATM    1  C   UNK N   1      34.032  16.010   7.759  0.00  0.00     0.130 A 
HETATM    2  C   UNK N   1      34.245  14.604   8.076  0.00  0.00     0.128 A 
HETATM    3  C   UNK N   1      34.829  14.271   9.302  0.00  0.00     0.053 A 
HETATM    4  C   UNK N   1      35.198  15.216  10.235  0.00  0.00     0.052 A 
HETATM    5  C   UNK N   1      35.054  16.557   9.931  0.00  0.00     0.053 A 
HETATM    6  C   UNK N   1      34.508  16.993   8.716  0.00  0.00     0.128 A 
ENDROOT
BRANCH   1   7
HETATM    7  S   UNK N   1      33.208  16.583   6.203  0.00  0.00     0.213 S 
HETATM    8  O   UNK N   1      33.519  15.494   5.161  0.00  0.00    -0.217 OA
HETATM    9  O   UNK N   1      34.022  17.655   5.473  0.00  0.00    -0.217 OA
BRANCH   7  10
HETATM   10  C   UNK N   1      31.481  17.021   5.918  0.00  0.00     0.086 A 
HETATM   11  C   UNK N   1      30.989  17.218   4.615  0.00  0.00     0.057 A 
HETATM   12  C   UNK N   1      29.627  17.443   4.410  0.00  0.00     0.049 A 
HETATM   13 Cl   UNK N   1      32.039  17.159   3.211  0.00  0.00    -0.083 Cl
HETATM   14  C   UNK N   1      28.744  17.484   5.489  0.00  0.00     0.041 A 
HETATM   15  C   UNK N   1      29.232  17.325   6.797  0.00  0.00    -0.039 A 
HETATM   16 Cl   UNK N   1      27.031  17.715   5.170  0.00  0.00    -0.084 Cl
HETATM   17  C   UNK N   1      30.595  17.086   7.004  0.00  0.00     0.034 A 
HETATM   18  C   UNK N   1      28.316  17.374   7.971  0.00  0.00     0.050 C 
ENDBRANCH   7  10
ENDBRANCH   1   7
BRANCH   2  19
HETATM   19  N   UNK N   1      33.911  13.485   7.243  0.00  0.00    -0.114 N 
HETATM   20  O   UNK N   1      34.863  12.880   6.562  0.00  0.00    -0.532 OA
HETATM   21  O   UNK N   1      32.814  13.033   7.200  0.00  0.00    -0.532 OA
ENDBRANCH   2  19
BRANCH   6  22
HETATM   22  N   UNK N   1      34.480  18.416   8.513  0.00  0.00    -0.114 N 
HETATM   23  O   UNK N   1      33.321  19.036   8.446  0.00  0.00    -0.532 OA
HETATM   24  O   UNK N   1      35.474  19.074   8.564  0.00  0.00    -0.532 OA
ENDBRANCH   6  22
BRANCH   4  25
HETATM   25  C   UNK N   1      35.705  14.794  11.583  0.00  0.00     0.417 C 
HETATM   26  F   UNK N   1      34.769  14.003  12.220  0.00  0.00    -0.166 F 
HETATM   27  F   UNK N   1      35.978  15.896  12.379  0.00  0.00    -0.166 F 
HETATM   28  F   UNK N   1      36.874  14.073  11.418  0.00  0.00    -0.166 F 
ENDBRANCH   4  25
TORSDOF 5
ENDMDL
MODEL 9
REMARK VINA RESULT:      -6.9      4.793      7.399
REMARK  5 active torsions:
REMARK  status: ('A' for Active; 'I' for Inactive)
REMARK    1  A    between atoms: C_4  and  S_8 
REMARK    2  A    between atoms: S_8  and  C_11 
REMARK    3  A    between atoms: C_12  and  N_24 
REMARK    4  A    between atoms: C_14  and  C_20 
REMARK    5  A    between atoms: C_16  and  N_17 
ROOT
HETATM    1  C   UNK N   1      23.510  16.853   5.234  0.00  0.00     0.130 A 
HETATM    2  C   UNK N   1      23.040  18.150   4.765  0.00  0.00     0.128 A 
HETATM    3  C   UNK N   1      23.981  19.108   4.377  0.00  0.00     0.053 A 
HETATM    4  C   UNK N   1      25.340  18.874   4.403  0.00  0.00     0.052 A 
HETATM    5  C   UNK N   1      25.808  17.670   4.895  0.00  0.00     0.053 A 
HETATM    6  C   UNK N   1      24.945  16.657   5.338  0.00  0.00     0.128 A 
ENDROOT
BRANCH   1   7
HETATM    7  S   UNK N   1      22.369  15.475   5.712  0.00  0.00     0.213 S 
HETATM    8  O   UNK N   1      22.652  14.352   4.699  0.00  0.00    -0.217 OA
HETATM    9  O   UNK N   1      20.939  15.703   5.214  0.00  0.00    -0.217 OA
BRANCH   7  10
HETATM   10  C   UNK N   1      22.193  14.637   7.300  0.00  0.00     0.086 A 
HETATM   11  C   UNK N   1      21.350  15.154   8.301  0.00  0.00     0.057 A 
HETATM   12  C   UNK N   1      21.139  14.430   9.477  0.00  0.00     0.049 A 
HETATM   13 Cl   UNK N   1      20.516  16.685   8.110  0.00  0.00    -0.083 Cl
HETATM   14  C   UNK N   1      21.764  13.199   9.675  0.00  0.00     0.041 A 
HETATM   15  C   UNK N   1      22.635  12.693   8.696  0.00  0.00    -0.039 A 
HETATM   16 Cl   UNK N   1      21.419  12.304  11.148  0.00  0.00    -0.084 Cl
HETATM   17  C   UNK N   1      22.838  13.409   7.511  0.00  0.00     0.034 A 
HETATM   18  C   UNK N   1      23.325  11.386   8.883  0.00  0.00     0.050 C 
ENDBRANCH   7  10
ENDBRANCH   1   7
BRANCH   2  19
HETATM   19  N   UNK N   1      21.672  18.568   4.652  0.00  0.00    -0.114 N 
HETATM   20  O   UNK N   1      21.050  19.036   5.714  0.00  0.00    -0.532 OA
HETATM   21  O   UNK N   1      21.097  18.577   3.613  0.00  0.00    -0.532 OA
ENDBRANCH   2  19
BRANCH   6  22
HETATM   22  N   UNK N   1      25.576  15.488   5.884  0.00  0.00    -0.114 N 
HETATM   23  O   UNK N   1      26.034  14.561   5.069  0.00  0.00    -0.532 OA
HETATM   24  O   UNK N   1      25.842  15.404   7.044  0.00  0.00    -0.532 OA
ENDBRANCH   6  22
BRANCH   4  25
HETATM   25  C   UNK N   1      26.296  19.894   3.859  0.00  0.00     0.417 C 
HETATM   26  F   UNK N   1      27.518  19.309   3.590  0.00  0.00    -0.166 F 
HETATM   27  F   UNK N   1      26.483  20.931   4.760  0.00  0.00    -0.166 F 
HETATM   28  F   UNK N   1      25.775  20.420   2.690  0.00  0.00    -0.166 F 
ENDBRANCH   4  25
TORSDOF 5
ENDMDL
