MODEL 1
REMARK VINA RESULT:      -5.3      0.000      0.000
REMARK  3 active torsions:
REMARK  status: ('A' for Active; 'I' for Inactive)
REMARK    1  A    between atoms: C_7  and  C_8 
REMARK    2  A    between atoms: C_11  and  C_13 
REMARK    3  A    between atoms: C_13  and  N_14 
ROOT
HETATM    1  C   UNK N   1      20.432  15.010   9.186  0.00  0.00     0.087 A 
HETATM    2  C   UNK N   1      20.890  16.001   8.332  0.00  0.00     0.040 A 
HETATM    3  C   UNK N   1      19.824  16.876   8.175  0.00  0.00     0.037 A 
HETATM    4  C   UNK N   1      18.797  16.351   8.946  0.00  0.00     0.070 A 
HETATM    5  O   UNK N   1      19.192  15.251   9.526  0.00  0.00    -0.313 OA
ENDROOT
BRANCH   1   6
HETATM    6  C   UNK N   1      21.180  13.842   9.670  0.00  0.00     0.013 A 
HETATM    7  C   UNK N   1      22.460  13.592   9.165  0.00  0.00     0.017 A 
HETATM    8  C   UNK N   1      23.184  12.489   9.612  0.00  0.00     0.018 A 
HETATM    9  C   UNK N   1      22.619  11.643  10.565  0.00  0.00     0.087 A 
HETATM   10  N   UNK N   1      21.371  11.896  11.050  0.00  0.00    -0.374 N 
HETATM   11  C   UNK N   1      20.647  12.968  10.626  0.00  0.00     0.101 A 
ATOM     12  HN  UNK N   1      20.971  11.268  11.746  1.00  0.00     0.164 HD
ENDBRANCH   1   6
BRANCH   4  13
HETATM   13  C   UNK N   1      17.420  16.909   9.127  0.00  0.00     0.176 C 
BRANCH  13  14
HETATM   14  N   UNK N   1      17.444  18.157   9.871  0.00  0.00    -0.424 N 
HETATM   15  H   UNK N   1      17.969  18.220  10.743  0.00  0.00     0.150 HD
HETATM   16  H   UNK N   1      16.937  18.969   9.521  0.00  0.00     0.150 HD
ENDBRANCH  13  14
ENDBRANCH   4  13
TORSDOF 3
ENDMDL
MODEL 2
REMARK VINA RESULT:      -5.3      2.461      5.579
REMARK  3 active torsions:
REMARK  status: ('A' for Active; 'I' for Inactive)
REMARK    1  A    between atoms: C_7  and  C_8 
REMARK    2  A    between atoms: C_11  and  C_13 
REMARK    3  A    between atoms: C_13  and  N_14 
ROOT
HETATM    1  C   UNK N   1      21.542  13.892   9.626  0.00  0.00     0.087 A 
HETATM    2  C   UNK N   1      20.620  13.131  10.328  0.00  0.00     0.040 A 
HETATM    3  C   UNK N   1      21.372  12.262  11.104  0.00  0.00     0.037 A 
HETATM    4  C   UNK N   1      22.696  12.558  10.817  0.00  0.00     0.070 A 
HETATM    5  O   UNK N   1      22.757  13.524   9.942  0.00  0.00    -0.313 OA
ENDROOT
BRANCH   1   6
HETATM    6  C   UNK N   1      21.257  14.962   8.661  0.00  0.00     0.013 A 
HETATM    7  C   UNK N   1      20.185  15.829   8.899  0.00  0.00     0.017 A 
HETATM    8  C   UNK N   1      19.899  16.850   7.995  0.00  0.00     0.018 A 
HETATM    9  C   UNK N   1      20.693  16.995   6.857  0.00  0.00     0.087 A 
HETATM   10  N   UNK N   1      21.734  16.145   6.636  0.00  0.00    -0.374 N 
HETATM   11  C   UNK N   1      22.030  15.141   7.507  0.00  0.00     0.101 A 
ATOM     12  HN  UNK N   1      22.305  16.264   5.800  1.00  0.00     0.164 HD
ENDBRANCH   1   6
BRANCH   4  13
HETATM   13  C   UNK N   1      23.918  11.908  11.387  0.00  0.00     0.176 C 
BRANCH  13  14
HETATM   14  N   UNK N   1      25.127  12.614  11.002  0.00  0.00    -0.424 N 
HETATM   15  H   UNK N   1      25.893  12.715  11.668  0.00  0.00     0.150 HD
HETATM   16  H   UNK N   1      25.211  13.010  10.066  0.00  0.00     0.150 HD
ENDBRANCH  13  14
ENDBRANCH   4  13
TORSDOF 3
ENDMDL
MODEL 3
REMARK VINA RESULT:      -5.2     15.780     16.870
REMARK  3 active torsions:
REMARK  status: ('A' for Active; 'I' for Inactive)
REMARK    1  A    between atoms: C_7  and  C_8 
REMARK    2  A    between atoms: C_11  and  C_13 
REMARK    3  A    between atoms: C_13  and  N_14 
ROOT
HETATM    1  C   UNK N   1      35.193  12.697  15.612  0.00  0.00     0.087 A 
HETATM    2  C   UNK N   1      34.528  11.844  14.746  0.00  0.00     0.040 A 
HETATM    3  C   UNK N   1      34.780  12.338  13.474  0.00  0.00     0.037 A 
HETATM    4  C   UNK N   1      35.579  13.456  13.661  0.00  0.00     0.070 A 
HETATM    5  O   UNK N   1      35.802  13.636  14.935  0.00  0.00    -0.313 OA
ENDROOT
BRANCH   1   6
HETATM    6  C   UNK N   1      35.243  12.610  17.078  0.00  0.00     0.013 A 
HETATM    7  C   UNK N   1      35.352  11.355  17.685  0.00  0.00     0.017 A 
HETATM    8  C   UNK N   1      35.401  11.253  19.073  0.00  0.00     0.018 A 
HETATM    9  C   UNK N   1      35.339  12.413  19.845  0.00  0.00     0.087 A 
HETATM   10  N   UNK N   1      35.233  13.630  19.243  0.00  0.00    -0.374 N 
HETATM   11  C   UNK N   1      35.184  13.751  17.887  0.00  0.00     0.101 A 
ATOM     12  HN  UNK N   1      35.189  14.469  19.820  1.00  0.00     0.164 HD
ENDBRANCH   1   6
BRANCH   4  13
HETATM   13  C   UNK N   1      36.136  14.362  12.609  0.00  0.00     0.176 C 
BRANCH  13  14
HETATM   14  N   UNK N   1      37.245  13.743  11.904  0.00  0.00    -0.424 N 
HETATM   15  H   UNK N   1      38.083  14.286  11.695  0.00  0.00     0.150 HD
HETATM   16  H   UNK N   1      37.186  12.767  11.617  0.00  0.00     0.150 HD
ENDBRANCH  13  14
ENDBRANCH   4  13
TORSDOF 3
ENDMDL
MODEL 4
REMARK VINA RESULT:      -5.0     18.816     20.129
REMARK  3 active torsions:
REMARK  status: ('A' for Active; 'I' for Inactive)
REMARK    1  A    between atoms: C_7  and  C_8 
REMARK    2  A    between atoms: C_11  and  C_13 
REMARK    3  A    between atoms: C_13  and  N_14 
ROOT
HETATM    1  C   UNK N   1      25.722  25.294  -6.804  0.00  0.00     0.087 A 
HETATM    2  C   UNK N   1      25.887  25.762  -8.098  0.00  0.00     0.040 A 
HETATM    3  C   UNK N   1      25.696  24.660  -8.918  0.00  0.00     0.037 A 
HETATM    4  C   UNK N   1      25.429  23.602  -8.061  0.00  0.00     0.070 A 
HETATM    5  O   UNK N   1      25.453  24.014  -6.823  0.00  0.00    -0.313 OA
ENDROOT
BRANCH   1   6
HETATM    6  C   UNK N   1      25.823  26.070  -5.561  0.00  0.00     0.013 A 
HETATM    7  C   UNK N   1      25.385  27.398  -5.546  0.00  0.00     0.017 A 
HETATM    8  C   UNK N   1      25.472  28.150  -4.377  0.00  0.00     0.018 A 
HETATM    9  C   UNK N   1      25.999  27.563  -3.227  0.00  0.00     0.087 A 
HETATM   10  N   UNK N   1      26.423  26.268  -3.252  0.00  0.00    -0.374 N 
HETATM   11  C   UNK N   1      26.346  25.517  -4.385  0.00  0.00     0.101 A 
ATOM     12  HN  UNK N   1      26.807  25.853  -2.404  1.00  0.00     0.164 HD
ENDBRANCH   1   6
BRANCH   4  13
HETATM   13  C   UNK N   1      25.147  22.180  -8.433  0.00  0.00     0.176 C 
BRANCH  13  14
HETATM   14  N   UNK N   1      24.024  21.645  -7.683  0.00  0.00    -0.424 N 
HETATM   15  H   UNK N   1      24.075  21.578  -6.667  0.00  0.00     0.150 HD
HETATM   16  H   UNK N   1      23.184  21.337  -8.173  0.00  0.00     0.150 HD
ENDBRANCH  13  14
ENDBRANCH   4  13
TORSDOF 3
ENDMDL
MODEL 5
REMARK VINA RESULT:      -4.9     14.399     16.028
REMARK  3 active torsions:
REMARK  status: ('A' for Active; 'I' for Inactive)
REMARK    1  A    between atoms: C_7  and  C_8 
REMARK    2  A    between atoms: C_11  and  C_13 
REMARK    3  A    between atoms: C_13  and  N_14 
ROOT
HETATM    1  C   UNK N   1      35.589  13.416  14.435  0.00  0.00     0.087 A 
HETATM    2  C   UNK N   1      36.471  14.447  14.150  0.00  0.00     0.040 A 
HETATM    3  C   UNK N   1      36.212  14.803  12.835  0.00  0.00     0.037 A 
HETATM    4  C   UNK N   1      35.190  13.963  12.417  0.00  0.00     0.070 A 
HETATM    5  O   UNK N   1      34.849  13.159  13.387  0.00  0.00    -0.313 OA
ENDROOT
BRANCH   1   6
HETATM    6  C   UNK N   1      35.459  12.686  15.703  0.00  0.00     0.013 A 
HETATM    7  C   UNK N   1      35.315  13.405  16.894  0.00  0.00     0.017 A 
HETATM    8  C   UNK N   1      35.190  12.730  18.106  0.00  0.00     0.018 A 
HETATM    9  C   UNK N   1      35.210  11.336  18.115  0.00  0.00     0.087 A 
HETATM   10  N   UNK N   1      35.351  10.646  16.949  0.00  0.00    -0.374 N 
HETATM   11  C   UNK N   1      35.474  11.287  15.754  0.00  0.00     0.101 A 
ATOM     12  HN  UNK N   1      35.364   9.627  16.971  1.00  0.00     0.164 HD
ENDBRANCH   1   6
BRANCH   4  13
HETATM   13  C   UNK N   1      34.532  13.929  11.073  0.00  0.00     0.176 C 
BRANCH  13  14
HETATM   14  N   UNK N   1      33.548  14.988  10.934  0.00  0.00    -0.424 N 
HETATM   15  H   UNK N   1      33.673  15.869  11.432  0.00  0.00     0.150 HD
HETATM   16  H   UNK N   1      32.732  14.851  10.338  0.00  0.00     0.150 HD
ENDBRANCH  13  14
ENDBRANCH   4  13
TORSDOF 3
ENDMDL
MODEL 6
REMARK VINA RESULT:      -4.9      7.609      8.529
REMARK  3 active torsions:
REMARK  status: ('A' for Active; 'I' for Inactive)
REMARK    1  A    between atoms: C_7  and  C_8 
REMARK    2  A    between atoms: C_11  and  C_13 
REMARK    3  A    between atoms: C_13  and  N_14 
ROOT
HETATM    1  C   UNK N   1      22.873  19.600   3.301  0.00  0.00     0.087 A 
HETATM    2  C   UNK N   1      22.252  20.620   2.597  0.00  0.00     0.040 A 
HETATM    3  C   UNK N   1      20.950  20.188   2.391  0.00  0.00     0.037 A 
HETATM    4  C   UNK N   1      20.875  18.936   2.985  0.00  0.00     0.070 A 
HETATM    5  O   UNK N   1      22.028  18.623   3.511  0.00  0.00    -0.313 OA
ENDROOT
BRANCH   1   6
HETATM    6  C   UNK N   1      24.266  19.565   3.766  0.00  0.00     0.013 A 
HETATM    7  C   UNK N   1      25.233  20.313   3.087  0.00  0.00     0.017 A 
HETATM    8  C   UNK N   1      26.559  20.292   3.514  0.00  0.00     0.018 A 
HETATM    9  C   UNK N   1      26.906  19.519   4.621  0.00  0.00     0.087 A 
HETATM   10  N   UNK N   1      25.956  18.793   5.275  0.00  0.00    -0.374 N 
HETATM   11  C   UNK N   1      24.655  18.800   4.873  0.00  0.00     0.101 A 
ATOM     12  HN  UNK N   1      26.225  18.233   6.083  1.00  0.00     0.164 HD
ENDBRANCH   1   6
BRANCH   4  13
HETATM   13  C   UNK N   1      19.686  18.030   3.050  0.00  0.00     0.176 C 
BRANCH  13  14
HETATM   14  N   UNK N   1      18.585  18.537   2.251  0.00  0.00    -0.424 N 
HETATM   15  H   UNK N   1      18.774  19.082   1.409  0.00  0.00     0.150 HD
HETATM   16  H   UNK N   1      17.622  18.348   2.529  0.00  0.00     0.150 HD
ENDBRANCH  13  14
ENDBRANCH   4  13
TORSDOF 3
ENDMDL
MODEL 7
REMARK VINA RESULT:      -4.9      9.539     10.976
REMARK  3 active torsions:
REMARK  status: ('A' for Active; 'I' for Inactive)
REMARK    1  A    between atoms: C_7  and  C_8 
REMARK    2  A    between atoms: C_11  and  C_13 
REMARK    3  A    between atoms: C_13  and  N_14 
ROOT
HETATM    1  C   UNK N   1      28.637  18.512   7.389  0.00  0.00     0.087 A 
HETATM    2  C   UNK N   1      28.190  18.568   8.700  0.00  0.00     0.040 A 
HETATM    3  C   UNK N   1      29.098  17.820   9.434  0.00  0.00     0.037 A 
HETATM    4  C   UNK N   1      30.032  17.363   8.515  0.00  0.00     0.070 A 
HETATM    5  O   UNK N   1      29.727  17.791   7.320  0.00  0.00    -0.313 OA
ENDROOT
BRANCH   1   6
HETATM    6  C   UNK N   1      28.023  19.145   6.215  0.00  0.00     0.013 A 
HETATM    7  C   UNK N   1      27.117  20.195   6.399  0.00  0.00     0.017 A 
HETATM    8  C   UNK N   1      26.525  20.807   5.298  0.00  0.00     0.018 A 
HETATM    9  C   UNK N   1      26.844  20.361   4.016  0.00  0.00     0.087 A 
HETATM   10  N   UNK N   1      27.727  19.337   3.848  0.00  0.00    -0.374 N 
HETATM   11  C   UNK N   1      28.318  18.726   4.912  0.00  0.00     0.101 A 
ATOM     12  HN  UNK N   1      27.951  19.022   2.904  1.00  0.00     0.164 HD
ENDBRANCH   1   6
BRANCH   4  13
HETATM   13  C   UNK N   1      31.229  16.507   8.784  0.00  0.00     0.176 C 
BRANCH  13  14
HETATM   14  N   UNK N   1      32.432  17.306   8.942  0.00  0.00    -0.424 N 
HETATM   15  H   UNK N   1      32.405  18.164   9.493  0.00  0.00     0.150 HD
HETATM   16  H   UNK N   1      33.303  17.010   8.503  0.00  0.00     0.150 HD
ENDBRANCH  13  14
ENDBRANCH   4  13
TORSDOF 3
ENDMDL
MODEL 8
REMARK VINA RESULT:      -4.8     15.477     17.043
REMARK  3 active torsions:
REMARK  status: ('A' for Active; 'I' for Inactive)
REMARK    1  A    between atoms: C_7  and  C_8 
REMARK    2  A    between atoms: C_11  and  C_13 
REMARK    3  A    between atoms: C_13  and  N_14 
ROOT
HETATM    1  C   UNK N   1      35.220  12.699  16.777  0.00  0.00     0.087 A 
HETATM    2  C   UNK N   1      35.164  13.749  17.680  0.00  0.00     0.040 A 
HETATM    3  C   UNK N   1      35.200  13.161  18.936  0.00  0.00     0.037 A 
HETATM    4  C   UNK N   1      35.276  11.795  18.704  0.00  0.00     0.070 A 
HETATM    5  O   UNK N   1      35.285  11.561  17.420  0.00  0.00    -0.313 OA
ENDROOT
BRANCH   1   6
HETATM    6  C   UNK N   1      35.211  12.788  15.311  0.00  0.00     0.013 A 
HETATM    7  C   UNK N   1      35.992  13.763  14.681  0.00  0.00     0.017 A 
HETATM    8  C   UNK N   1      35.996  13.863  13.291  0.00  0.00     0.018 A 
HETATM    9  C   UNK N   1      35.216  12.982  12.542  0.00  0.00     0.087 A 
HETATM   10  N   UNK N   1      34.460  12.037  13.167  0.00  0.00    -0.374 N 
HETATM   11  C   UNK N   1      34.442  11.923  14.524  0.00  0.00     0.101 A 
ATOM     12  HN  UNK N   1      33.894  11.401  12.606  1.00  0.00     0.164 HD
ENDBRANCH   1   6
BRANCH   4  13
HETATM   13  C   UNK N   1      35.340  10.702  19.724  0.00  0.00     0.176 C 
BRANCH  13  14
HETATM   14  N   UNK N   1      34.625  11.061  20.936  0.00  0.00    -0.424 N 
HETATM   15  H   UNK N   1      33.986  11.857  20.935  0.00  0.00     0.150 HD
HETATM   16  H   UNK N   1      34.761  10.519  21.789  0.00  0.00     0.150 HD
ENDBRANCH  13  14
ENDBRANCH   4  13
TORSDOF 3
ENDMDL
MODEL 9
REMARK VINA RESULT:      -4.7     11.019     12.883
REMARK  3 active torsions:
REMARK  status: ('A' for Active; 'I' for Inactive)
REMARK    1  A    between atoms: C_7  and  C_8 
REMARK    2  A    between atoms: C_11  and  C_13 
REMARK    3  A    between atoms: C_13  and  N_14 
ROOT
HETATM    1  C   UNK N   1      32.400  17.558   8.431  0.00  0.00     0.087 A 
HETATM    2  C   UNK N   1      33.348  18.389   7.854  0.00  0.00     0.040 A 
HETATM    3  C   UNK N   1      34.572  17.940   8.329  0.00  0.00     0.037 A 
HETATM    4  C   UNK N   1      34.278  16.869   9.161  0.00  0.00     0.070 A 
HETATM    5  O   UNK N   1      32.988  16.674   9.196  0.00  0.00    -0.313 OA
ENDROOT
BRANCH   1   6
HETATM    6  C   UNK N   1      30.944  17.614   8.249  0.00  0.00     0.013 A 
HETATM    7  C   UNK N   1      30.177  18.402   9.113  0.00  0.00     0.017 A 
HETATM    8  C   UNK N   1      28.794  18.467   8.955  0.00  0.00     0.018 A 
HETATM    9  C   UNK N   1      28.189  17.741   7.930  0.00  0.00     0.087 A 
HETATM   10  N   UNK N   1      28.946  16.976   7.095  0.00  0.00    -0.374 N 
HETATM   11  C   UNK N   1      30.299  16.899   7.232  0.00  0.00     0.101 A 
ATOM     12  HN  UNK N   1      28.490  16.451   6.350  1.00  0.00     0.164 HD
ENDBRANCH   1   6
BRANCH   4  13
HETATM   13  C   UNK N   1      35.243  16.023   9.930  0.00  0.00     0.176 C 
BRANCH  13  14
HETATM   14  N   UNK N   1      35.180  16.303  11.354  0.00  0.00    -0.424 N 
HETATM   15  H   UNK N   1      36.014  16.622  11.848  0.00  0.00     0.150 HD
HETATM   16  H   UNK N   1      34.304  16.180  11.860  0.00  0.00     0.150 HD
ENDBRANCH  13  14
ENDBRANCH   4  13
TORSDOF 3
ENDMDL
