REMARK  3 active torsions:
REMARK  status: ('A' for Active; 'I' for Inactive)
REMARK    1  A    between atoms: C_7  and  C_8 
REMARK    2  A    between atoms: C_11  and  C_13 
REMARK    3  A    between atoms: C_13  and  N_14 
ROOT
HETATM    1  C   UNK N   1       0.114  -0.246   0.000  0.00  0.00     0.087 A 
HETATM    2  C   UNK N   1       1.270  -1.011  -0.000  0.00  0.00     0.040 A 
HETATM    3  C   UNK N   1       0.841  -2.330  -0.000  0.00  0.00     0.037 A 
HETATM    4  C   UNK N   1      -0.545  -2.270   0.000  0.00  0.00     0.070 A 
HETATM    5  O   UNK N   1      -0.937  -1.025   0.000  0.00  0.00    -0.313 OA
ENDROOT
BRANCH   1   6
HETATM    6  C   UNK N   1       0.021   1.220   0.000  0.00  0.00     0.013 A 
HETATM    7  C   UNK N   1      -1.240   1.825   0.000  0.00  0.00     0.017 A 
HETATM    8  C   UNK N   1      -1.348   3.214   0.000  0.00  0.00     0.018 A 
HETATM    9  C   UNK N   1      -0.188   3.988   0.000  0.00  0.00     0.087 A 
HETATM   10  N   UNK N   1       1.035   3.388  -0.000  0.00  0.00    -0.374 N 
HETATM   11  C   UNK N   1       1.162   2.032  -0.000  0.00  0.00     0.101 A 
ATOM     12  HN  UNK N   1       1.874   3.967  -0.000  1.00  0.00     0.164 HD
ENDBRANCH   1   6
BRANCH   4  13
HETATM   13  C   UNK N   1      -1.505  -3.418   0.000  0.00  0.00     0.176 C 
BRANCH  13  14
HETATM   14  N   UNK N   1      -0.811  -4.694  -0.000  0.00  0.00    -0.424 N 
HETATM   15  H   UNK N   1      -1.344  -5.564  -0.000  0.00  0.00     0.150 HD
HETATM   16  H   UNK N   1       0.208  -4.721  -0.000  0.00  0.00     0.150 HD
ENDBRANCH  13  14
ENDBRANCH   4  13
TORSDOF 3
