MODEL 1
REMARK VINA RESULT:      -8.3      0.000      0.000
REMARK  3 active torsions:
REMARK  status: ('A' for Active; 'I' for Inactive)
REMARK    1  A    between atoms: N_3  and  N_8 
REMARK       I    between atoms: N_8  and  C_9 
REMARK       I    between atoms: C_9  and  N_10 
REMARK    2  A    between atoms: N_10  and  C_11 
REMARK    3  A    between atoms: C_23  and  C_24 
ROOT
HETATM    1  C   UNK N   1      34.923  14.925   8.580  0.00  0.00     0.051 A 
HETATM    2  C   UNK N   1      35.491  14.725   7.310  0.00  0.00     0.030 A 
HETATM    3  C   UNK N   1      36.715  14.025   7.184  0.00  0.00     0.003 A 
HETATM    4  C   UNK N   1      37.369  13.507   8.321  0.00  0.00     0.015 A 
HETATM    5  C   UNK N   1      36.773  13.710   9.564  0.00  0.00     0.009 A 
HETATM    6  C   UNK N   1      35.582  14.401   9.687  0.00  0.00     0.054 A 
HETATM    7  C   UNK N   1      37.136  13.259  10.901  0.00  0.00     0.076 A 
HETATM    8  C   UNK N   1      36.220  13.641  11.813  0.00  0.00     0.073 A 
HETATM    9  C   UNK N   1      35.187  14.394  11.104  0.00  0.00     0.200 A 
HETATM   10  N   UNK N   1      38.095  12.509  11.457  0.00  0.00    -0.298 N 
ATOM     11  HN  UNK N   1      38.900  12.102  10.982  1.00  0.00     0.187 HD
HETATM   12  N   UNK N   1      37.795  12.395  12.751  0.00  0.00    -0.298 N 
HETATM   13  C   UNK N   1      36.650  13.087  13.005  0.00  0.00     0.083 A 
HETATM   14  O   UNK N   1      34.145  14.832  11.557  0.00  0.00    -0.286 OA
HETATM   15  H   UNK N   1      38.318  11.893  13.416  0.00  0.00     0.187 HD
ENDROOT
BRANCH   1  16
HETATM   16  N   UNK N   1      33.691  15.604   8.744  0.00  0.00    -0.307 N 
HETATM   17  C   UNK N   1      32.498  14.972   8.581  0.00  0.00     0.335 C 
HETATM   18  N   UNK N   1      31.347  15.682   8.492  0.00  0.00    -0.271 N 
HETATM   19  O   UNK N   1      32.454  13.753   8.490  0.00  0.00    -0.246 OA
HETATM   20  H   UNK N   1      30.491  15.196   8.468  0.00  0.00     0.185 HD
HETATM   21  H   UNK N   1      33.698  16.558   8.982  0.00  0.00     0.170 HD
BRANCH  18  22
HETATM   22  N   UNK N   1      31.328  17.077   8.432  0.00  0.00    -0.224 NA
HETATM   23  C   UNK N   1      30.108  17.618   9.053  0.00  0.00     0.144 C 
HETATM   24  C   UNK N   1      28.835  17.340   8.240  0.00  0.00     0.288 C 
HETATM   25  N   UNK N   1      29.126  16.639   6.993  0.00  0.00     0.086 N 
HETATM   26  C   UNK N   1      30.123  17.401   6.250  0.00  0.00     0.288 C 
HETATM   27  C   UNK N   1      27.904  16.644   6.211  0.00  0.00     0.310 C 
HETATM   28  C   UNK N   1      31.449  17.475   7.023  0.00  0.00     0.144 C 
ENDBRANCH  18  22
ENDBRANCH   1  16
BRANCH  13  29
HETATM   29  C   UNK N   1      36.001  13.103  14.336  0.00  0.00     0.058 A 
HETATM   30  S   UNK N   1      36.506  14.068  15.586  0.00  0.00    -0.073 SA
HETATM   31  C   UNK N   1      35.430  13.546  16.719  0.00  0.00     0.048 A 
HETATM   32  N   UNK N   1      34.611  12.614  16.175  0.00  0.00    -0.357 N 
HETATM   33  C   UNK N   1      35.356  14.000  18.132  0.00  0.00     0.076 C 
HETATM   34  C   UNK N   1      34.913  12.359  14.853  0.00  0.00     0.025 A 
ATOM     35  HN  UNK N   1      33.855  12.154  16.683  1.00  0.00     0.166 HD
HETATM   36  C   UNK N   1      34.086  11.410  14.073  0.00  0.00     0.070 C 
ENDBRANCH  13  29
TORSDOF 3
ENDMDL
MODEL 2
REMARK VINA RESULT:      -8.2      7.487     12.118
REMARK  3 active torsions:
REMARK  status: ('A' for Active; 'I' for Inactive)
REMARK    1  A    between atoms: N_3  and  N_8 
REMARK       I    between atoms: N_8  and  C_9 
REMARK       I    between atoms: C_9  and  N_10 
REMARK    2  A    between atoms: N_10  and  C_11 
REMARK    3  A    between atoms: C_23  and  C_24 
ROOT
HETATM    1  C   UNK N   1      23.022  18.218   4.246  0.00  0.00     0.051 A 
HETATM    2  C   UNK N   1      22.186  19.071   3.507  0.00  0.00     0.030 A 
HETATM    3  C   UNK N   1      22.720  20.232   2.896  0.00  0.00     0.003 A 
HETATM    4  C   UNK N   1      24.093  20.536   3.005  0.00  0.00     0.015 A 
HETATM    5  C   UNK N   1      24.898  19.663   3.732  0.00  0.00     0.009 A 
HETATM    6  C   UNK N   1      24.374  18.534   4.336  0.00  0.00     0.054 A 
HETATM    7  C   UNK N   1      26.334  19.641   3.977  0.00  0.00     0.076 A 
HETATM    8  C   UNK N   1      26.693  18.555   4.692  0.00  0.00     0.073 A 
HETATM    9  C   UNK N   1      25.477  17.795   4.970  0.00  0.00     0.200 A 
HETATM   10  N   UNK N   1      27.401  20.369   3.627  0.00  0.00    -0.298 N 
ATOM     11  HN  UNK N   1      27.395  21.235   3.088  1.00  0.00     0.187 HD
HETATM   12  N   UNK N   1      28.472  19.744   4.114  0.00  0.00    -0.298 N 
HETATM   13  C   UNK N   1      28.071  18.627   4.783  0.00  0.00     0.083 A 
HETATM   14  O   UNK N   1      25.388  16.708   5.512  0.00  0.00    -0.286 OA
HETATM   15  H   UNK N   1      29.404  20.043   4.009  0.00  0.00     0.187 HD
ENDROOT
BRANCH   1  16
HETATM   16  N   UNK N   1      22.528  17.039   4.856  0.00  0.00    -0.307 N 
HETATM   17  C   UNK N   1      22.009  17.046   6.112  0.00  0.00     0.335 C 
HETATM   18  N   UNK N   1      21.777  15.883   6.770  0.00  0.00    -0.271 N 
HETATM   19  O   UNK N   1      21.765  18.105   6.672  0.00  0.00    -0.246 OA
HETATM   20  H   UNK N   1      21.315  15.914   7.638  0.00  0.00     0.185 HD
HETATM   21  H   UNK N   1      22.562  16.192   4.356  0.00  0.00     0.170 HD
BRANCH  18  22
HETATM   22  N   UNK N   1      22.170  14.643   6.263  0.00  0.00    -0.224 NA
HETATM   23  C   UNK N   1      21.132  13.623   6.491  0.00  0.00     0.144 C 
HETATM   24  C   UNK N   1      20.980  13.226   7.967  0.00  0.00     0.288 C 
HETATM   25  N   UNK N   1      21.945  13.916   8.819  0.00  0.00     0.086 N 
HETATM   26  C   UNK N   1      23.285  13.677   8.298  0.00  0.00     0.288 C 
HETATM   27  C   UNK N   1      21.870  13.296  10.128  0.00  0.00     0.310 C 
HETATM   28  C   UNK N   1      23.446  14.276   6.892  0.00  0.00     0.144 C 
ENDBRANCH  18  22
ENDBRANCH   1  16
BRANCH  13  29
HETATM   29  C   UNK N   1      29.024  17.666   5.383  0.00  0.00     0.058 A 
HETATM   30  S   UNK N   1      30.010  16.678   4.489  0.00  0.00    -0.073 SA
HETATM   31  C   UNK N   1      30.716  15.875   5.742  0.00  0.00     0.048 A 
HETATM   32  N   UNK N   1      30.238  16.352   6.916  0.00  0.00    -0.357 N 
HETATM   33  C   UNK N   1      31.716  14.782   5.629  0.00  0.00     0.076 C 
HETATM   34  C   UNK N   1      29.300  17.347   6.735  0.00  0.00     0.025 A 
ATOM     35  HN  UNK N   1      30.538  16.014   7.831  1.00  0.00     0.166 HD
HETATM   36  C   UNK N   1      28.709  18.031   7.907  0.00  0.00     0.070 C 
ENDBRANCH  13  29
TORSDOF 3
ENDMDL
MODEL 3
REMARK VINA RESULT:      -7.9      7.177     12.435
REMARK  3 active torsions:
REMARK  status: ('A' for Active; 'I' for Inactive)
REMARK    1  A    between atoms: N_3  and  N_8 
REMARK       I    between atoms: N_8  and  C_9 
REMARK       I    between atoms: C_9  and  N_10 
REMARK    2  A    between atoms: N_10  and  C_11 
REMARK    3  A    between atoms: C_23  and  C_24 
ROOT
HETATM    1  C   UNK N   1      26.729  18.639   4.185  0.00  0.00     0.051 A 
HETATM    2  C   UNK N   1      26.992  19.815   3.461  0.00  0.00     0.030 A 
HETATM    3  C   UNK N   1      25.920  20.617   3.001  0.00  0.00     0.003 A 
HETATM    4  C   UNK N   1      24.584  20.261   3.276  0.00  0.00     0.015 A 
HETATM    5  C   UNK N   1      24.357  19.098   4.008  0.00  0.00     0.009 A 
HETATM    6  C   UNK N   1      25.404  18.310   4.449  0.00  0.00     0.054 A 
HETATM    7  C   UNK N   1      23.133  18.492   4.515  0.00  0.00     0.076 A 
HETATM    8  C   UNK N   1      23.398  17.386   5.240  0.00  0.00     0.073 A 
HETATM    9  C   UNK N   1      24.847  17.198   5.236  0.00  0.00     0.200 A 
HETATM   10  N   UNK N   1      21.825  18.774   4.515  0.00  0.00    -0.298 N 
ATOM     11  HN  UNK N   1      21.372  19.554   4.039  1.00  0.00     0.187 HD
HETATM   12  N   UNK N   1      21.229  17.841   5.257  0.00  0.00    -0.298 N 
HETATM   13  C   UNK N   1      22.168  16.966   5.713  0.00  0.00     0.083 A 
HETATM   14  O   UNK N   1      25.489  16.365   5.849  0.00  0.00    -0.286 OA
HETATM   15  H   UNK N   1      20.263  17.792   5.444  0.00  0.00     0.187 HD
ENDROOT
BRANCH   1  16
HETATM   16  N   UNK N   1      27.775  17.821   4.677  0.00  0.00    -0.307 N 
HETATM   17  C   UNK N   1      28.515  18.179   5.760  0.00  0.00     0.335 C 
HETATM   18  N   UNK N   1      29.660  17.519   6.062  0.00  0.00    -0.271 N 
HETATM   19  O   UNK N   1      28.166  19.116   6.463  0.00  0.00    -0.246 OA
HETATM   20  H   UNK N   1      30.125  17.737   6.902  0.00  0.00     0.185 HD
HETATM   21  H   UNK N   1      27.971  16.970   4.223  0.00  0.00     0.170 HD
BRANCH  18  22
HETATM   22  N   UNK N   1      30.207  16.542   5.228  0.00  0.00    -0.224 NA
HETATM   23  C   UNK N   1      30.845  15.471   6.010  0.00  0.00     0.144 C 
HETATM   24  C   UNK N   1      32.136  15.915   6.713  0.00  0.00     0.288 C 
HETATM   25  N   UNK N   1      32.476  17.301   6.404  0.00  0.00     0.086 N 
HETATM   26  C   UNK N   1      32.533  17.457   4.956  0.00  0.00     0.288 C 
HETATM   27  C   UNK N   1      33.813  17.531   6.918  0.00  0.00     0.310 C 
HETATM   28  C   UNK N   1      31.157  17.198   4.319  0.00  0.00     0.144 C 
ENDBRANCH  18  22
ENDBRANCH   1  16
BRANCH  13  29
HETATM   29  C   UNK N   1      21.845  15.849   6.630  0.00  0.00     0.058 A 
HETATM   30  S   UNK N   1      20.925  16.028   7.997  0.00  0.00    -0.073 SA
HETATM   31  C   UNK N   1      21.024  14.475   8.537  0.00  0.00     0.048 A 
HETATM   32  N   UNK N   1      21.757  13.736   7.669  0.00  0.00    -0.357 N 
HETATM   33  C   UNK N   1      20.424  13.942   9.787  0.00  0.00     0.076 C 
HETATM   34  C   UNK N   1      22.217  14.484   6.604  0.00  0.00     0.025 A 
ATOM     35  HN  UNK N   1      21.946  12.741   7.787  1.00  0.00     0.166 HD
HETATM   36  C   UNK N   1      22.989  13.833   5.521  0.00  0.00     0.070 C 
ENDBRANCH  13  29
TORSDOF 3
ENDMDL
MODEL 4
REMARK VINA RESULT:      -7.7      5.531      8.065
REMARK  3 active torsions:
REMARK  status: ('A' for Active; 'I' for Inactive)
REMARK    1  A    between atoms: N_3  and  N_8 
REMARK       I    between atoms: N_8  and  C_9 
REMARK       I    between atoms: C_9  and  N_10 
REMARK    2  A    between atoms: N_10  and  C_11 
REMARK    3  A    between atoms: C_23  and  C_24 
ROOT
HETATM    1  C   UNK N   1      36.747  13.975  15.423  0.00  0.00     0.051 A 
HETATM    2  C   UNK N   1      37.120  15.325  15.538  0.00  0.00     0.030 A 
HETATM    3  C   UNK N   1      36.911  16.017  16.756  0.00  0.00     0.003 A 
HETATM    4  C   UNK N   1      36.345  15.361  17.869  0.00  0.00     0.015 A 
HETATM    5  C   UNK N   1      35.999  14.019  17.727  0.00  0.00     0.009 A 
HETATM    6  C   UNK N   1      36.195  13.346  16.535  0.00  0.00     0.054 A 
HETATM    7  C   UNK N   1      35.471  13.047  18.675  0.00  0.00     0.076 A 
HETATM    8  C   UNK N   1      35.348  11.829  18.110  0.00  0.00     0.073 A 
HETATM    9  C   UNK N   1      35.789  11.945  16.722  0.00  0.00     0.200 A 
HETATM   10  N   UNK N   1      35.141  13.019  19.972  0.00  0.00    -0.298 N 
ATOM     11  HN  UNK N   1      35.148  13.809  20.617  1.00  0.00     0.187 HD
HETATM   12  N   UNK N   1      34.805  11.762  20.258  0.00  0.00    -0.298 N 
HETATM   13  C   UNK N   1      34.914  11.004  19.132  0.00  0.00     0.083 A 
HETATM   14  O   UNK N   1      35.914  11.051  15.906  0.00  0.00    -0.286 OA
HETATM   15  H   UNK N   1      34.522  11.434  21.142  0.00  0.00     0.187 HD
ENDROOT
BRANCH   1  16
HETATM   16  N   UNK N   1      36.958  13.245  14.228  0.00  0.00    -0.307 N 
HETATM   17  C   UNK N   1      35.995  13.140  13.274  0.00  0.00     0.335 C 
HETATM   18  N   UNK N   1      36.117  12.241  12.266  0.00  0.00    -0.271 N 
HETATM   19  O   UNK N   1      34.996  13.842  13.327  0.00  0.00    -0.246 OA
HETATM   20  H   UNK N   1      35.453  12.252  11.539  0.00  0.00     0.185 HD
HETATM   21  H   UNK N   1      37.825  12.802  14.085  0.00  0.00     0.170 HD
BRANCH  18  22
HETATM   22  N   UNK N   1      37.148  11.301  12.219  0.00  0.00    -0.224 NA
HETATM   23  C   UNK N   1      37.808  11.302  10.904  0.00  0.00     0.144 C 
HETATM   24  C   UNK N   1      36.931  10.731   9.780  0.00  0.00     0.288 C 
HETATM   25  N   UNK N   1      35.643  10.260  10.280  0.00  0.00     0.086 N 
HETATM   26  C   UNK N   1      35.879   9.309  11.360  0.00  0.00     0.288 C 
HETATM   27  C   UNK N   1      35.007   9.536   9.195  0.00  0.00     0.310 C 
HETATM   28  C   UNK N   1      36.581   9.986  12.547  0.00  0.00     0.144 C 
ENDBRANCH  18  22
ENDBRANCH   1  16
BRANCH  13  29
HETATM   29  C   UNK N   1      34.682   9.541  19.125  0.00  0.00     0.058 A 
HETATM   30  S   UNK N   1      33.238   8.844  19.541  0.00  0.00    -0.073 SA
HETATM   31  C   UNK N   1      33.695   7.270  19.377  0.00  0.00     0.048 A 
HETATM   32  N   UNK N   1      34.984   7.209  18.968  0.00  0.00    -0.357 N 
HETATM   33  C   UNK N   1      32.847   6.079  19.645  0.00  0.00     0.076 C 
HETATM   34  C   UNK N   1      35.546   8.461  18.821  0.00  0.00     0.025 A 
ATOM     35  HN  UNK N   1      35.484   6.339  18.788  1.00  0.00     0.166 HD
HETATM   36  C   UNK N   1      36.934   8.597  18.323  0.00  0.00     0.070 C 
ENDBRANCH  13  29
TORSDOF 3
ENDMDL
MODEL 5
REMARK VINA RESULT:      -7.7      4.192      9.729
REMARK  3 active torsions:
REMARK  status: ('A' for Active; 'I' for Inactive)
REMARK    1  A    between atoms: N_3  and  N_8 
REMARK       I    between atoms: N_8  and  C_9 
REMARK       I    between atoms: C_9  and  N_10 
REMARK    2  A    between atoms: N_10  and  C_11 
REMARK    3  A    between atoms: C_23  and  C_24 
ROOT
HETATM    1  C   UNK N   1      30.671  17.260   8.432  0.00  0.00     0.051 A 
HETATM    2  C   UNK N   1      29.803  18.171   9.059  0.00  0.00     0.030 A 
HETATM    3  C   UNK N   1      28.758  18.777   8.321  0.00  0.00     0.003 A 
HETATM    4  C   UNK N   1      28.563  18.464   6.960  0.00  0.00     0.015 A 
HETATM    5  C   UNK N   1      29.430  17.547   6.371  0.00  0.00     0.009 A 
HETATM    6  C   UNK N   1      30.456  16.962   7.090  0.00  0.00     0.054 A 
HETATM    7  C   UNK N   1      29.466  16.962   5.037  0.00  0.00     0.076 A 
HETATM    8  C   UNK N   1      30.458  16.055   4.927  0.00  0.00     0.073 A 
HETATM    9  C   UNK N   1      31.150  16.006   6.213  0.00  0.00     0.200 A 
HETATM   10  N   UNK N   1      28.740  17.029   3.916  0.00  0.00    -0.298 N 
ATOM     11  HN  UNK N   1      27.939  17.637   3.747  1.00  0.00     0.187 HD
HETATM   12  N   UNK N   1      29.261  16.147   3.064  0.00  0.00    -0.298 N 
HETATM   13  C   UNK N   1      30.326  15.535   3.652  0.00  0.00     0.083 A 
HETATM   14  O   UNK N   1      32.044  15.250   6.547  0.00  0.00    -0.286 OA
HETATM   15  H   UNK N   1      28.930  15.968   2.154  0.00  0.00     0.187 HD
ENDROOT
BRANCH   1  16
HETATM   16  N   UNK N   1      31.716  16.620   9.142  0.00  0.00    -0.307 N 
HETATM   17  C   UNK N   1      33.007  17.034   9.044  0.00  0.00     0.335 C 
HETATM   18  N   UNK N   1      34.017  16.266   9.522  0.00  0.00    -0.271 N 
HETATM   19  O   UNK N   1      33.274  18.097   8.502  0.00  0.00    -0.246 OA
HETATM   20  H   UNK N   1      34.931  16.632   9.522  0.00  0.00     0.185 HD
HETATM   21  H   UNK N   1      31.501  15.855   9.722  0.00  0.00     0.170 HD
BRANCH  18  22
HETATM   22  N   UNK N   1      33.811  14.976  10.014  0.00  0.00    -0.224 NA
HETATM   23  C   UNK N   1      34.484  14.788  11.309  0.00  0.00     0.144 C 
HETATM   24  C   UNK N   1      36.016  14.746  11.200  0.00  0.00     0.288 C 
HETATM   25  N   UNK N   1      36.467  14.850   9.816  0.00  0.00     0.086 N 
HETATM   26  C   UNK N   1      35.810  13.813   9.030  0.00  0.00     0.288 C 
HETATM   27  C   UNK N   1      37.889  14.562   9.812  0.00  0.00     0.310 C 
HETATM   28  C   UNK N   1      34.287  14.021   9.004  0.00  0.00     0.144 C 
ENDBRANCH  18  22
ENDBRANCH   1  16
BRANCH  13  29
HETATM   29  C   UNK N   1      31.086  14.445   2.998  0.00  0.00     0.058 A 
HETATM   30  S   UNK N   1      30.379  13.072   2.399  0.00  0.00    -0.073 SA
HETATM   31  C   UNK N   1      31.753  12.313   1.900  0.00  0.00     0.048 A 
HETATM   32  N   UNK N   1      32.826  13.099   2.154  0.00  0.00    -0.357 N 
HETATM   33  C   UNK N   1      31.834  10.966   1.279  0.00  0.00     0.076 C 
HETATM   34  C   UNK N   1      32.473  14.287   2.761  0.00  0.00     0.025 A 
ATOM     35  HN  UNK N   1      33.787  12.845   1.923  1.00  0.00     0.166 HD
HETATM   36  C   UNK N   1      33.508  15.302   3.063  0.00  0.00     0.070 C 
ENDBRANCH  13  29
TORSDOF 3
ENDMDL
MODEL 6
REMARK VINA RESULT:      -7.7      7.102     11.390
REMARK  3 active torsions:
REMARK  status: ('A' for Active; 'I' for Inactive)
REMARK    1  A    between atoms: N_3  and  N_8 
REMARK       I    between atoms: N_8  and  C_9 
REMARK       I    between atoms: C_9  and  N_10 
REMARK    2  A    between atoms: N_10  and  C_11 
REMARK    3  A    between atoms: C_23  and  C_24 
ROOT
HETATM    1  C   UNK N   1      23.783  16.677   5.090  0.00  0.00     0.051 A 
HETATM    2  C   UNK N   1      22.675  17.282   4.473  0.00  0.00     0.030 A 
HETATM    3  C   UNK N   1      22.826  18.518   3.800  0.00  0.00     0.003 A 
HETATM    4  C   UNK N   1      24.085  19.147   3.723  0.00  0.00     0.015 A 
HETATM    5  C   UNK N   1      25.167  18.516   4.333  0.00  0.00     0.009 A 
HETATM    6  C   UNK N   1      25.017  17.313   4.998  0.00  0.00     0.054 A 
HETATM    7  C   UNK N   1      26.584  18.848   4.383  0.00  0.00     0.076 A 
HETATM    8  C   UNK N   1      27.287  17.903   5.039  0.00  0.00     0.073 A 
HETATM    9  C   UNK N   1      26.339  16.880   5.475  0.00  0.00     0.200 A 
HETATM   10  N   UNK N   1      27.387  19.801   3.894  0.00  0.00    -0.298 N 
ATOM     11  HN  UNK N   1      27.100  20.624   3.364  1.00  0.00     0.187 HD
HETATM   12  N   UNK N   1      28.632  19.468   4.231  0.00  0.00    -0.298 N 
HETATM   13  C   UNK N   1      28.606  18.307   4.943  0.00  0.00     0.083 A 
HETATM   14  O   UNK N   1      26.589  15.820   6.021  0.00  0.00    -0.286 OA
HETATM   15  H   UNK N   1      29.442  19.979   4.002  0.00  0.00     0.187 HD
ENDROOT
BRANCH   1  16
HETATM   16  N   UNK N   1      23.674  15.432   5.757  0.00  0.00    -0.307 N 
HETATM   17  C   UNK N   1      22.858  15.264   6.831  0.00  0.00     0.335 C 
HETATM   18  N   UNK N   1      22.955  14.154   7.604  0.00  0.00    -0.271 N 
HETATM   19  O   UNK N   1      22.041  16.125   7.126  0.00  0.00    -0.246 OA
HETATM   20  H   UNK N   1      22.291  14.015   8.318  0.00  0.00     0.185 HD
HETATM   21  H   UNK N   1      24.204  14.669   5.433  0.00  0.00     0.170 HD
BRANCH  18  22
HETATM   22  N   UNK N   1      23.960  13.201   7.428  0.00  0.00    -0.224 NA
HETATM   23  C   UNK N   1      23.437  11.838   7.616  0.00  0.00     0.144 C 
HETATM   24  C   UNK N   1      23.077  11.518   9.074  0.00  0.00     0.288 C 
HETATM   25  N   UNK N   1      23.384  12.630   9.968  0.00  0.00     0.086 N 
HETATM   26  C   UNK N   1      24.784  12.998   9.794  0.00  0.00     0.288 C 
HETATM   27  C   UNK N   1      23.230  12.137  11.324  0.00  0.00     0.310 C 
HETATM   28  C   UNK N   1      25.047  13.506   8.367  0.00  0.00     0.144 C 
ENDBRANCH  18  22
ENDBRANCH   1  16
BRANCH  13  29
HETATM   29  C   UNK N   1      29.835  17.623   5.407  0.00  0.00     0.058 A 
HETATM   30  S   UNK N   1      31.096  17.234   4.404  0.00  0.00    -0.073 SA
HETATM   31  C   UNK N   1      32.041  16.476   5.521  0.00  0.00     0.048 A 
HETATM   32  N   UNK N   1      31.434  16.509   6.731  0.00  0.00    -0.357 N 
HETATM   33  C   UNK N   1      33.356  15.832   5.263  0.00  0.00     0.076 C 
HETATM   34  C   UNK N   1      30.210  17.144   6.685  0.00  0.00     0.025 A 
ATOM     35  HN  UNK N   1      31.835  16.111   7.580  1.00  0.00     0.166 HD
HETATM   36  C   UNK N   1      29.424  17.329   7.927  0.00  0.00     0.070 C 
ENDBRANCH  13  29
TORSDOF 3
ENDMDL
MODEL 7
REMARK VINA RESULT:      -7.6      4.787      8.288
REMARK  3 active torsions:
REMARK  status: ('A' for Active; 'I' for Inactive)
REMARK    1  A    between atoms: N_3  and  N_8 
REMARK       I    between atoms: N_8  and  C_9 
REMARK       I    between atoms: C_9  and  N_10 
REMARK    2  A    between atoms: N_10  and  C_11 
REMARK    3  A    between atoms: C_23  and  C_24 
ROOT
HETATM    1  C   UNK N   1      35.503  12.819  16.594  0.00  0.00     0.051 A 
HETATM    2  C   UNK N   1      35.098  13.733  17.581  0.00  0.00     0.030 A 
HETATM    3  C   UNK N   1      35.040  13.332  18.938  0.00  0.00     0.003 A 
HETATM    4  C   UNK N   1      35.405  12.024  19.318  0.00  0.00     0.015 A 
HETATM    5  C   UNK N   1      35.816  11.146  18.319  0.00  0.00     0.009 A 
HETATM    6  C   UNK N   1      35.863  11.535  16.993  0.00  0.00     0.054 A 
HETATM    7  C   UNK N   1      36.316   9.778  18.372  0.00  0.00     0.076 A 
HETATM    8  C   UNK N   1      36.662   9.335  17.147  0.00  0.00     0.073 A 
HETATM    9  C   UNK N   1      36.390  10.414  16.199  0.00  0.00     0.200 A 
HETATM   10  N   UNK N   1      36.589   8.869  19.315  0.00  0.00    -0.298 N 
ATOM     11  HN  UNK N   1      36.418   8.962  20.316  1.00  0.00     0.187 HD
HETATM   12  N   UNK N   1      37.128   7.820  18.695  0.00  0.00    -0.298 N 
HETATM   13  C   UNK N   1      37.181   8.071  17.358  0.00  0.00     0.083 A 
HETATM   14  O   UNK N   1      36.648  10.440  15.010  0.00  0.00    -0.286 OA
HETATM   15  H   UNK N   1      37.438   6.994  19.134  0.00  0.00     0.187 HD
ENDROOT
BRANCH   1  16
HETATM   16  N   UNK N   1      35.591  13.188  15.230  0.00  0.00    -0.307 N 
HETATM   17  C   UNK N   1      36.599  13.971  14.763  0.00  0.00     0.335 C 
HETATM   18  N   UNK N   1      36.532  14.518  13.525  0.00  0.00    -0.271 N 
HETATM   19  O   UNK N   1      37.571  14.208  15.466  0.00  0.00    -0.246 OA
HETATM   20  H   UNK N   1      37.316  15.002  13.177  0.00  0.00     0.185 HD
HETATM   21  H   UNK N   1      34.902  12.869  14.603  0.00  0.00     0.170 HD
BRANCH  18  22
HETATM   22  N   UNK N   1      35.394  14.423  12.722  0.00  0.00    -0.224 NA
HETATM   23  C   UNK N   1      35.349  13.132  12.016  0.00  0.00     0.144 C 
HETATM   24  C   UNK N   1      36.412  13.002  10.915  0.00  0.00     0.288 C 
HETATM   25  N   UNK N   1      37.205  14.220  10.777  0.00  0.00     0.086 N 
HETATM   26  C   UNK N   1      36.302  15.346  10.568  0.00  0.00     0.288 C 
HETATM   27  C   UNK N   1      37.999  14.072   9.571  0.00  0.00     0.310 C 
HETATM   28  C   UNK N   1      35.395  15.558  11.791  0.00  0.00     0.144 C 
ENDBRANCH  18  22
ENDBRANCH   1  16
BRANCH  13  29
HETATM   29  C   UNK N   1      37.796   7.133  16.390  0.00  0.00     0.058 A 
HETATM   30  S   UNK N   1      39.312   6.492  16.578  0.00  0.00    -0.073 SA
HETATM   31  C   UNK N   1      39.367   5.633  15.173  0.00  0.00     0.048 A 
HETATM   32  N   UNK N   1      38.200   5.785  14.500  0.00  0.00    -0.357 N 
HETATM   33  C   UNK N   1      40.512   4.822  14.685  0.00  0.00     0.076 C 
HETATM   34  C   UNK N   1      37.317   6.612  15.163  0.00  0.00     0.025 A 
ATOM     35  HN  UNK N   1      37.996   5.338  13.607  1.00  0.00     0.166 HD
HETATM   36  C   UNK N   1      35.965   6.849  14.609  0.00  0.00     0.070 C 
ENDBRANCH  13  29
TORSDOF 3
ENDMDL
MODEL 8
REMARK VINA RESULT:      -7.5      6.337      8.992
REMARK  3 active torsions:
REMARK  status: ('A' for Active; 'I' for Inactive)
REMARK    1  A    between atoms: N_3  and  N_8 
REMARK       I    between atoms: N_8  and  C_9 
REMARK       I    between atoms: C_9  and  N_10 
REMARK    2  A    between atoms: N_10  and  C_11 
REMARK    3  A    between atoms: C_23  and  C_24 
ROOT
HETATM    1  C   UNK N   1      28.446  17.749   7.403  0.00  0.00     0.051 A 
HETATM    2  C   UNK N   1      28.164  18.455   8.585  0.00  0.00     0.030 A 
HETATM    3  C   UNK N   1      29.189  18.689   9.532  0.00  0.00     0.003 A 
HETATM    4  C   UNK N   1      30.504  18.235   9.298  0.00  0.00     0.015 A 
HETATM    5  C   UNK N   1      30.755  17.551   8.110  0.00  0.00     0.009 A 
HETATM    6  C   UNK N   1      29.750  17.316   7.189  0.00  0.00     0.054 A 
HETATM    7  C   UNK N   1      31.983  17.021   7.536  0.00  0.00     0.076 A 
HETATM    8  C   UNK N   1      31.764  16.486   6.317  0.00  0.00     0.073 A 
HETATM    9  C   UNK N   1      30.339  16.632   6.027  0.00  0.00     0.200 A 
HETATM   10  N   UNK N   1      33.282  16.983   7.858  0.00  0.00    -0.298 N 
ATOM     11  HN  UNK N   1      33.703  17.321   8.723  1.00  0.00     0.187 HD
HETATM   12  N   UNK N   1      33.919  16.422   6.831  0.00  0.00    -0.298 N 
HETATM   13  C   UNK N   1      33.012  16.097   5.868  0.00  0.00     0.083 A 
HETATM   14  O   UNK N   1      29.760  16.355   4.993  0.00  0.00    -0.286 OA
HETATM   15  H   UNK N   1      34.890  16.265   6.778  0.00  0.00     0.187 HD
ENDROOT
BRANCH   1  16
HETATM   16  N   UNK N   1      27.451  17.513   6.423  0.00  0.00    -0.307 N 
HETATM   17  C   UNK N   1      26.660  16.407   6.458  0.00  0.00     0.335 C 
HETATM   18  N   UNK N   1      25.897  16.071   5.389  0.00  0.00    -0.271 N 
HETATM   19  O   UNK N   1      26.647  15.690   7.448  0.00  0.00    -0.246 OA
HETATM   20  H   UNK N   1      25.265  15.321   5.476  0.00  0.00     0.185 HD
HETATM   21  H   UNK N   1      27.328  18.167   5.698  0.00  0.00     0.170 HD
BRANCH  18  22
HETATM   22  N   UNK N   1      25.971  16.747   4.170  0.00  0.00    -0.224 NA
HETATM   23  C   UNK N   1      24.862  17.705   4.025  0.00  0.00     0.144 C 
HETATM   24  C   UNK N   1      23.497  17.031   3.826  0.00  0.00     0.288 C 
HETATM   25  N   UNK N   1      23.610  15.576   3.771  0.00  0.00     0.086 N 
HETATM   26  C   UNK N   1      24.578  15.220   2.741  0.00  0.00     0.288 C 
HETATM   27  C   UNK N   1      22.318  15.068   3.347  0.00  0.00     0.310 C 
HETATM   28  C   UNK N   1      25.977  15.748   3.093  0.00  0.00     0.144 C 
ENDBRANCH  18  22
ENDBRANCH   1  16
BRANCH  13  29
HETATM   29  C   UNK N   1      33.403  15.521   4.561  0.00  0.00     0.058 A 
HETATM   30  S   UNK N   1      34.307  14.140   4.405  0.00  0.00    -0.073 SA
HETATM   31  C   UNK N   1      34.410  14.125   2.761  0.00  0.00     0.048 A 
HETATM   32  N   UNK N   1      33.728  15.179   2.252  0.00  0.00    -0.357 N 
HETATM   33  C   UNK N   1      35.145  13.130   1.938  0.00  0.00     0.076 C 
HETATM   34  C   UNK N   1      33.162  15.962   3.237  0.00  0.00     0.025 A 
ATOM     35  HN  UNK N   1      33.641  15.372   1.254  1.00  0.00     0.166 HD
HETATM   36  C   UNK N   1      32.326  17.128   2.869  0.00  0.00     0.070 C 
ENDBRANCH  13  29
TORSDOF 3
ENDMDL
MODEL 9
REMARK VINA RESULT:      -7.5      4.271      7.860
REMARK  3 active torsions:
REMARK  status: ('A' for Active; 'I' for Inactive)
REMARK    1  A    between atoms: N_3  and  N_8 
REMARK       I    between atoms: N_8  and  C_9 
REMARK       I    between atoms: C_9  and  N_10 
REMARK    2  A    between atoms: N_10  and  C_11 
REMARK    3  A    between atoms: C_23  and  C_24 
ROOT
HETATM    1  C   UNK N   1      34.851  12.421  11.699  0.00  0.00     0.051 A 
HETATM    2  C   UNK N   1      35.469  12.337  12.958  0.00  0.00     0.030 A 
HETATM    3  C   UNK N   1      36.039  13.491  13.546  0.00  0.00     0.003 A 
HETATM    4  C   UNK N   1      35.980  14.738  12.890  0.00  0.00     0.015 A 
HETATM    5  C   UNK N   1      35.349  14.792  11.649  0.00  0.00     0.009 A 
HETATM    6  C   UNK N   1      34.800  13.662  11.071  0.00  0.00     0.054 A 
HETATM    7  C   UNK N   1      35.058  15.904  10.755  0.00  0.00     0.076 A 
HETATM    8  C   UNK N   1      34.359  15.496   9.677  0.00  0.00     0.073 A 
HETATM    9  C   UNK N   1      34.161  14.054   9.806  0.00  0.00     0.200 A 
HETATM   10  N   UNK N   1      35.234  17.230  10.748  0.00  0.00    -0.298 N 
ATOM     11  HN  UNK N   1      35.731  17.781  11.449  1.00  0.00     0.187 HD
HETATM   12  N   UNK N   1      34.635  17.694   9.652  0.00  0.00    -0.298 N 
HETATM   13  C   UNK N   1      34.092  16.651   8.965  0.00  0.00     0.083 A 
HETATM   14  O   UNK N   1      33.503  13.327   9.083  0.00  0.00    -0.286 OA
HETATM   15  H   UNK N   1      34.593  18.640   9.381  0.00  0.00     0.187 HD
ENDROOT
BRANCH   1  16
HETATM   16  N   UNK N   1      34.254  11.292  11.087  0.00  0.00    -0.307 N 
HETATM   17  C   UNK N   1      34.977  10.416  10.340  0.00  0.00     0.335 C 
HETATM   18  N   UNK N   1      34.355   9.495   9.562  0.00  0.00    -0.271 N 
HETATM   19  O   UNK N   1      36.198  10.464  10.344  0.00  0.00    -0.246 OA
HETATM   20  H   UNK N   1      34.901   8.815   9.106  0.00  0.00     0.185 HD
HETATM   21  H   UNK N   1      33.289  11.138  11.207  0.00  0.00     0.170 HD
BRANCH  18  22
HETATM   22  N   UNK N   1      32.971   9.475   9.383  0.00  0.00    -0.224 NA
HETATM   23  C   UNK N   1      32.387   8.228   9.902  0.00  0.00     0.144 C 
HETATM   24  C   UNK N   1      32.741   6.992   9.061  0.00  0.00     0.288 C 
HETATM   25  N   UNK N   1      33.543   7.340   7.893  0.00  0.00     0.086 N 
HETATM   26  C   UNK N   1      32.841   8.366   7.131  0.00  0.00     0.288 C 
HETATM   27  C   UNK N   1      33.613   6.153   7.060  0.00  0.00     0.310 C 
HETATM   28  C   UNK N   1      32.693   9.657   7.952  0.00  0.00     0.144 C 
ENDBRANCH  18  22
ENDBRANCH   1  16
BRANCH  13  29
HETATM   29  C   UNK N   1      33.290  16.833   7.734  0.00  0.00     0.058 A 
HETATM   30  S   UNK N   1      33.950  16.893   6.215  0.00  0.00    -0.073 SA
HETATM   31  C   UNK N   1      32.557  17.164   5.377  0.00  0.00     0.048 A 
HETATM   32  N   UNK N   1      31.509  17.197   6.234  0.00  0.00    -0.357 N 
HETATM   33  C   UNK N   1      32.442  17.361   3.909  0.00  0.00     0.076 C 
HETATM   34  C   UNK N   1      31.898  17.013   7.545  0.00  0.00     0.025 A 
ATOM     35  HN  UNK N   1      30.542  17.341   5.945  1.00  0.00     0.166 HD
HETATM   36  C   UNK N   1      30.881  16.959   8.620  0.00  0.00     0.070 C 
ENDBRANCH  13  29
TORSDOF 3
ENDMDL
