MODEL 1
REMARK VINA RESULT:      -4.9      0.000      0.000
REMARK  3 active torsions:
REMARK  status: ('A' for Active; 'I' for Inactive)
REMARK    1  A    between atoms: C_7  and  S_8 
REMARK    2  A    between atoms: S_8  and  S_9 
REMARK    3  A    between atoms: S_9  and  C_10 
ROOT
HETATM    1  S   UNK N   1      34.147  11.281  14.647  0.00  0.00    -0.052 SA
ENDROOT
BRANCH   1   2
HETATM    2  C   UNK N   1      35.447  12.034  13.657  0.00  0.00     0.014 A 
HETATM    3  C   UNK N   1      36.525  11.297  13.154  0.00  0.00     0.036 A 
HETATM    4  C   UNK N   1      37.503  11.936  12.393  0.00  0.00     0.089 A 
HETATM    5  N   UNK N   1      37.407  13.269  12.141  0.00  0.00    -0.375 N 
HETATM    6  C   UNK N   1      36.368  14.008  12.619  0.00  0.00     0.089 A 
ATOM      7  HN  UNK N   1      38.128  13.725  11.583  1.00  0.00     0.164 HD
HETATM    8  C   UNK N   1      35.371  13.401  13.385  0.00  0.00     0.036 A 
ENDBRANCH   1   2
BRANCH   1   9
HETATM    9  S   UNK N   1      35.402  10.266  16.065  0.00  0.00    -0.052 SA
BRANCH   9  10
HETATM   10  C   UNK N   1      35.347  11.498  17.374  0.00  0.00     0.014 A 
HETATM   11  C   UNK N   1      35.204  12.865  17.108  0.00  0.00     0.036 A 
HETATM   12  C   UNK N   1      35.168  13.772  18.166  0.00  0.00     0.089 A 
HETATM   13  N   UNK N   1      35.271  13.330  19.448  0.00  0.00    -0.375 N 
HETATM   14  C   UNK N   1      35.410  12.007  19.731  0.00  0.00     0.089 A 
ATOM     15  HN  UNK N   1      35.243  14.004  20.213  1.00  0.00     0.164 HD
HETATM   16  C   UNK N   1      35.450  11.069  18.698  0.00  0.00     0.036 A 
ENDBRANCH   9  10
ENDBRANCH   1   9
TORSDOF 3
ENDMDL
MODEL 2
REMARK VINA RESULT:      -4.8     14.353     15.428
REMARK  3 active torsions:
REMARK  status: ('A' for Active; 'I' for Inactive)
REMARK    1  A    between atoms: C_7  and  S_8 
REMARK    2  A    between atoms: S_8  and  S_9 
REMARK    3  A    between atoms: S_9  and  C_10 
ROOT
HETATM    1  S   UNK N   1      20.501  14.536   9.200  0.00  0.00    -0.052 SA
ENDROOT
BRANCH   1   2
HETATM    2  C   UNK N   1      21.091  15.688   7.950  0.00  0.00     0.014 A 
HETATM    3  C   UNK N   1      20.508  16.946   7.760  0.00  0.00     0.036 A 
HETATM    4  C   UNK N   1      21.008  17.796   6.774  0.00  0.00     0.089 A 
HETATM    5  N   UNK N   1      22.058  17.402   6.004  0.00  0.00    -0.375 N 
HETATM    6  C   UNK N   1      22.642  16.184   6.171  0.00  0.00     0.089 A 
ATOM      7  HN  UNK N   1      22.415  18.033   5.287  1.00  0.00     0.164 HD
HETATM    8  C   UNK N   1      22.167  15.307   7.147  0.00  0.00     0.036 A 
ENDBRANCH   1   2
BRANCH   1   9
HETATM    9  S   UNK N   1      21.436  12.760   8.435  0.00  0.00    -0.052 SA
BRANCH   9  10
HETATM   10  C   UNK N   1      22.602  12.492   9.778  0.00  0.00     0.014 A 
HETATM   11  C   UNK N   1      23.987  12.575   9.593  0.00  0.00     0.036 A 
HETATM   12  C   UNK N   1      24.841  12.357  10.674  0.00  0.00     0.089 A 
HETATM   13  N   UNK N   1      24.329  12.065  11.899  0.00  0.00    -0.375 N 
HETATM   14  C   UNK N   1      22.987  11.978  12.103  0.00  0.00     0.089 A 
ATOM     15  HN  UNK N   1      24.964  11.908  12.681  1.00  0.00     0.164 HD
HETATM   16  C   UNK N   1      22.101  12.190  11.045  0.00  0.00     0.036 A 
ENDBRANCH   9  10
ENDBRANCH   1   9
TORSDOF 3
ENDMDL
MODEL 3
REMARK VINA RESULT:      -4.8      0.141      5.490
REMARK  3 active torsions:
REMARK  status: ('A' for Active; 'I' for Inactive)
REMARK    1  A    between atoms: C_7  and  S_8 
REMARK    2  A    between atoms: S_8  and  S_9 
REMARK    3  A    between atoms: S_9  and  C_10 
ROOT
HETATM    1  S   UNK N   1      35.290  10.240  16.092  0.00  0.00    -0.052 SA
ENDROOT
BRANCH   1   2
HETATM    2  C   UNK N   1      35.294  11.436  17.435  0.00  0.00     0.014 A 
HETATM    3  C   UNK N   1      35.459  11.057  18.773  0.00  0.00     0.036 A 
HETATM    4  C   UNK N   1      35.453  12.031  19.771  0.00  0.00     0.089 A 
HETATM    5  N   UNK N   1      35.289  13.340  19.444  0.00  0.00    -0.375 N 
HETATM    6  C   UNK N   1      35.127  13.734  18.151  0.00  0.00     0.089 A 
ATOM      7  HN  UNK N   1      35.287  14.043  20.184  1.00  0.00     0.164 HD
HETATM    8  C   UNK N   1      35.128  12.787  17.125  0.00  0.00     0.036 A 
ENDBRANCH   1   2
BRANCH   1   9
HETATM    9  S   UNK N   1      34.073  11.346  14.710  0.00  0.00    -0.052 SA
BRANCH   9  10
HETATM   10  C   UNK N   1      35.398  12.075  13.737  0.00  0.00     0.014 A 
HETATM   11  C   UNK N   1      35.362  13.406  13.305  0.00  0.00     0.036 A 
HETATM   12  C   UNK N   1      36.420  13.915  12.552  0.00  0.00     0.089 A 
HETATM   13  N   UNK N   1      37.479  13.121  12.241  0.00  0.00    -0.375 N 
HETATM   14  C   UNK N   1      37.537  11.824  12.650  0.00  0.00     0.089 A 
ATOM     15  HN  UNK N   1      38.247  13.505  11.690  1.00  0.00     0.164 HD
HETATM   16  C   UNK N   1      36.496  11.280  13.404  0.00  0.00     0.036 A 
ENDBRANCH   9  10
ENDBRANCH   1   9
TORSDOF 3
ENDMDL
MODEL 4
REMARK VINA RESULT:      -4.8      1.036      2.097
REMARK  3 active torsions:
REMARK  status: ('A' for Active; 'I' for Inactive)
REMARK    1  A    between atoms: C_7  and  S_8 
REMARK    2  A    between atoms: S_8  and  S_9 
REMARK    3  A    between atoms: S_9  and  C_10 
ROOT
HETATM    1  S   UNK N   1      37.042  10.735  15.334  0.00  0.00    -0.052 SA
ENDROOT
BRANCH   1   2
HETATM    2  C   UNK N   1      36.935  12.096  14.163  0.00  0.00     0.014 A 
HETATM    3  C   UNK N   1      36.490  13.370  14.537  0.00  0.00     0.036 A 
HETATM    4  C   UNK N   1      36.428  14.386  13.585  0.00  0.00     0.089 A 
HETATM    5  N   UNK N   1      36.799  14.139  12.300  0.00  0.00    -0.375 N 
HETATM    6  C   UNK N   1      37.235  12.909  11.912  0.00  0.00     0.089 A 
ATOM      7  HN  UNK N   1      36.750  14.890  11.612  1.00  0.00     0.164 HD
HETATM    8  C   UNK N   1      37.310  11.868  12.839  0.00  0.00     0.036 A 
ENDBRANCH   1   2
BRANCH   1   9
HETATM    9  S   UNK N   1      34.990  10.727  15.971  0.00  0.00    -0.052 SA
BRANCH   9  10
HETATM   10  C   UNK N   1      35.230  11.458  17.597  0.00  0.00     0.014 A 
HETATM   11  C   UNK N   1      35.614  10.699  18.708  0.00  0.00     0.036 A 
HETATM   12  C   UNK N   1      35.785  11.322  19.944  0.00  0.00     0.089 A 
HETATM   13  N   UNK N   1      35.579  12.661  20.066  0.00  0.00    -0.375 N 
HETATM   14  C   UNK N   1      35.205  13.420  19.000  0.00  0.00     0.089 A 
ATOM     15  HN  UNK N   1      35.707  13.105  20.975  1.00  0.00     0.164 HD
HETATM   16  C   UNK N   1      35.025  12.830  17.748  0.00  0.00     0.036 A 
ENDBRANCH   9  10
ENDBRANCH   1   9
TORSDOF 3
ENDMDL
MODEL 5
REMARK VINA RESULT:      -4.7     14.298     16.053
REMARK  3 active torsions:
REMARK  status: ('A' for Active; 'I' for Inactive)
REMARK    1  A    between atoms: C_7  and  S_8 
REMARK    2  A    between atoms: S_8  and  S_9 
REMARK    3  A    between atoms: S_9  and  C_10 
ROOT
HETATM    1  S   UNK N   1      22.128  12.913   7.684  0.00  0.00    -0.052 SA
ENDROOT
BRANCH   1   2
HETATM    2  C   UNK N   1      22.825  12.593   9.311  0.00  0.00     0.014 A 
HETATM    3  C   UNK N   1      22.023  12.324  10.427  0.00  0.00     0.036 A 
HETATM    4  C   UNK N   1      22.621  12.083  11.663  0.00  0.00     0.089 A 
HETATM    5  N   UNK N   1      23.975  12.110  11.782  0.00  0.00    -0.375 N 
HETATM    6  C   UNK N   1      24.776  12.369  10.712  0.00  0.00     0.089 A 
ATOM      7  HN  UNK N   1      24.401  11.932  12.692  1.00  0.00     0.164 HD
HETATM    8  C   UNK N   1      24.212  12.615   9.458  0.00  0.00     0.036 A 
ENDBRANCH   1   2
BRANCH   1   9
HETATM    9  S   UNK N   1      20.782  14.493   8.241  0.00  0.00    -0.052 SA
BRANCH   9  10
HETATM   10  C   UNK N   1      21.508  15.802   7.244  0.00  0.00     0.014 A 
HETATM   11  C   UNK N   1      20.903  17.057   7.103  0.00  0.00     0.036 A 
HETATM   12  C   UNK N   1      21.514  18.032   6.316  0.00  0.00     0.089 A 
HETATM   13  N   UNK N   1      22.691  17.764   5.690  0.00  0.00    -0.375 N 
HETATM   14  C   UNK N   1      23.298  16.552   5.811  0.00  0.00     0.089 A 
ATOM     15  HN  UNK N   1      23.128  18.486   5.117  1.00  0.00     0.164 HD
HETATM   16  C   UNK N   1      22.716  15.552   6.591  0.00  0.00     0.036 A 
ENDBRANCH   9  10
ENDBRANCH   1   9
TORSDOF 3
ENDMDL
MODEL 6
REMARK VINA RESULT:      -4.7     10.832     13.203
REMARK  3 active torsions:
REMARK  status: ('A' for Active; 'I' for Inactive)
REMARK    1  A    between atoms: C_7  and  S_8 
REMARK    2  A    between atoms: S_8  and  S_9 
REMARK    3  A    between atoms: S_9  and  C_10 
ROOT
HETATM    1  S   UNK N   1      28.707  17.862   7.540  0.00  0.00    -0.052 SA
ENDROOT
BRANCH   1   2
HETATM    2  C   UNK N   1      27.978  19.007   6.358  0.00  0.00     0.014 A 
HETATM    3  C   UNK N   1      27.959  18.748   4.983  0.00  0.00     0.036 A 
HETATM    4  C   UNK N   1      27.380  19.673   4.115  0.00  0.00     0.089 A 
HETATM    5  N   UNK N   1      26.838  20.819   4.605  0.00  0.00    -0.375 N 
HETATM    6  C   UNK N   1      26.844  21.093   5.939  0.00  0.00     0.089 A 
ATOM      7  HN  UNK N   1      26.417  21.488   3.960  1.00  0.00     0.164 HD
HETATM    8  C   UNK N   1      27.415  20.190   6.837  0.00  0.00     0.036 A 
ENDBRANCH   1   2
BRANCH   1   9
HETATM    9  S   UNK N   1      29.748  16.610   6.140  0.00  0.00    -0.052 SA
BRANCH   9  10
HETATM   10  C   UNK N   1      31.426  17.097   6.568  0.00  0.00     0.014 A 
HETATM   11  C   UNK N   1      32.477  17.046   5.644  0.00  0.00     0.036 A 
HETATM   12  C   UNK N   1      33.757  17.437   6.035  0.00  0.00     0.089 A 
HETATM   13  N   UNK N   1      33.981  17.865   7.306  0.00  0.00    -0.375 N 
HETATM   14  C   UNK N   1      32.975  17.924   8.221  0.00  0.00     0.089 A 
ATOM     15  HN  UNK N   1      34.922  18.149   7.580  1.00  0.00     0.164 HD
HETATM   16  C   UNK N   1      31.681  17.540   7.866  0.00  0.00     0.036 A 
ENDBRANCH   9  10
ENDBRANCH   1   9
TORSDOF 3
ENDMDL
MODEL 7
REMARK VINA RESULT:      -4.7     10.848     13.343
REMARK  3 active torsions:
REMARK  status: ('A' for Active; 'I' for Inactive)
REMARK    1  A    between atoms: C_7  and  S_8 
REMARK    2  A    between atoms: S_8  and  S_9 
REMARK    3  A    between atoms: S_9  and  C_10 
ROOT
HETATM    1  S   UNK N   1      29.740  16.654   6.235  0.00  0.00    -0.052 SA
ENDROOT
BRANCH   1   2
HETATM    2  C   UNK N   1      31.439  17.109   6.615  0.00  0.00     0.014 A 
HETATM    3  C   UNK N   1      32.464  17.028   5.666  0.00  0.00     0.036 A 
HETATM    4  C   UNK N   1      33.762  17.394   6.020  0.00  0.00     0.089 A 
HETATM    5  N   UNK N   1      34.028  17.827   7.281  0.00  0.00    -0.375 N 
HETATM    6  C   UNK N   1      33.048  17.915   8.222  0.00  0.00     0.089 A 
ATOM      7  HN  UNK N   1      34.981  18.093   7.527  1.00  0.00     0.164 HD
HETATM    8  C   UNK N   1      31.736  17.557   7.903  0.00  0.00     0.036 A 
ENDBRANCH   1   2
BRANCH   1   9
HETATM    9  S   UNK N   1      28.759  18.017   7.576  0.00  0.00    -0.052 SA
BRANCH   9  10
HETATM   10  C   UNK N   1      27.989  19.072   6.340  0.00  0.00     0.014 A 
HETATM   11  C   UNK N   1      28.006  18.761   4.975  0.00  0.00     0.036 A 
HETATM   12  C   UNK N   1      27.391  19.619   4.064  0.00  0.00     0.089 A 
HETATM   13  N   UNK N   1      26.779  20.751   4.501  0.00  0.00    -0.375 N 
HETATM   14  C   UNK N   1      26.749  21.076   5.822  0.00  0.00     0.089 A 
ATOM     15  HN  UNK N   1      26.333  21.371   3.825  1.00  0.00     0.164 HD
HETATM   16  C   UNK N   1      27.354  20.240   6.763  0.00  0.00     0.036 A 
ENDBRANCH   9  10
ENDBRANCH   1   9
TORSDOF 3
ENDMDL
MODEL 8
REMARK VINA RESULT:      -4.7      7.839     10.262
REMARK  3 active torsions:
REMARK  status: ('A' for Active; 'I' for Inactive)
REMARK    1  A    between atoms: C_7  and  S_8 
REMARK    2  A    between atoms: S_8  and  S_9 
REMARK    3  A    between atoms: S_9  and  C_10 
ROOT
HETATM    1  S   UNK N   1      33.065  17.602   7.445  0.00  0.00    -0.052 SA
ENDROOT
BRANCH   1   2
HETATM    2  C   UNK N   1      33.735  16.701   8.849  0.00  0.00     0.014 A 
HETATM    3  C   UNK N   1      33.212  15.471   9.266  0.00  0.00     0.036 A 
HETATM    4  C   UNK N   1      33.775  14.819  10.363  0.00  0.00     0.089 A 
HETATM    5  N   UNK N   1      34.825  15.376  11.022  0.00  0.00    -0.375 N 
HETATM    6  C   UNK N   1      35.352  16.571  10.635  0.00  0.00     0.089 A 
ATOM      7  HN  UNK N   1      35.228  14.889  11.822  1.00  0.00     0.164 HD
HETATM    8  C   UNK N   1      34.814  17.252   9.542  0.00  0.00     0.036 A 
ENDBRANCH   1   2
BRANCH   1   9
HETATM    9  S   UNK N   1      31.439  16.274   6.986  0.00  0.00    -0.052 SA
BRANCH   9  10
HETATM   10  C   UNK N   1      30.106  17.262   7.681  0.00  0.00     0.014 A 
HETATM   11  C   UNK N   1      30.062  17.610   9.036  0.00  0.00     0.036 A 
HETATM   12  C   UNK N   1      29.002  18.378   9.516  0.00  0.00     0.089 A 
HETATM   13  N   UNK N   1      28.018  18.785   8.671  0.00  0.00    -0.375 N 
HETATM   14  C   UNK N   1      28.038  18.460   7.350  0.00  0.00     0.089 A 
ATOM     15  HN  UNK N   1      27.248  19.347   9.035  1.00  0.00     0.164 HD
HETATM   16  C   UNK N   1      29.084  17.692   6.834  0.00  0.00     0.036 A 
ENDBRANCH   9  10
ENDBRANCH   1   9
TORSDOF 3
ENDMDL
MODEL 9
REMARK VINA RESULT:      -4.6      1.458      5.947
REMARK  3 active torsions:
REMARK  status: ('A' for Active; 'I' for Inactive)
REMARK    1  A    between atoms: C_7  and  S_8 
REMARK    2  A    between atoms: S_8  and  S_9 
REMARK    3  A    between atoms: S_9  and  C_10 
ROOT
HETATM    1  S   UNK N   1      35.691  10.770  15.682  0.00  0.00    -0.052 SA
ENDROOT
BRANCH   1   2
HETATM    2  C   UNK N   1      35.491  11.838  17.115  0.00  0.00     0.014 A 
HETATM    3  C   UNK N   1      35.332  13.223  16.998  0.00  0.00     0.036 A 
HETATM    4  C   UNK N   1      35.181  14.000  18.146  0.00  0.00     0.089 A 
HETATM    5  N   UNK N   1      35.188  13.412  19.372  0.00  0.00    -0.375 N 
HETATM    6  C   UNK N   1      35.341  12.066  19.512  0.00  0.00     0.089 A 
ATOM      7  HN  UNK N   1      35.076  13.990  20.205  1.00  0.00     0.164 HD
HETATM    8  C   UNK N   1      35.495  11.257  18.384  0.00  0.00     0.036 A 
ENDBRANCH   1   2
BRANCH   1   9
HETATM    9  S   UNK N   1      37.142  11.954  14.628  0.00  0.00    -0.052 SA
BRANCH   9  10
HETATM   10  C   UNK N   1      36.115  12.418  13.226  0.00  0.00     0.014 A 
HETATM   11  C   UNK N   1      35.682  11.486  12.276  0.00  0.00     0.036 A 
HETATM   12  C   UNK N   1      34.887  11.906  11.211  0.00  0.00     0.089 A 
HETATM   13  N   UNK N   1      34.536  13.215  11.097  0.00  0.00    -0.375 N 
HETATM   14  C   UNK N   1      34.944  14.140  12.007  0.00  0.00     0.089 A 
ATOM     15  HN  UNK N   1      33.954  13.510  10.313  1.00  0.00     0.164 HD
HETATM   16  C   UNK N   1      35.741  13.755  13.087  0.00  0.00     0.036 A 
ENDBRANCH   9  10
ENDBRANCH   1   9
TORSDOF 3
ENDMDL
