REMARK  3 active torsions:
REMARK  status: ('A' for Active; 'I' for Inactive)
REMARK    1  A    between atoms: C_7  and  S_8 
REMARK    2  A    between atoms: S_8  and  S_9 
REMARK    3  A    between atoms: S_9  and  C_10 
ROOT
HETATM    1  S   UNK N   1       0.183  -0.818  -0.000  0.00  0.00    -0.052 SA
ENDROOT
BRANCH   1   2
HETATM    2  C   UNK N   1       1.981  -0.761  -0.000  0.00  0.00     0.014 A 
HETATM    3  C   UNK N   1       2.690   0.446  -0.000  0.00  0.00     0.036 A 
HETATM    4  C   UNK N   1       4.084   0.427   0.000  0.00  0.00     0.089 A 
HETATM    5  N   UNK N   1       4.749  -0.759   0.000  0.00  0.00    -0.375 N 
HETATM    6  C   UNK N   1       4.082  -1.946   0.000  0.00  0.00     0.089 A 
ATOM      7  HN  UNK N   1       5.769  -0.760   0.000  1.00  0.00     0.164 HD
HETATM    8  C   UNK N   1       2.686  -1.965   0.000  0.00  0.00     0.036 A 
ENDBRANCH   1   2
BRANCH   1   9
HETATM    9  S   UNK N   1      -0.183   1.299  -0.000  0.00  0.00    -0.052 SA
BRANCH   9  10
HETATM   10  C   UNK N   1      -1.981   1.242  -0.000  0.00  0.00     0.014 A 
HETATM   11  C   UNK N   1      -2.690   0.035  -0.000  0.00  0.00     0.036 A 
HETATM   12  C   UNK N   1      -4.084   0.055   0.000  0.00  0.00     0.089 A 
HETATM   13  N   UNK N   1      -4.749   1.241   0.000  0.00  0.00    -0.375 N 
HETATM   14  C   UNK N   1      -4.082   2.427   0.000  0.00  0.00     0.089 A 
ATOM     15  HN  UNK N   1      -5.769   1.242   0.000  1.00  0.00     0.164 HD
HETATM   16  C   UNK N   1      -2.686   2.446   0.000  0.00  0.00     0.036 A 
ENDBRANCH   9  10
ENDBRANCH   1   9
TORSDOF 3
