MODEL 1
REMARK VINA RESULT:      -7.4      0.000      0.000
REMARK  8 active torsions:
REMARK  status: ('A' for Active; 'I' for Inactive)
REMARK    1  A    between atoms: C_2  and  C_4 
REMARK    2  A    between atoms: C_2  and  C_29 
REMARK    3  A    between atoms: C_3  and  C_5 
REMARK       I    between atoms: C_4  and  N_30 
REMARK    4  A    between atoms: C_5  and  C_8 
REMARK    5  A    between atoms: C_5  and  O_19 
REMARK    6  A    between atoms: C_11  and  S_20 
REMARK    7  A    between atoms: S_20  and  N_23 
REMARK    8  A    between atoms: N_28  and  C_29 
ROOT
HETATM    1  S   UNK N   1      31.417  15.854   7.012  0.00  0.00     0.244 S 
HETATM    2  O   UNK N   1      31.557  15.610   8.524  0.00  0.00    -0.206 OA
HETATM    3  O   UNK N   1      31.102  14.461   6.443  0.00  0.00    -0.206 OA
ENDROOT
BRANCH   1   4
HETATM    4  C   UNK N   1      30.207  17.068   6.577  0.00  0.00     0.074 A 
HETATM    5  C   UNK N   1      29.395  17.582   7.588  0.00  0.00     0.025 A 
HETATM    6  C   UNK N   1      28.373  18.470   7.277  0.00  0.00     0.012 A 
HETATM    7  C   UNK N   1      28.147  18.847   5.946  0.00  0.00    -0.015 A 
HETATM    8  C   UNK N   1      28.992  18.347   4.938  0.00  0.00     0.012 A 
HETATM    9  C   UNK N   1      30.025  17.463   5.253  0.00  0.00     0.025 A 
BRANCH   7  10
HETATM   10  C   UNK N   1      26.950  19.702   5.593  0.00  0.00     0.179 C 
HETATM   11  C   UNK N   1      27.016  20.003   4.102  0.00  0.00     0.061 C 
BRANCH  10  12
HETATM   12  C   UNK N   1      26.913  21.019   6.385  0.00  0.00     0.422 C 
HETATM   13  F   UNK N   1      26.501  20.787   7.685  0.00  0.00    -0.167 F 
HETATM   14  F   UNK N   1      26.022  21.892   5.784  0.00  0.00    -0.167 F 
HETATM   15  F   UNK N   1      28.161  21.618   6.409  0.00  0.00    -0.167 F 
ENDBRANCH  10  12
BRANCH  10  16
HETATM   16  O   UNK N   1      25.765  18.997   5.838  0.00  0.00    -0.376 OA
HETATM   17  H   UNK N   1      25.001  19.030   6.435  0.00  0.00     0.211 HD
ENDBRANCH  10  16
ENDBRANCH   7  10
ENDBRANCH   1   4
BRANCH   1  18
HETATM   18  N   UNK N   1      33.029  16.328   6.402  0.00  0.00    -0.199 NA
HETATM   19  C   UNK N   1      33.745  15.152   5.892  0.00  0.00     0.138 C 
HETATM   20  C   UNK N   1      35.228  15.165   6.257  0.00  0.00     0.288 C 
HETATM   21  N   UNK N   1      35.422  15.307   7.714  0.00  0.00     0.092 N 
HETATM   22  C   UNK N   1      34.573  16.341   8.334  0.00  0.00     0.292 C 
HETATM   23  C   UNK N   1      33.827  17.191   7.303  0.00  0.00     0.098 C 
HETATM   24  C   UNK N   1      33.000  18.274   7.981  0.00  0.00     0.029 C 
BRANCH  21  25
HETATM   25  C   UNK N   1      35.247  14.066   8.491  0.00  0.00     0.291 C 
BRANCH  25  26
HETATM   26  C   UNK N   1      35.722  14.124   9.949  0.00  0.00     0.067 A 
HETATM   27  C   UNK N   1      34.736  13.777  11.050  0.00  0.00     0.022 A 
HETATM   28  C   UNK N   1      35.727  12.740  10.564  0.00  0.00     0.022 A 
BRANCH  26  29
HETATM   29  C   UNK N   1      36.980  14.874  10.295  0.00  0.00     0.226 C 
HETATM   30  O   UNK N   1      36.921  16.019  10.718  0.00  0.00    -0.273 OA
HETATM   31  N   UNK N   1      38.179  14.281  10.152  0.00  0.00    -0.369 N 
HETATM   32  H   UNK N   1      38.562  13.434   9.825  0.00  0.00     0.159 HD
HETATM   33  H   UNK N   1      38.895  14.877  10.471  0.00  0.00     0.159 HD
ENDBRANCH  26  29
ENDBRANCH  25  26
ENDBRANCH  21  25
ENDBRANCH   1  18
TORSDOF 8
ENDMDL
MODEL 2
REMARK VINA RESULT:      -7.3      8.986     13.322
REMARK  8 active torsions:
REMARK  status: ('A' for Active; 'I' for Inactive)
REMARK    1  A    between atoms: C_2  and  C_4 
REMARK    2  A    between atoms: C_2  and  C_29 
REMARK    3  A    between atoms: C_3  and  C_5 
REMARK       I    between atoms: C_4  and  N_30 
REMARK    4  A    between atoms: C_5  and  C_8 
REMARK    5  A    between atoms: C_5  and  O_19 
REMARK    6  A    between atoms: C_11  and  S_20 
REMARK    7  A    between atoms: S_20  and  N_23 
REMARK    8  A    between atoms: N_28  and  C_29 
ROOT
HETATM    1  S   UNK N   1      35.341  12.703  16.331  0.00  0.00     0.244 S 
HETATM    2  O   UNK N   1      34.023  13.323  15.835  0.00  0.00    -0.206 OA
HETATM    3  O   UNK N   1      36.290  13.905  16.451  0.00  0.00    -0.206 OA
ENDROOT
BRANCH   1   4
HETATM    4  C   UNK N   1      35.195  11.783  17.834  0.00  0.00     0.074 A 
HETATM    5  C   UNK N   1      34.922  10.418  17.749  0.00  0.00     0.025 A 
HETATM    6  C   UNK N   1      34.711   9.676  18.904  0.00  0.00     0.012 A 
HETATM    7  C   UNK N   1      34.762  10.296  20.160  0.00  0.00    -0.015 A 
HETATM    8  C   UNK N   1      35.068  11.668  20.235  0.00  0.00     0.012 A 
HETATM    9  C   UNK N   1      35.291  12.410  19.074  0.00  0.00     0.025 A 
BRANCH   7  10
HETATM   10  C   UNK N   1      34.395   9.520  21.404  0.00  0.00     0.179 C 
HETATM   11  C   UNK N   1      34.722   8.054  21.154  0.00  0.00     0.061 C 
BRANCH  10  12
HETATM   12  C   UNK N   1      32.908   9.662  21.770  0.00  0.00     0.422 C 
HETATM   13  F   UNK N   1      32.635  10.956  22.177  0.00  0.00    -0.167 F 
HETATM   14  F   UNK N   1      32.604   8.796  22.806  0.00  0.00    -0.167 F 
HETATM   15  F   UNK N   1      32.101   9.350  20.689  0.00  0.00    -0.167 F 
ENDBRANCH  10  12
BRANCH  10  16
HETATM   16  O   UNK N   1      35.167   9.954  22.489  0.00  0.00    -0.376 OA
HETATM   17  H   UNK N   1      36.093   9.957  22.777  0.00  0.00     0.211 HD
ENDBRANCH  10  16
ENDBRANCH   7  10
ENDBRANCH   1   4
BRANCH   1  18
HETATM   18  N   UNK N   1      35.961  11.663  15.016  0.00  0.00    -0.199 NA
HETATM   19  C   UNK N   1      37.235  12.190  14.508  0.00  0.00     0.138 C 
HETATM   20  C   UNK N   1      37.347  12.088  12.989  0.00  0.00     0.288 C 
HETATM   21  N   UNK N   1      36.203  12.741  12.320  0.00  0.00     0.092 N 
HETATM   22  C   UNK N   1      34.895  12.415  12.915  0.00  0.00     0.292 C 
HETATM   23  C   UNK N   1      34.981  11.305  13.965  0.00  0.00     0.098 C 
HETATM   24  C   UNK N   1      33.605  10.967  14.520  0.00  0.00     0.029 C 
BRANCH  21  25
HETATM   25  C   UNK N   1      36.293  14.209  12.222  0.00  0.00     0.291 C 
BRANCH  25  26
HETATM   26  C   UNK N   1      36.158  14.789  10.807  0.00  0.00     0.067 A 
HETATM   27  C   UNK N   1      37.225  14.456   9.779  0.00  0.00     0.022 A 
HETATM   28  C   UNK N   1      35.921  13.685   9.798  0.00  0.00     0.022 A 
BRANCH  26  29
HETATM   29  C   UNK N   1      35.237  15.953  10.562  0.00  0.00     0.226 C 
HETATM   30  O   UNK N   1      35.674  17.094  10.535  0.00  0.00    -0.273 OA
HETATM   31  N   UNK N   1      33.923  15.741  10.359  0.00  0.00    -0.369 N 
HETATM   32  H   UNK N   1      33.277  14.998  10.350  0.00  0.00     0.159 HD
HETATM   33  H   UNK N   1      33.468  16.591  10.159  0.00  0.00     0.159 HD
ENDBRANCH  26  29
ENDBRANCH  25  26
ENDBRANCH  21  25
ENDBRANCH   1  18
TORSDOF 8
ENDMDL
MODEL 3
REMARK VINA RESULT:      -7.2      9.114     13.425
REMARK  8 active torsions:
REMARK  status: ('A' for Active; 'I' for Inactive)
REMARK    1  A    between atoms: C_2  and  C_4 
REMARK    2  A    between atoms: C_2  and  C_29 
REMARK    3  A    between atoms: C_3  and  C_5 
REMARK       I    between atoms: C_4  and  N_30 
REMARK    4  A    between atoms: C_5  and  C_8 
REMARK    5  A    between atoms: C_5  and  O_19 
REMARK    6  A    between atoms: C_11  and  S_20 
REMARK    7  A    between atoms: S_20  and  N_23 
REMARK    8  A    between atoms: N_28  and  C_29 
ROOT
HETATM    1  S   UNK N   1      35.188  10.873  15.868  0.00  0.00     0.244 S 
HETATM    2  O   UNK N   1      35.551   9.664  14.989  0.00  0.00    -0.206 OA
HETATM    3  O   UNK N   1      33.901  11.417  15.229  0.00  0.00    -0.206 OA
ENDROOT
BRANCH   1   4
HETATM    4  C   UNK N   1      35.003  10.498  17.586  0.00  0.00     0.074 A 
HETATM    5  C   UNK N   1      34.423   9.278  17.936  0.00  0.00     0.025 A 
HETATM    6  C   UNK N   1      34.177   8.982  19.271  0.00  0.00     0.012 A 
HETATM    7  C   UNK N   1      34.501   9.909  20.271  0.00  0.00    -0.015 A 
HETATM    8  C   UNK N   1      35.113  11.123  19.908  0.00  0.00     0.012 A 
HETATM    9  C   UNK N   1      35.370  11.416  18.568  0.00  0.00     0.025 A 
BRANCH   7  10
HETATM   10  C   UNK N   1      34.106   9.645  21.706  0.00  0.00     0.179 C 
HETATM   11  C   UNK N   1      34.049   8.137  21.905  0.00  0.00     0.061 C 
BRANCH  10  12
HETATM   12  C   UNK N   1      32.745  10.265  22.066  0.00  0.00     0.422 C 
HETATM   13  F   UNK N   1      31.799   9.932  21.114  0.00  0.00    -0.167 F 
HETATM   14  F   UNK N   1      32.865  11.644  22.112  0.00  0.00    -0.167 F 
HETATM   15  F   UNK N   1      32.313   9.823  23.305  0.00  0.00    -0.167 F 
ENDBRANCH  10  12
BRANCH  10  16
HETATM   16  O   UNK N   1      35.076  10.157  22.576  0.00  0.00    -0.376 OA
HETATM   17  H   UNK N   1      35.232  10.252  23.529  0.00  0.00     0.211 HD
ENDBRANCH  10  16
ENDBRANCH   7  10
ENDBRANCH   1   4
BRANCH   1  18
HETATM   18  N   UNK N   1      36.464  12.101  15.628  0.00  0.00    -0.199 NA
HETATM   19  C   UNK N   1      35.868  13.438  15.507  0.00  0.00     0.138 C 
HETATM   20  C   UNK N   1      36.550  14.290  14.440  0.00  0.00     0.288 C 
HETATM   21  N   UNK N   1      36.567  13.603  13.132  0.00  0.00     0.092 N 
HETATM   22  C   UNK N   1      36.962  12.185  13.207  0.00  0.00     0.292 C 
HETATM   23  C   UNK N   1      37.474  11.783  14.592  0.00  0.00     0.098 C 
HETATM   24  C   UNK N   1      37.915  10.326  14.613  0.00  0.00     0.029 C 
BRANCH  21  25
HETATM   25  C   UNK N   1      35.305  13.672  12.374  0.00  0.00     0.291 C 
BRANCH  25  26
HETATM   26  C   UNK N   1      35.408  14.285  10.970  0.00  0.00     0.067 A 
HETATM   27  C   UNK N   1      34.586  13.677   9.848  0.00  0.00     0.022 A 
HETATM   28  C   UNK N   1      34.092  14.916  10.565  0.00  0.00     0.022 A 
BRANCH  26  29
HETATM   29  C   UNK N   1      36.566  15.184  10.631  0.00  0.00     0.226 C 
HETATM   30  O   UNK N   1      36.475  16.394  10.776  0.00  0.00    -0.273 OA
HETATM   31  N   UNK N   1      37.718  14.656  10.175  0.00  0.00    -0.369 N 
HETATM   32  H   UNK N   1      38.094  13.781   9.926  0.00  0.00     0.159 HD
HETATM   33  H   UNK N   1      38.392  15.363  10.054  0.00  0.00     0.159 HD
ENDBRANCH  26  29
ENDBRANCH  25  26
ENDBRANCH  21  25
ENDBRANCH   1  18
TORSDOF 8
ENDMDL
MODEL 4
REMARK VINA RESULT:      -7.1     13.578     17.147
REMARK  8 active torsions:
REMARK  status: ('A' for Active; 'I' for Inactive)
REMARK    1  A    between atoms: C_2  and  C_4 
REMARK    2  A    between atoms: C_2  and  C_29 
REMARK    3  A    between atoms: C_3  and  C_5 
REMARK       I    between atoms: C_4  and  N_30 
REMARK    4  A    between atoms: C_5  and  C_8 
REMARK    5  A    between atoms: C_5  and  O_19 
REMARK    6  A    between atoms: C_11  and  S_20 
REMARK    7  A    between atoms: S_20  and  N_23 
REMARK    8  A    between atoms: N_28  and  C_29 
ROOT
HETATM    1  S   UNK N   1      26.980  27.762  -3.946  0.00  0.00     0.244 S 
HETATM    2  O   UNK N   1      25.787  27.674  -2.980  0.00  0.00    -0.206 OA
HETATM    3  O   UNK N   1      27.636  29.107  -3.598  0.00  0.00    -0.206 OA
ENDROOT
BRANCH   1   4
HETATM    4  C   UNK N   1      28.102  26.399  -3.845  0.00  0.00     0.074 A 
HETATM    5  C   UNK N   1      29.469  26.660  -3.944  0.00  0.00     0.025 A 
HETATM    6  C   UNK N   1      30.380  25.611  -3.960  0.00  0.00     0.012 A 
HETATM    7  C   UNK N   1      29.930  24.286  -3.886  0.00  0.00    -0.015 A 
HETATM    8  C   UNK N   1      28.551  24.035  -3.756  0.00  0.00     0.012 A 
HETATM    9  C   UNK N   1      27.638  25.090  -3.730  0.00  0.00     0.025 A 
BRANCH   7  10
HETATM   10  C   UNK N   1      30.908  23.143  -4.043  0.00  0.00     0.179 C 
HETATM   11  C   UNK N   1      30.545  22.391  -5.316  0.00  0.00     0.061 C 
BRANCH  10  12
HETATM   12  C   UNK N   1      30.884  22.177  -2.847  0.00  0.00     0.422 C 
HETATM   13  F   UNK N   1      30.059  21.100  -3.117  0.00  0.00    -0.167 F 
HETATM   14  F   UNK N   1      30.402  22.839  -1.731  0.00  0.00    -0.167 F 
HETATM   15  F   UNK N   1      32.156  21.710  -2.563  0.00  0.00    -0.167 F 
ENDBRANCH  10  12
BRANCH  10  16
HETATM   16  O   UNK N   1      32.210  23.639  -4.193  0.00  0.00    -0.376 OA
HETATM   17  H   UNK N   1      32.658  24.451  -4.477  0.00  0.00     0.211 HD
ENDBRANCH  10  16
ENDBRANCH   7  10
ENDBRANCH   1   4
BRANCH   1  18
HETATM   18  N   UNK N   1      26.313  27.904  -5.598  0.00  0.00    -0.199 NA
HETATM   19  C   UNK N   1      25.344  26.830  -5.849  0.00  0.00     0.138 C 
HETATM   20  C   UNK N   1      25.457  26.258  -7.261  0.00  0.00     0.288 C 
HETATM   21  N   UNK N   1      26.833  25.803  -7.548  0.00  0.00     0.092 N 
HETATM   22  C   UNK N   1      27.878  26.754  -7.129  0.00  0.00     0.292 C 
HETATM   23  C   UNK N   1      27.307  28.101  -6.677  0.00  0.00     0.098 C 
HETATM   24  C   UNK N   1      28.420  29.068  -6.297  0.00  0.00     0.029 C 
BRANCH  21  25
HETATM   25  C   UNK N   1      27.183  24.484  -6.991  0.00  0.00     0.291 C 
BRANCH  25  26
HETATM   26  C   UNK N   1      26.749  23.274  -7.829  0.00  0.00     0.067 A 
HETATM   27  C   UNK N   1      27.696  22.746  -8.893  0.00  0.00     0.022 A 
HETATM   28  C   UNK N   1      27.630  22.077  -7.535  0.00  0.00     0.022 A 
BRANCH  26  29
HETATM   29  C   UNK N   1      25.298  22.879  -7.873  0.00  0.00     0.226 C 
HETATM   30  O   UNK N   1      24.564  23.311  -8.751  0.00  0.00    -0.273 OA
HETATM   31  N   UNK N   1      24.801  22.034  -6.951  0.00  0.00    -0.369 N 
HETATM   32  H   UNK N   1      25.089  21.557  -6.139  0.00  0.00     0.159 HD
HETATM   33  H   UNK N   1      23.857  21.830  -7.148  0.00  0.00     0.159 HD
ENDBRANCH  26  29
ENDBRANCH  25  26
ENDBRANCH  21  25
ENDBRANCH   1  18
TORSDOF 8
ENDMDL
MODEL 5
REMARK VINA RESULT:      -7.0      5.568      9.835
REMARK  8 active torsions:
REMARK  status: ('A' for Active; 'I' for Inactive)
REMARK    1  A    between atoms: C_2  and  C_4 
REMARK    2  A    between atoms: C_2  and  C_29 
REMARK    3  A    between atoms: C_3  and  C_5 
REMARK       I    between atoms: C_4  and  N_30 
REMARK    4  A    between atoms: C_5  and  C_8 
REMARK    5  A    between atoms: C_5  and  O_19 
REMARK    6  A    between atoms: C_11  and  S_20 
REMARK    7  A    between atoms: S_20  and  N_23 
REMARK    8  A    between atoms: N_28  and  C_29 
ROOT
HETATM    1  S   UNK N   1      33.991  14.492   9.703  0.00  0.00     0.244 S 
HETATM    2  O   UNK N   1      33.738  13.294   8.771  0.00  0.00    -0.206 OA
HETATM    3  O   UNK N   1      32.583  15.033   9.995  0.00  0.00    -0.206 OA
ENDROOT
BRANCH   1   4
HETATM    4  C   UNK N   1      34.898  14.097  11.168  0.00  0.00     0.074 A 
HETATM    5  C   UNK N   1      34.916  12.770  11.596  0.00  0.00     0.025 A 
HETATM    6  C   UNK N   1      35.542  12.431  12.790  0.00  0.00     0.012 A 
HETATM    7  C   UNK N   1      36.149  13.422  13.574  0.00  0.00    -0.015 A 
HETATM    8  C   UNK N   1      36.151  14.753  13.117  0.00  0.00     0.012 A 
HETATM    9  C   UNK N   1      35.532  15.090  11.913  0.00  0.00     0.025 A 
BRANCH   7  10
HETATM   10  C   UNK N   1      36.705  13.075  14.937  0.00  0.00     0.179 C 
HETATM   11  C   UNK N   1      37.368  11.708  14.836  0.00  0.00     0.061 C 
BRANCH  10  12
HETATM   12  C   UNK N   1      35.619  13.044  16.025  0.00  0.00     0.422 C 
HETATM   13  F   UNK N   1      34.372  13.257  15.466  0.00  0.00    -0.167 F 
HETATM   14  F   UNK N   1      35.868  14.041  16.953  0.00  0.00    -0.167 F 
HETATM   15  F   UNK N   1      35.615  11.826  16.685  0.00  0.00    -0.167 F 
ENDBRANCH  10  12
BRANCH  10  16
HETATM   16  O   UNK N   1      37.686  14.002  15.308  0.00  0.00    -0.376 OA
HETATM   17  H   UNK N   1      38.639  14.146  15.200  0.00  0.00     0.211 HD
ENDBRANCH  10  16
ENDBRANCH   7  10
ENDBRANCH   1   4
BRANCH   1  18
HETATM   18  N   UNK N   1      34.852  15.732   8.746  0.00  0.00    -0.199 NA
HETATM   19  C   UNK N   1      33.947  16.842   8.420  0.00  0.00     0.138 C 
HETATM   20  C   UNK N   1      34.144  17.360   6.998  0.00  0.00     0.288 C 
HETATM   21  N   UNK N   1      34.018  16.272   6.006  0.00  0.00     0.092 N 
HETATM   22  C   UNK N   1      34.741  15.041   6.374  0.00  0.00     0.292 C 
HETATM   23  C   UNK N   1      35.640  15.224   7.599  0.00  0.00     0.098 C 
HETATM   24  C   UNK N   1      36.402  13.945   7.916  0.00  0.00     0.029 C 
BRANCH  21  25
HETATM   25  C   UNK N   1      32.635  15.891   5.670  0.00  0.00     0.291 C 
BRANCH  25  26
HETATM   26  C   UNK N   1      32.202  16.173   4.225  0.00  0.00     0.067 A 
HETATM   27  C   UNK N   1      30.916  16.945   3.988  0.00  0.00     0.022 A 
HETATM   28  C   UNK N   1      32.252  17.658   3.933  0.00  0.00     0.022 A 
BRANCH  26  29
HETATM   29  C   UNK N   1      32.803  15.379   3.097  0.00  0.00     0.226 C 
HETATM   30  O   UNK N   1      33.588  15.904   2.320  0.00  0.00    -0.273 OA
HETATM   31  N   UNK N   1      32.488  14.079   2.945  0.00  0.00    -0.369 N 
HETATM   32  H   UNK N   1      31.901  13.399   3.347  0.00  0.00     0.159 HD
HETATM   33  H   UNK N   1      33.003  13.689   2.202  0.00  0.00     0.159 HD
ENDBRANCH  26  29
ENDBRANCH  25  26
ENDBRANCH  21  25
ENDBRANCH   1  18
TORSDOF 8
ENDMDL
MODEL 6
REMARK VINA RESULT:      -7.0     13.741     16.367
REMARK  8 active torsions:
REMARK  status: ('A' for Active; 'I' for Inactive)
REMARK    1  A    between atoms: C_2  and  C_4 
REMARK    2  A    between atoms: C_2  and  C_29 
REMARK    3  A    between atoms: C_3  and  C_5 
REMARK       I    between atoms: C_4  and  N_30 
REMARK    4  A    between atoms: C_5  and  C_8 
REMARK    5  A    between atoms: C_5  and  O_19 
REMARK    6  A    between atoms: C_11  and  S_20 
REMARK    7  A    between atoms: S_20  and  N_23 
REMARK    8  A    between atoms: N_28  and  C_29 
ROOT
HETATM    1  S   UNK N   1      25.426  23.464  -8.575  0.00  0.00     0.244 S 
HETATM    2  O   UNK N   1      24.271  22.508  -8.233  0.00  0.00    -0.206 OA
HETATM    3  O   UNK N   1      24.936  24.196  -9.833  0.00  0.00    -0.206 OA
ENDROOT
BRANCH   1   4
HETATM    4  C   UNK N   1      25.876  24.564  -7.265  0.00  0.00     0.074 A 
HETATM    5  C   UNK N   1      25.886  24.068  -5.961  0.00  0.00     0.025 A 
HETATM    6  C   UNK N   1      26.146  24.919  -4.895  0.00  0.00     0.012 A 
HETATM    7  C   UNK N   1      26.390  26.281  -5.122  0.00  0.00    -0.015 A 
HETATM    8  C   UNK N   1      26.407  26.764  -6.444  0.00  0.00     0.012 A 
HETATM    9  C   UNK N   1      26.157  25.905  -7.515  0.00  0.00     0.025 A 
BRANCH   7  10
HETATM   10  C   UNK N   1      26.534  27.230  -3.954  0.00  0.00     0.179 C 
HETATM   11  C   UNK N   1      25.569  28.388  -4.173  0.00  0.00     0.061 C 
BRANCH  10  12
HETATM   12  C   UNK N   1      27.966  27.772  -3.808  0.00  0.00     0.422 C 
HETATM   13  F   UNK N   1      28.879  26.734  -3.860  0.00  0.00    -0.167 F 
HETATM   14  F   UNK N   1      28.092  28.415  -2.589  0.00  0.00    -0.167 F 
HETATM   15  F   UNK N   1      28.257  28.679  -4.812  0.00  0.00    -0.167 F 
ENDBRANCH  10  12
BRANCH  10  16
HETATM   16  O   UNK N   1      26.173  26.589  -2.763  0.00  0.00    -0.376 OA
HETATM   17  H   UNK N   1      25.405  26.508  -2.175  0.00  0.00     0.211 HD
ENDBRANCH  10  16
ENDBRANCH   7  10
ENDBRANCH   1   4
BRANCH   1  18
HETATM   18  N   UNK N   1      26.821  22.454  -9.054  0.00  0.00    -0.199 NA
HETATM   19  C   UNK N   1      26.983  21.334  -8.119  0.00  0.00     0.138 C 
HETATM   20  C   UNK N   1      28.448  21.050  -7.793  0.00  0.00     0.288 C 
HETATM   21  N   UNK N   1      29.132  22.259  -7.289  0.00  0.00     0.092 N 
HETATM   22  C   UNK N   1      28.846  23.477  -8.068  0.00  0.00     0.292 C 
HETATM   23  C   UNK N   1      28.071  23.189  -9.356  0.00  0.00     0.098 C 
HETATM   24  C   UNK N   1      27.837  24.466 -10.153  0.00  0.00     0.029 C 
BRANCH  21  25
HETATM   25  C   UNK N   1      28.882  22.571  -5.871  0.00  0.00     0.291 C 
BRANCH  25  26
HETATM   26  C   UNK N   1      30.124  22.594  -4.969  0.00  0.00     0.067 A 
HETATM   27  C   UNK N   1      30.725  23.936  -4.591  0.00  0.00     0.022 A 
HETATM   28  C   UNK N   1      29.799  23.222  -3.629  0.00  0.00     0.022 A 
BRANCH  26  29
HETATM   29  C   UNK N   1      30.945  21.345  -4.796  0.00  0.00     0.226 C 
HETATM   30  O   UNK N   1      31.675  20.953  -5.695  0.00  0.00    -0.273 OA
HETATM   31  N   UNK N   1      30.888  20.655  -3.641  0.00  0.00    -0.369 N 
HETATM   32  H   UNK N   1      30.409  20.673  -2.781  0.00  0.00     0.159 HD
HETATM   33  H   UNK N   1      31.520  19.901  -3.663  0.00  0.00     0.159 HD
ENDBRANCH  26  29
ENDBRANCH  25  26
ENDBRANCH  21  25
ENDBRANCH   1  18
TORSDOF 8
ENDMDL
MODEL 7
REMARK VINA RESULT:      -7.0     13.728     16.541
REMARK  8 active torsions:
REMARK  status: ('A' for Active; 'I' for Inactive)
REMARK    1  A    between atoms: C_2  and  C_4 
REMARK    2  A    between atoms: C_2  and  C_29 
REMARK    3  A    between atoms: C_3  and  C_5 
REMARK       I    between atoms: C_4  and  N_30 
REMARK    4  A    between atoms: C_5  and  C_8 
REMARK    5  A    between atoms: C_5  and  O_19 
REMARK    6  A    between atoms: C_11  and  S_20 
REMARK    7  A    between atoms: S_20  and  N_23 
REMARK    8  A    between atoms: N_28  and  C_29 
ROOT
HETATM    1  S   UNK N   1      25.410  23.465  -8.703  0.00  0.00     0.244 S 
HETATM    2  O   UNK N   1      24.307  22.472  -8.298  0.00  0.00    -0.206 OA
HETATM    3  O   UNK N   1      24.885  24.082 -10.009  0.00  0.00    -0.206 OA
ENDROOT
BRANCH   1   4
HETATM    4  C   UNK N   1      25.793  24.673  -7.471  0.00  0.00     0.074 A 
HETATM    5  C   UNK N   1      26.041  25.982  -7.884  0.00  0.00     0.025 A 
HETATM    6  C   UNK N   1      26.433  26.942  -6.959  0.00  0.00     0.012 A 
HETATM    7  C   UNK N   1      26.590  26.599  -5.610  0.00  0.00    -0.015 A 
HETATM    8  C   UNK N   1      26.308  25.283  -5.199  0.00  0.00     0.012 A 
HETATM    9  C   UNK N   1      25.904  24.322  -6.127  0.00  0.00     0.025 A 
BRANCH   7  10
HETATM   10  C   UNK N   1      27.150  27.607  -4.631  0.00  0.00     0.179 C 
HETATM   11  C   UNK N   1      28.331  26.961  -3.921  0.00  0.00     0.061 C 
BRANCH  10  12
HETATM   12  C   UNK N   1      26.110  28.062  -3.595  0.00  0.00     0.422 C 
HETATM   13  F   UNK N   1      26.000  27.128  -2.581  0.00  0.00    -0.167 F 
HETATM   14  F   UNK N   1      24.877  28.200  -4.209  0.00  0.00    -0.167 F 
HETATM   15  F   UNK N   1      26.461  29.284  -3.045  0.00  0.00    -0.167 F 
ENDBRANCH  10  12
BRANCH  10  16
HETATM   16  O   UNK N   1      27.623  28.733  -5.316  0.00  0.00    -0.376 OA
HETATM   17  H   UNK N   1      27.612  29.700  -5.237  0.00  0.00     0.211 HD
ENDBRANCH  10  16
ENDBRANCH   7  10
ENDBRANCH   1   4
BRANCH   1  18
HETATM   18  N   UNK N   1      26.860  22.503  -9.112  0.00  0.00    -0.199 NA
HETATM   19  C   UNK N   1      27.030  21.405  -8.153  0.00  0.00     0.138 C 
HETATM   20  C   UNK N   1      28.491  21.184  -7.768  0.00  0.00     0.288 C 
HETATM   21  N   UNK N   1      29.107  22.426  -7.259  0.00  0.00     0.092 N 
HETATM   22  C   UNK N   1      28.804  23.620  -8.068  0.00  0.00     0.292 C 
HETATM   23  C   UNK N   1      28.091  23.282  -9.380  0.00  0.00     0.098 C 
HETATM   24  C   UNK N   1      27.839  24.536 -10.206  0.00  0.00     0.029 C 
BRANCH  21  25
HETATM   25  C   UNK N   1      28.792  22.750  -5.856  0.00  0.00     0.291 C 
BRANCH  25  26
HETATM   26  C   UNK N   1      29.985  22.747  -4.890  0.00  0.00     0.067 A 
HETATM   27  C   UNK N   1      30.578  24.077  -4.462  0.00  0.00     0.022 A 
HETATM   28  C   UNK N   1      29.597  23.358  -3.560  0.00  0.00     0.022 A 
BRANCH  26  29
HETATM   29  C   UNK N   1      30.783  21.487  -4.694  0.00  0.00     0.226 C 
HETATM   30  O   UNK N   1      31.588  21.125  -5.541  0.00  0.00    -0.273 OA
HETATM   31  N   UNK N   1      30.624  20.755  -3.576  0.00  0.00    -0.369 N 
HETATM   32  H   UNK N   1      30.071  20.744  -2.760  0.00  0.00     0.159 HD
HETATM   33  H   UNK N   1      31.253  19.998  -3.571  0.00  0.00     0.159 HD
ENDBRANCH  26  29
ENDBRANCH  25  26
ENDBRANCH  21  25
ENDBRANCH   1  18
TORSDOF 8
ENDMDL
MODEL 8
REMARK VINA RESULT:      -6.9      4.841      9.163
REMARK  8 active torsions:
REMARK  status: ('A' for Active; 'I' for Inactive)
REMARK    1  A    between atoms: C_2  and  C_4 
REMARK    2  A    between atoms: C_2  and  C_29 
REMARK    3  A    between atoms: C_3  and  C_5 
REMARK       I    between atoms: C_4  and  N_30 
REMARK    4  A    between atoms: C_5  and  C_8 
REMARK    5  A    between atoms: C_5  and  O_19 
REMARK    6  A    between atoms: C_11  and  S_20 
REMARK    7  A    between atoms: S_20  and  N_23 
REMARK    8  A    between atoms: N_28  and  C_29 
ROOT
HETATM    1  S   UNK N   1      34.896  14.580   7.179  0.00  0.00     0.244 S 
HETATM    2  O   UNK N   1      35.920  14.104   6.134  0.00  0.00    -0.206 OA
HETATM    3  O   UNK N   1      33.583  13.917   6.734  0.00  0.00    -0.206 OA
ENDROOT
BRANCH   1   4
HETATM    4  C   UNK N   1      35.329  14.204   8.851  0.00  0.00     0.074 A 
HETATM    5  C   UNK N   1      36.674  14.273   9.216  0.00  0.00     0.025 A 
HETATM    6  C   UNK N   1      37.069  13.899  10.494  0.00  0.00     0.012 A 
HETATM    7  C   UNK N   1      36.121  13.442  11.420  0.00  0.00    -0.015 A 
HETATM    8  C   UNK N   1      34.764  13.405  11.051  0.00  0.00     0.012 A 
HETATM    9  C   UNK N   1      34.367  13.791   9.770  0.00  0.00     0.025 A 
BRANCH   7  10
HETATM   10  C   UNK N   1      36.569  12.904  12.760  0.00  0.00     0.179 C 
HETATM   11  C   UNK N   1      35.803  11.615  13.026  0.00  0.00     0.061 C 
BRANCH  10  12
HETATM   12  C   UNK N   1      36.320  13.898  13.907  0.00  0.00     0.422 C 
HETATM   13  F   UNK N   1      37.248  13.710  14.915  0.00  0.00    -0.167 F 
HETATM   14  F   UNK N   1      35.053  13.696  14.425  0.00  0.00    -0.167 F 
HETATM   15  F   UNK N   1      36.404  15.205  13.456  0.00  0.00    -0.167 F 
ENDBRANCH  10  12
BRANCH  10  16
HETATM   16  O   UNK N   1      37.934  12.593  12.725  0.00  0.00    -0.376 OA
HETATM   17  H   UNK N   1      38.557  11.971  13.132  0.00  0.00     0.211 HD
ENDBRANCH  10  16
ENDBRANCH   7  10
ENDBRANCH   1   4
BRANCH   1  18
HETATM   18  N   UNK N   1      34.703  16.344   6.962  0.00  0.00    -0.199 NA
HETATM   19  C   UNK N   1      34.431  16.988   8.253  0.00  0.00     0.138 C 
HETATM   20  C   UNK N   1      33.382  18.093   8.147  0.00  0.00     0.288 C 
HETATM   21  N   UNK N   1      32.133  17.593   7.536  0.00  0.00     0.092 N 
HETATM   22  C   UNK N   1      32.345  16.757   6.340  0.00  0.00     0.292 C 
HETATM   23  C   UNK N   1      33.800  16.760   5.864  0.00  0.00     0.098 C 
HETATM   24  C   UNK N   1      33.966  15.924   4.603  0.00  0.00     0.029 C 
BRANCH  21  25
HETATM   25  C   UNK N   1      31.248  16.847   8.448  0.00  0.00     0.291 C 
BRANCH  25  26
HETATM   26  C   UNK N   1      29.841  17.432   8.631  0.00  0.00     0.067 A 
HETATM   27  C   UNK N   1      29.203  17.378  10.008  0.00  0.00     0.022 A 
HETATM   28  C   UNK N   1      29.881  18.646   9.535  0.00  0.00     0.022 A 
BRANCH  26  29
HETATM   29  C   UNK N   1      28.973  17.682   7.427  0.00  0.00     0.226 C 
HETATM   30  O   UNK N   1      28.515  18.795   7.214  0.00  0.00    -0.273 OA
HETATM   31  N   UNK N   1      28.706  16.679   6.570  0.00  0.00    -0.369 N 
HETATM   32  H   UNK N   1      28.877  15.715   6.468  0.00  0.00     0.159 HD
HETATM   33  H   UNK N   1      28.177  17.013   5.809  0.00  0.00     0.159 HD
ENDBRANCH  26  29
ENDBRANCH  25  26
ENDBRANCH  21  25
ENDBRANCH   1  18
TORSDOF 8
ENDMDL
MODEL 9
REMARK VINA RESULT:      -6.9      2.757      5.048
REMARK  8 active torsions:
REMARK  status: ('A' for Active; 'I' for Inactive)
REMARK    1  A    between atoms: C_2  and  C_4 
REMARK    2  A    between atoms: C_2  and  C_29 
REMARK    3  A    between atoms: C_3  and  C_5 
REMARK       I    between atoms: C_4  and  N_30 
REMARK    4  A    between atoms: C_5  and  C_8 
REMARK    5  A    between atoms: C_5  and  O_19 
REMARK    6  A    between atoms: C_11  and  S_20 
REMARK    7  A    between atoms: S_20  and  N_23 
REMARK    8  A    between atoms: N_28  and  C_29 
ROOT
HETATM    1  S   UNK N   1      33.529  17.044   7.216  0.00  0.00     0.244 S 
HETATM    2  O   UNK N   1      34.502  18.002   6.507  0.00  0.00    -0.206 OA
HETATM    3  O   UNK N   1      33.741  17.345   8.708  0.00  0.00    -0.206 OA
ENDROOT
BRANCH   1   4
HETATM    4  C   UNK N   1      31.844  17.209   6.709  0.00  0.00     0.074 A 
HETATM    5  C   UNK N   1      31.579  17.418   5.355  0.00  0.00     0.025 A 
HETATM    6  C   UNK N   1      30.276  17.641   4.926  0.00  0.00     0.012 A 
HETATM    7  C   UNK N   1      29.224  17.667   5.852  0.00  0.00    -0.015 A 
HETATM    8  C   UNK N   1      29.499  17.424   7.211  0.00  0.00     0.012 A 
HETATM    9  C   UNK N   1      30.806  17.189   7.639  0.00  0.00     0.025 A 
BRANCH   7  10
HETATM   10  C   UNK N   1      27.831  18.048   5.405  0.00  0.00     0.179 C 
HETATM   11  C   UNK N   1      27.639  17.534   3.984  0.00  0.00     0.061 C 
BRANCH  10  12
HETATM   12  C   UNK N   1      27.596  19.567   5.440  0.00  0.00     0.422 C 
HETATM   13  F   UNK N   1      26.268  19.854   5.180  0.00  0.00    -0.167 F 
HETATM   14  F   UNK N   1      28.380  20.177   4.477  0.00  0.00    -0.167 F 
HETATM   15  F   UNK N   1      27.936  20.092   6.676  0.00  0.00    -0.167 F 
ENDBRANCH  10  12
BRANCH  10  16
HETATM   16  O   UNK N   1      26.875  17.427   6.219  0.00  0.00    -0.376 OA
HETATM   17  H   UNK N   1      25.924  17.238   6.222  0.00  0.00     0.211 HD
ENDBRANCH  10  16
ENDBRANCH   7  10
ENDBRANCH   1   4
BRANCH   1  18
HETATM   18  N   UNK N   1      34.116  15.382   6.919  0.00  0.00    -0.199 NA
HETATM   19  C   UNK N   1      34.342  15.172   5.483  0.00  0.00     0.138 C 
HETATM   20  C   UNK N   1      33.892  13.789   5.016  0.00  0.00     0.288 C 
HETATM   21  N   UNK N   1      32.481  13.534   5.369  0.00  0.00     0.092 N 
HETATM   22  C   UNK N   1      32.129  13.919   6.748  0.00  0.00     0.292 C 
HETATM   23  C   UNK N   1      33.351  14.304   7.586  0.00  0.00     0.098 C 
HETATM   24  C   UNK N   1      32.950  14.649   9.014  0.00  0.00     0.029 C 
BRANCH  21  25
HETATM   25  C   UNK N   1      31.491  14.153   4.470  0.00  0.00     0.291 C 
BRANCH  25  26
HETATM   26  C   UNK N   1      30.131  13.446   4.392  0.00  0.00     0.067 A 
HETATM   27  C   UNK N   1      28.907  14.159   4.938  0.00  0.00     0.022 A 
HETATM   28  C   UNK N   1      29.199  14.182   3.452  0.00  0.00     0.022 A 
BRANCH  26  29
HETATM   29  C   UNK N   1      30.075  11.961   4.157  0.00  0.00     0.226 C 
HETATM   30  O   UNK N   1      30.052  11.184   5.101  0.00  0.00    -0.273 OA
HETATM   31  N   UNK N   1      30.037  11.479   2.901  0.00  0.00    -0.369 N 
HETATM   32  H   UNK N   1      30.074  11.804   1.972  0.00  0.00     0.159 HD
HETATM   33  H   UNK N   1      29.945  10.498   2.915  0.00  0.00     0.159 HD
ENDBRANCH  26  29
ENDBRANCH  25  26
ENDBRANCH  21  25
ENDBRANCH   1  18
TORSDOF 8
ENDMDL
