REMARK  10 active torsions:
REMARK  status: ('A' for Active; 'I' for Inactive)
REMARK    1  A    between atoms: C_1  and  O_26 
REMARK    2  A    between atoms: C_3  and  O_24 
REMARK    3  A    between atoms: C_7  and  O_24 
REMARK    4  A    between atoms: C_9  and  N_10 
REMARK       I    between atoms: N_10  and  C_11 
REMARK    5  A    between atoms: C_11  and  C_13 
REMARK    6  A    between atoms: C_17  and  O_18 
REMARK    7  A    between atoms: O_18  and  C_19 
REMARK    8  A    between atoms: C_19  and  C_20 
REMARK    9  A    between atoms: C_20  and  N_21 
REMARK   10  A    between atoms: C_27  and  O_26 
ROOT
HETATM    1  N   UNK N   1      13.382   5.850  -1.986  0.00  0.00    -0.320 N 
HETATM    2  C   UNK N   1      14.727   6.006  -1.871  0.00  0.00     0.256 C 
HETATM    3  O   UNK N   1      15.312   6.628  -2.748  0.00  0.00    -0.267 OA
HETATM    4  H   UNK N   1      13.010   5.805  -2.896  0.00  0.00     0.169 HD
ENDROOT
BRANCH   2   5
HETATM    5  C   UNK N   1      15.549   5.361  -0.809  0.00  0.00     0.033 A 
HETATM    6  C   UNK N   1      16.838   5.840  -0.567  0.00  0.00     0.026 A 
HETATM    7  C   UNK N   1      17.732   5.153   0.251  0.00  0.00    -0.027 A 
HETATM    8  C   UNK N   1      19.060   5.790   0.486  0.00  0.00     0.051 C 
HETATM    9  C   UNK N   1      17.358   3.897   0.807  0.00  0.00     0.080 A 
HETATM   10  C   UNK N   1      16.048   3.425   0.580  0.00  0.00    -0.027 A 
HETATM   11  C   UNK N   1      15.615   2.107   1.130  0.00  0.00     0.051 C 
HETATM   12  C   UNK N   1      15.150   4.155  -0.216  0.00  0.00     0.026 A 
BRANCH   9  13
HETATM   13  O   UNK N   1      18.210   3.120   1.542  0.00  0.00    -0.348 OA
BRANCH  13  14
HETATM   14  C   UNK N   1      19.585   3.247   1.587  0.00  0.00     0.194 C 
BRANCH  14  15
HETATM   15  C   UNK N   1      20.199   2.784   0.272  0.00  0.00     0.137 C 
BRANCH  15  16
HETATM   16  N   UNK N   1      21.329   3.630  -0.068  0.00  0.00    -0.428 N 
HETATM   17  H   UNK N   1      22.241   3.240  -0.307  0.00  0.00     0.149 HD
HETATM   18  H   UNK N   1      21.208   4.643  -0.068  0.00  0.00     0.149 HD
ENDBRANCH  15  16
ENDBRANCH  14  15
ENDBRANCH  13  14
ENDBRANCH   9  13
ENDBRANCH   2   5
BRANCH   1  19
HETATM   19  C   UNK N   1      12.468   5.746  -0.902  0.00  0.00     0.071 A 
HETATM   20  C   UNK N   1      11.426   4.813  -0.954  0.00  0.00     0.069 A 
HETATM   21  C   UNK N   1      10.419   4.812   0.022  0.00  0.00     0.071 A 
HETATM   22  C   UNK N   1      10.456   5.765   1.053  0.00  0.00     0.039 A 
HETATM   23  C   UNK N   1      11.475   6.716   1.095  0.00  0.00     0.042 A 
HETATM   24  C   UNK N   1      12.479   6.726   0.112  0.00  0.00     0.095 A 
BRANCH  21  25
HETATM   25  O   UNK N   1       9.414   3.908  -0.069  0.00  0.00    -0.351 OA
BRANCH  25  26
HETATM   26  C   UNK N   1       8.328   3.899   0.779  0.00  0.00     0.171 C 
HETATM   27  C   UNK N   1       7.057   4.085  -0.025  0.00  0.00     0.034 C 
ENDBRANCH  25  26
ENDBRANCH  21  25
BRANCH  24  28
HETATM   28  O   UNK N   1      13.413   7.708   0.076  0.00  0.00    -0.349 OA
BRANCH  28  29
HETATM   29  C   UNK N   1      13.402   8.807   0.904  0.00  0.00     0.171 C 
HETATM   30  C   UNK N   1      14.457   9.789   0.440  0.00  0.00     0.034 C 
ENDBRANCH  28  29
ENDBRANCH  24  28
ENDBRANCH   1  19
TORSDOF 10
