MODEL 1
REMARK VINA RESULT:      -6.6      0.000      0.000
REMARK  10 active torsions:
REMARK  status: ('A' for Active; 'I' for Inactive)
REMARK    1  A    between atoms: C_1  and  O_26 
REMARK    2  A    between atoms: C_3  and  O_24 
REMARK    3  A    between atoms: C_7  and  O_24 
REMARK    4  A    between atoms: C_9  and  N_10 
REMARK       I    between atoms: N_10  and  C_11 
REMARK    5  A    between atoms: C_11  and  C_13 
REMARK    6  A    between atoms: C_17  and  O_18 
REMARK    7  A    between atoms: O_18  and  C_19 
REMARK    8  A    between atoms: C_19  and  C_20 
REMARK    9  A    between atoms: C_20  and  N_21 
REMARK   10  A    between atoms: C_27  and  O_26 
ROOT
HETATM    1  N   UNK N   1      34.921  17.356   9.353  0.00  0.00    -0.320 N 
HETATM    2  C   UNK N   1      34.201  17.985   8.387  0.00  0.00     0.256 C 
HETATM    3  O   UNK N   1      34.703  18.954   7.832  0.00  0.00    -0.267 OA
HETATM    4  H   UNK N   1      35.543  17.907   9.881  0.00  0.00     0.169 HD
ENDROOT
BRANCH   2   5
HETATM    5  C   UNK N   1      32.791  17.644   8.050  0.00  0.00     0.033 A 
HETATM    6  C   UNK N   1      32.481  17.264   6.742  0.00  0.00     0.026 A 
HETATM    7  C   UNK N   1      31.163  17.144   6.309  0.00  0.00    -0.027 A 
HETATM    8  C   UNK N   1      30.952  16.673   4.909  0.00  0.00     0.051 C 
HETATM    9  C   UNK N   1      30.096  17.477   7.191  0.00  0.00     0.080 A 
HETATM   10  C   UNK N   1      30.409  17.839   8.518  0.00  0.00    -0.027 A 
HETATM   11  C   UNK N   1      29.326  18.211   9.474  0.00  0.00     0.051 C 
HETATM   12  C   UNK N   1      31.746  17.915   8.944  0.00  0.00     0.026 A 
BRANCH   9  13
HETATM   13  O   UNK N   1      28.782  17.474   6.811  0.00  0.00    -0.348 OA
BRANCH  13  14
HETATM   14  C   UNK N   1      28.193  18.358   5.928  0.00  0.00     0.194 C 
BRANCH  14  15
HETATM   15  C   UNK N   1      27.698  19.592   6.671  0.00  0.00     0.137 C 
BRANCH  15  16
HETATM   16  N   UNK N   1      26.358  19.930   6.225  0.00  0.00    -0.428 N 
HETATM   17  H   UNK N   1      26.179  20.299   5.291  0.00  0.00     0.149 HD
HETATM   18  H   UNK N   1      25.574  19.796   6.864  0.00  0.00     0.149 HD
ENDBRANCH  15  16
ENDBRANCH  14  15
ENDBRANCH  13  14
ENDBRANCH   9  13
ENDBRANCH   2   5
BRANCH   1  19
HETATM   19  C   UNK N   1      34.851  15.971   9.664  0.00  0.00     0.071 A 
HETATM   20  C   UNK N   1      34.701  15.561  10.994  0.00  0.00     0.069 A 
HETATM   21  C   UNK N   1      34.801  14.205  11.339  0.00  0.00     0.071 A 
HETATM   22  C   UNK N   1      35.063  13.256  10.337  0.00  0.00     0.039 A 
HETATM   23  C   UNK N   1      35.242  13.660   9.015  0.00  0.00     0.042 A 
HETATM   24  C   UNK N   1      35.154  15.019   8.669  0.00  0.00     0.095 A 
BRANCH  21  25
HETATM   25  O   UNK N   1      34.671  13.844  12.638  0.00  0.00    -0.351 OA
BRANCH  25  26
HETATM   26  C   UNK N   1      35.709  13.893  13.542  0.00  0.00     0.171 C 
HETATM   27  C   UNK N   1      35.328  13.126  14.792  0.00  0.00     0.034 C 
ENDBRANCH  25  26
ENDBRANCH  21  25
BRANCH  24  28
HETATM   28  O   UNK N   1      35.432  15.440   7.411  0.00  0.00    -0.349 OA
BRANCH  28  29
HETATM   29  C   UNK N   1      35.689  14.592   6.358  0.00  0.00     0.171 C 
HETATM   30  C   UNK N   1      34.747  14.917   5.217  0.00  0.00     0.034 C 
ENDBRANCH  28  29
ENDBRANCH  24  28
ENDBRANCH   1  19
TORSDOF 10
ENDMDL
MODEL 2
REMARK VINA RESULT:      -6.4      5.775     10.702
REMARK  10 active torsions:
REMARK  status: ('A' for Active; 'I' for Inactive)
REMARK    1  A    between atoms: C_1  and  O_26 
REMARK    2  A    between atoms: C_3  and  O_24 
REMARK    3  A    between atoms: C_7  and  O_24 
REMARK    4  A    between atoms: C_9  and  N_10 
REMARK       I    between atoms: N_10  and  C_11 
REMARK    5  A    between atoms: C_11  and  C_13 
REMARK    6  A    between atoms: C_17  and  O_18 
REMARK    7  A    between atoms: O_18  and  C_19 
REMARK    8  A    between atoms: C_19  and  C_20 
REMARK    9  A    between atoms: C_20  and  N_21 
REMARK   10  A    between atoms: C_27  and  O_26 
ROOT
HETATM    1  N   UNK N   1      23.991  19.154   3.006  0.00  0.00    -0.320 N 
HETATM    2  C   UNK N   1      24.976  20.087   3.092  0.00  0.00     0.256 C 
HETATM    3  O   UNK N   1      25.078  20.903   2.186  0.00  0.00    -0.267 OA
HETATM    4  H   UNK N   1      23.724  18.863   2.105  0.00  0.00     0.169 HD
ENDROOT
BRANCH   2   5
HETATM    5  C   UNK N   1      26.016  20.099   4.159  0.00  0.00     0.033 A 
HETATM    6  C   UNK N   1      27.061  19.175   4.096  0.00  0.00     0.026 A 
HETATM    7  C   UNK N   1      27.937  18.988   5.163  0.00  0.00    -0.027 A 
HETATM    8  C   UNK N   1      29.052  18.019   4.960  0.00  0.00     0.051 C 
HETATM    9  C   UNK N   1      27.733  19.702   6.377  0.00  0.00     0.080 A 
HETATM   10  C   UNK N   1      26.690  20.651   6.432  0.00  0.00    -0.027 A 
HETATM   11  C   UNK N   1      26.429  21.413   7.688  0.00  0.00     0.051 C 
HETATM   12  C   UNK N   1      25.844  20.852   5.329  0.00  0.00     0.026 A 
BRANCH   9  13
HETATM   13  O   UNK N   1      28.492  19.506   7.498  0.00  0.00    -0.348 OA
BRANCH  13  14
HETATM   14  C   UNK N   1      28.330  18.486   8.415  0.00  0.00     0.194 C 
BRANCH  14  15
HETATM   15  C   UNK N   1      29.384  18.592   9.510  0.00  0.00     0.137 C 
BRANCH  15  16
HETATM   16  N   UNK N   1      29.601  17.288  10.112  0.00  0.00    -0.428 N 
HETATM   17  H   UNK N   1      30.252  17.154  10.886  0.00  0.00     0.149 HD
HETATM   18  H   UNK N   1      29.089  16.483   9.750  0.00  0.00     0.149 HD
ENDBRANCH  15  16
ENDBRANCH  14  15
ENDBRANCH  13  14
ENDBRANCH   9  13
ENDBRANCH   2   5
BRANCH   1  19
HETATM   19  C   UNK N   1      23.316  18.564   4.109  0.00  0.00     0.071 A 
HETATM   20  C   UNK N   1      23.843  17.421   4.721  0.00  0.00     0.069 A 
HETATM   21  C   UNK N   1      23.108  16.728   5.694  0.00  0.00     0.071 A 
HETATM   22  C   UNK N   1      21.827  17.184   6.045  0.00  0.00     0.039 A 
HETATM   23  C   UNK N   1      21.283  18.305   5.419  0.00  0.00     0.042 A 
HETATM   24  C   UNK N   1      22.013  18.994   4.436  0.00  0.00     0.095 A 
BRANCH  21  25
HETATM   25  O   UNK N   1      23.640  15.615   6.252  0.00  0.00    -0.351 OA
BRANCH  25  26
HETATM   26  C   UNK N   1      24.990  15.340   6.249  0.00  0.00     0.171 C 
HETATM   27  C   UNK N   1      25.306  14.343   7.345  0.00  0.00     0.034 C 
ENDBRANCH  25  26
ENDBRANCH  21  25
BRANCH  24  28
HETATM   28  O   UNK N   1      21.458  20.017   3.741  0.00  0.00    -0.349 OA
BRANCH  28  29
HETATM   29  C   UNK N   1      20.280  19.916   3.037  0.00  0.00     0.171 C 
HETATM   30  C   UNK N   1      20.582  19.443   1.630  0.00  0.00     0.034 C 
ENDBRANCH  28  29
ENDBRANCH  24  28
ENDBRANCH   1  19
TORSDOF 10
ENDMDL
MODEL 3
REMARK VINA RESULT:      -6.3     13.531     17.902
REMARK  10 active torsions:
REMARK  status: ('A' for Active; 'I' for Inactive)
REMARK    1  A    between atoms: C_1  and  O_26 
REMARK    2  A    between atoms: C_3  and  O_24 
REMARK    3  A    between atoms: C_7  and  O_24 
REMARK    4  A    between atoms: C_9  and  N_10 
REMARK       I    between atoms: N_10  and  C_11 
REMARK    5  A    between atoms: C_11  and  C_13 
REMARK    6  A    between atoms: C_17  and  O_18 
REMARK    7  A    between atoms: O_18  and  C_19 
REMARK    8  A    between atoms: C_19  and  C_20 
REMARK    9  A    between atoms: C_20  and  N_21 
REMARK   10  A    between atoms: C_27  and  O_26 
ROOT
HETATM    1  N   UNK N   1      25.586  25.625  -4.848  0.00  0.00    -0.320 N 
HETATM    2  C   UNK N   1      26.092  24.437  -5.272  0.00  0.00     0.256 C 
HETATM    3  O   UNK N   1      25.344  23.668  -5.860  0.00  0.00    -0.267 OA
HETATM    4  H   UNK N   1      24.633  25.646  -4.602  0.00  0.00     0.169 HD
ENDROOT
BRANCH   2   5
HETATM    5  C   UNK N   1      27.468  23.962  -4.954  0.00  0.00     0.033 A 
HETATM    6  C   UNK N   1      28.233  23.380  -5.967  0.00  0.00     0.026 A 
HETATM    7  C   UNK N   1      29.431  22.723  -5.694  0.00  0.00    -0.027 A 
HETATM    8  C   UNK N   1      30.193  22.192  -6.861  0.00  0.00     0.051 C 
HETATM    9  C   UNK N   1      29.864  22.578  -4.346  0.00  0.00     0.080 A 
HETATM   10  C   UNK N   1      29.103  23.186  -3.326  0.00  0.00    -0.027 A 
HETATM   11  C   UNK N   1      29.509  23.049  -1.896  0.00  0.00     0.051 C 
HETATM   12  C   UNK N   1      27.918  23.878  -3.629  0.00  0.00     0.026 A 
BRANCH   9  13
HETATM   13  O   UNK N   1      30.978  21.869  -3.990  0.00  0.00    -0.348 OA
BRANCH  13  14
HETATM   14  C   UNK N   1      32.277  22.338  -4.011  0.00  0.00     0.194 C 
BRANCH  14  15
HETATM   15  C   UNK N   1      33.257  21.180  -3.876  0.00  0.00     0.137 C 
BRANCH  15  16
HETATM   16  N   UNK N   1      33.357  20.781  -2.484  0.00  0.00    -0.428 N 
HETATM   17  H   UNK N   1      33.284  21.456  -1.723  0.00  0.00     0.149 HD
HETATM   18  H   UNK N   1      33.506  19.796  -2.259  0.00  0.00     0.149 HD
ENDBRANCH  15  16
ENDBRANCH  14  15
ENDBRANCH  13  14
ENDBRANCH   9  13
ENDBRANCH   2   5
BRANCH   1  19
HETATM   19  C   UNK N   1      26.317  26.838  -4.729  0.00  0.00     0.071 A 
HETATM   20  C   UNK N   1      26.532  27.404  -3.467  0.00  0.00     0.069 A 
HETATM   21  C   UNK N   1      27.099  28.681  -3.344  0.00  0.00     0.071 A 
HETATM   22  C   UNK N   1      27.442  29.398  -4.501  0.00  0.00     0.039 A 
HETATM   23  C   UNK N   1      27.205  28.853  -5.763  0.00  0.00     0.042 A 
HETATM   24  C   UNK N   1      26.626  27.578  -5.889  0.00  0.00     0.095 A 
BRANCH  21  25
HETATM   25  O   UNK N   1      27.275  29.207  -2.108  0.00  0.00    -0.351 OA
BRANCH  25  26
HETATM   26  C   UNK N   1      28.096  30.285  -1.857  0.00  0.00     0.171 C 
HETATM   27  C   UNK N   1      29.451  29.791  -1.393  0.00  0.00     0.034 C 
ENDBRANCH  25  26
ENDBRANCH  21  25
BRANCH  24  28
HETATM   28  O   UNK N   1      26.289  27.081  -7.104  0.00  0.00    -0.349 OA
BRANCH  28  29
HETATM   29  C   UNK N   1      27.205  26.687  -8.053  0.00  0.00     0.171 C 
HETATM   30  C   UNK N   1      26.659  25.493  -8.805  0.00  0.00     0.034 C 
ENDBRANCH  28  29
ENDBRANCH  24  28
ENDBRANCH   1  19
TORSDOF 10
ENDMDL
MODEL 4
REMARK VINA RESULT:      -6.2     13.260     15.995
REMARK  10 active torsions:
REMARK  status: ('A' for Active; 'I' for Inactive)
REMARK    1  A    between atoms: C_1  and  O_26 
REMARK    2  A    between atoms: C_3  and  O_24 
REMARK    3  A    between atoms: C_7  and  O_24 
REMARK    4  A    between atoms: C_9  and  N_10 
REMARK       I    between atoms: N_10  and  C_11 
REMARK    5  A    between atoms: C_11  and  C_13 
REMARK    6  A    between atoms: C_17  and  O_18 
REMARK    7  A    between atoms: O_18  and  C_19 
REMARK    8  A    between atoms: C_19  and  C_20 
REMARK    9  A    between atoms: C_20  and  N_21 
REMARK   10  A    between atoms: C_27  and  O_26 
ROOT
HETATM    1  N   UNK N   1      30.625  21.731  -3.217  0.00  0.00    -0.320 N 
HETATM    2  C   UNK N   1      30.317  22.867  -2.538  0.00  0.00     0.256 C 
HETATM    3  O   UNK N   1      30.598  22.922  -1.348  0.00  0.00    -0.267 OA
HETATM    4  H   UNK N   1      30.612  20.887  -2.711  0.00  0.00     0.169 HD
ENDROOT
BRANCH   2   5
HETATM    5  C   UNK N   1      29.548  24.001  -3.124  0.00  0.00     0.033 A 
HETATM    6  C   UNK N   1      28.192  23.824  -3.406  0.00  0.00     0.026 A 
HETATM    7  C   UNK N   1      27.471  24.757  -4.147  0.00  0.00    -0.027 A 
HETATM    8  C   UNK N   1      26.015  24.494  -4.333  0.00  0.00     0.051 C 
HETATM    9  C   UNK N   1      28.136  25.891  -4.694  0.00  0.00     0.080 A 
HETATM   10  C   UNK N   1      29.501  26.080  -4.390  0.00  0.00    -0.027 A 
HETATM   11  C   UNK N   1      30.245  27.245  -4.953  0.00  0.00     0.051 C 
HETATM   12  C   UNK N   1      30.198  25.145  -3.607  0.00  0.00     0.026 A 
BRANCH   9  13
HETATM   13  O   UNK N   1      27.520  26.800  -5.508  0.00  0.00    -0.348 OA
BRANCH  13  14
HETATM   14  C   UNK N   1      27.068  28.049  -5.128  0.00  0.00     0.194 C 
BRANCH  14  15
HETATM   15  C   UNK N   1      25.657  27.948  -4.563  0.00  0.00     0.137 C 
BRANCH  15  16
HETATM   16  N   UNK N   1      25.705  27.967  -3.112  0.00  0.00    -0.428 N 
HETATM   17  H   UNK N   1      25.389  28.773  -2.573  0.00  0.00     0.149 HD
HETATM   18  H   UNK N   1      26.066  27.151  -2.617  0.00  0.00     0.149 HD
ENDBRANCH  15  16
ENDBRANCH  14  15
ENDBRANCH  13  14
ENDBRANCH   9  13
ENDBRANCH   2   5
BRANCH   1  19
HETATM   19  C   UNK N   1      30.963  21.659  -4.596  0.00  0.00     0.071 A 
HETATM   20  C   UNK N   1      29.973  21.375  -5.544  0.00  0.00     0.069 A 
HETATM   21  C   UNK N   1      30.315  21.133  -6.882  0.00  0.00     0.071 A 
HETATM   22  C   UNK N   1      31.666  21.166  -7.266  0.00  0.00     0.039 A 
HETATM   23  C   UNK N   1      32.659  21.420  -6.322  0.00  0.00     0.042 A 
HETATM   24  C   UNK N   1      32.320  21.652  -4.978  0.00  0.00     0.095 A 
BRANCH  21  25
HETATM   25  O   UNK N   1      29.334  20.841  -7.770  0.00  0.00    -0.351 OA
BRANCH  25  26
HETATM   26  C   UNK N   1      29.380  19.754  -8.615  0.00  0.00     0.171 C 
HETATM   27  C   UNK N   1      29.272  18.478  -7.804  0.00  0.00     0.034 C 
ENDBRANCH  25  26
ENDBRANCH  21  25
BRANCH  24  28
HETATM   28  O   UNK N   1      33.278  21.792  -4.029  0.00  0.00    -0.349 OA
BRANCH  28  29
HETATM   29  C   UNK N   1      34.103  20.771  -3.616  0.00  0.00     0.171 C 
HETATM   30  C   UNK N   1      35.524  21.080  -4.036  0.00  0.00     0.034 C 
ENDBRANCH  28  29
ENDBRANCH  24  28
ENDBRANCH   1  19
TORSDOF 10
ENDMDL
MODEL 5
REMARK VINA RESULT:      -6.2      8.597     13.334
REMARK  10 active torsions:
REMARK  status: ('A' for Active; 'I' for Inactive)
REMARK    1  A    between atoms: C_1  and  O_26 
REMARK    2  A    between atoms: C_3  and  O_24 
REMARK    3  A    between atoms: C_7  and  O_24 
REMARK    4  A    between atoms: C_9  and  N_10 
REMARK       I    between atoms: N_10  and  C_11 
REMARK    5  A    between atoms: C_11  and  C_13 
REMARK    6  A    between atoms: C_17  and  O_18 
REMARK    7  A    between atoms: O_18  and  C_19 
REMARK    8  A    between atoms: C_19  and  C_20 
REMARK    9  A    between atoms: C_20  and  N_21 
REMARK   10  A    between atoms: C_27  and  O_26 
ROOT
HETATM    1  N   UNK N   1      35.243   9.286  21.071  0.00  0.00    -0.320 N 
HETATM    2  C   UNK N   1      36.005   9.981  20.186  0.00  0.00     0.256 C 
HETATM    3  O   UNK N   1      37.216  10.007  20.364  0.00  0.00    -0.267 OA
HETATM    4  H   UNK N   1      35.565   9.237  22.000  0.00  0.00     0.169 HD
ENDROOT
BRANCH   2   5
HETATM    5  C   UNK N   1      35.445  10.815  19.086  0.00  0.00     0.033 A 
HETATM    6  C   UNK N   1      35.173  10.216  17.854  0.00  0.00     0.026 A 
HETATM    7  C   UNK N   1      34.857  10.971  16.727  0.00  0.00    -0.027 A 
HETATM    8  C   UNK N   1      34.526  10.220  15.482  0.00  0.00     0.051 C 
HETATM    9  C   UNK N   1      34.874  12.392  16.802  0.00  0.00     0.080 A 
HETATM   10  C   UNK N   1      35.127  12.996  18.052  0.00  0.00    -0.027 A 
HETATM   11  C   UNK N   1      35.169  14.482  18.177  0.00  0.00     0.051 C 
HETATM   12  C   UNK N   1      35.404  12.213  19.185  0.00  0.00     0.026 A 
BRANCH   9  13
HETATM   13  O   UNK N   1      34.666  13.202  15.720  0.00  0.00    -0.348 OA
BRANCH  13  14
HETATM   14  C   UNK N   1      35.489  13.301  14.615  0.00  0.00     0.194 C 
BRANCH  14  15
HETATM   15  C   UNK N   1      36.930  13.532  15.051  0.00  0.00     0.137 C 
BRANCH  15  16
HETATM   16  N   UNK N   1      37.239  14.950  14.997  0.00  0.00    -0.428 N 
HETATM   17  H   UNK N   1      36.764  15.580  14.350  0.00  0.00     0.149 HD
HETATM   18  H   UNK N   1      37.951  15.327  15.623  0.00  0.00     0.149 HD
ENDBRANCH  15  16
ENDBRANCH  14  15
ENDBRANCH  13  14
ENDBRANCH   9  13
ENDBRANCH   2   5
BRANCH   1  19
HETATM   19  C   UNK N   1      34.022   8.625  20.768  0.00  0.00     0.071 A 
HETATM   20  C   UNK N   1      34.028   7.484  19.958  0.00  0.00     0.069 A 
HETATM   21  C   UNK N   1      32.825   6.920  19.509  0.00  0.00     0.071 A 
HETATM   22  C   UNK N   1      31.606   7.517  19.870  0.00  0.00     0.039 A 
HETATM   23  C   UNK N   1      31.593   8.671  20.652  0.00  0.00     0.042 A 
HETATM   24  C   UNK N   1      32.798   9.244  21.094  0.00  0.00     0.095 A 
BRANCH  21  25
HETATM   25  O   UNK N   1      32.867   5.827  18.710  0.00  0.00    -0.351 OA
BRANCH  25  26
HETATM   26  C   UNK N   1      32.345   4.605  19.076  0.00  0.00     0.171 C 
HETATM   27  C   UNK N   1      31.264   4.202  18.093  0.00  0.00     0.034 C 
ENDBRANCH  25  26
ENDBRANCH  21  25
BRANCH  24  28
HETATM   28  O   UNK N   1      32.808  10.424  21.762  0.00  0.00    -0.349 OA
BRANCH  28  29
HETATM   29  C   UNK N   1      33.090  10.543  23.104  0.00  0.00     0.171 C 
HETATM   30  C   UNK N   1      32.051   9.783  23.900  0.00  0.00     0.034 C 
ENDBRANCH  28  29
ENDBRANCH  24  28
ENDBRANCH   1  19
TORSDOF 10
ENDMDL
MODEL 6
REMARK VINA RESULT:      -6.1      1.796      4.262
REMARK  10 active torsions:
REMARK  status: ('A' for Active; 'I' for Inactive)
REMARK    1  A    between atoms: C_1  and  O_26 
REMARK    2  A    between atoms: C_3  and  O_24 
REMARK    3  A    between atoms: C_7  and  O_24 
REMARK    4  A    between atoms: C_9  and  N_10 
REMARK       I    between atoms: N_10  and  C_11 
REMARK    5  A    between atoms: C_11  and  C_13 
REMARK    6  A    between atoms: C_17  and  O_18 
REMARK    7  A    between atoms: O_18  and  C_19 
REMARK    8  A    between atoms: C_19  and  C_20 
REMARK    9  A    between atoms: C_20  and  N_21 
REMARK   10  A    between atoms: C_27  and  O_26 
ROOT
HETATM    1  N   UNK N   1      35.033  17.020   9.306  0.00  0.00    -0.320 N 
HETATM    2  C   UNK N   1      34.613  17.995   8.457  0.00  0.00     0.256 C 
HETATM    3  O   UNK N   1      35.202  19.068   8.475  0.00  0.00    -0.267 OA
HETATM    4  H   UNK N   1      35.423  17.307  10.163  0.00  0.00     0.169 HD
ENDROOT
BRANCH   2   5
HETATM    5  C   UNK N   1      33.402  17.880   7.597  0.00  0.00     0.033 A 
HETATM    6  C   UNK N   1      32.156  17.709   8.202  0.00  0.00     0.026 A 
HETATM    7  C   UNK N   1      31.022  17.380   7.462  0.00  0.00    -0.027 A 
HETATM    8  C   UNK N   1      29.733  17.282   8.206  0.00  0.00     0.051 C 
HETATM    9  C   UNK N   1      31.136  17.145   6.062  0.00  0.00     0.080 A 
HETATM   10  C   UNK N   1      32.392  17.340   5.449  0.00  0.00    -0.027 A 
HETATM   11  C   UNK N   1      32.564  17.092   3.987  0.00  0.00     0.051 C 
HETATM   12  C   UNK N   1      33.513  17.711   6.209  0.00  0.00     0.026 A 
BRANCH   9  13
HETATM   13  O   UNK N   1      30.091  16.729   5.285  0.00  0.00    -0.348 OA
BRANCH  13  14
HETATM   14  C   UNK N   1      29.138  17.545   4.707  0.00  0.00     0.194 C 
BRANCH  14  15
HETATM   15  C   UNK N   1      28.567  16.884   3.459  0.00  0.00     0.137 C 
BRANCH  15  16
HETATM   16  N   UNK N   1      27.704  15.780   3.838  0.00  0.00    -0.428 N 
HETATM   17  H   UNK N   1      28.040  14.817   3.861  0.00  0.00     0.149 HD
HETATM   18  H   UNK N   1      26.734  15.972   4.088  0.00  0.00     0.149 HD
ENDBRANCH  15  16
ENDBRANCH  14  15
ENDBRANCH  13  14
ENDBRANCH   9  13
ENDBRANCH   2   5
BRANCH   1  19
HETATM   19  C   UNK N   1      34.954  15.622   9.060  0.00  0.00     0.071 A 
HETATM   20  C   UNK N   1      34.850  15.149   7.747  0.00  0.00     0.069 A 
HETATM   21  C   UNK N   1      34.601  13.792   7.494  0.00  0.00     0.071 A 
HETATM   22  C   UNK N   1      34.445  12.907   8.573  0.00  0.00     0.039 A 
HETATM   23  C   UNK N   1      34.519  13.376   9.884  0.00  0.00     0.042 A 
HETATM   24  C   UNK N   1      34.757  14.737  10.140  0.00  0.00     0.095 A 
BRANCH  21  25
HETATM   25  O   UNK N   1      34.487  13.371   6.212  0.00  0.00    -0.351 OA
BRANCH  25  26
HETATM   26  C   UNK N   1      33.392  12.681   5.739  0.00  0.00     0.171 C 
HETATM   27  C   UNK N   1      32.199  13.613   5.670  0.00  0.00     0.034 C 
ENDBRANCH  25  26
ENDBRANCH  21  25
BRANCH  24  28
HETATM   28  O   UNK N   1      34.723  15.228  11.403  0.00  0.00    -0.349 OA
BRANCH  28  29
HETATM   29  C   UNK N   1      35.823  15.302  12.226  0.00  0.00     0.171 C 
HETATM   30  C   UNK N   1      35.801  14.136  13.191  0.00  0.00     0.034 C 
ENDBRANCH  28  29
ENDBRANCH  24  28
ENDBRANCH   1  19
TORSDOF 10
ENDMDL
MODEL 7
REMARK VINA RESULT:      -6.1     13.214     16.169
REMARK  10 active torsions:
REMARK  status: ('A' for Active; 'I' for Inactive)
REMARK    1  A    between atoms: C_1  and  O_26 
REMARK    2  A    between atoms: C_3  and  O_24 
REMARK    3  A    between atoms: C_7  and  O_24 
REMARK    4  A    between atoms: C_9  and  N_10 
REMARK       I    between atoms: N_10  and  C_11 
REMARK    5  A    between atoms: C_11  and  C_13 
REMARK    6  A    between atoms: C_17  and  O_18 
REMARK    7  A    between atoms: O_18  and  C_19 
REMARK    8  A    between atoms: C_19  and  C_20 
REMARK    9  A    between atoms: C_20  and  N_21 
REMARK   10  A    between atoms: C_27  and  O_26 
ROOT
HETATM    1  N   UNK N   1      30.344  21.463  -3.400  0.00  0.00    -0.320 N 
HETATM    2  C   UNK N   1      30.377  22.690  -2.817  0.00  0.00     0.256 C 
HETATM    3  O   UNK N   1      30.832  22.778  -1.684  0.00  0.00    -0.267 OA
HETATM    4  H   UNK N   1      30.232  20.686  -2.807  0.00  0.00     0.169 HD
ENDROOT
BRANCH   2   5
HETATM    5  C   UNK N   1      29.780  23.913  -3.424  0.00  0.00     0.033 A 
HETATM    6  C   UNK N   1      30.575  25.052  -3.572  0.00  0.00     0.026 A 
HETATM    7  C   UNK N   1      30.029  26.284  -3.926  0.00  0.00    -0.027 A 
HETATM    8  C   UNK N   1      30.981  27.416  -4.114  0.00  0.00     0.051 C 
HETATM    9  C   UNK N   1      28.620  26.414  -4.078  0.00  0.00     0.080 A 
HETATM   10  C   UNK N   1      27.820  25.258  -3.950  0.00  0.00    -0.027 A 
HETATM   11  C   UNK N   1      26.337  25.348  -4.087  0.00  0.00     0.051 C 
HETATM   12  C   UNK N   1      28.398  24.018  -3.632  0.00  0.00     0.026 A 
BRANCH   9  13
HETATM   13  O   UNK N   1      28.001  27.606  -4.333  0.00  0.00    -0.348 OA
BRANCH  13  14
HETATM   14  C   UNK N   1      27.649  28.552  -3.389  0.00  0.00     0.194 C 
BRANCH  14  15
HETATM   15  C   UNK N   1      26.214  29.011  -3.615  0.00  0.00     0.137 C 
BRANCH  15  16
HETATM   16  N   UNK N   1      26.145  30.460  -3.544  0.00  0.00    -0.428 N 
HETATM   17  H   UNK N   1      25.661  31.011  -4.254  0.00  0.00     0.149 HD
HETATM   18  H   UNK N   1      26.592  30.941  -2.764  0.00  0.00     0.149 HD
ENDBRANCH  15  16
ENDBRANCH  14  15
ENDBRANCH  13  14
ENDBRANCH   9  13
ENDBRANCH   2   5
BRANCH   1  19
HETATM   19  C   UNK N   1      30.458  21.210  -4.794  0.00  0.00     0.071 A 
HETATM   20  C   UNK N   1      29.483  21.693  -5.674  0.00  0.00     0.069 A 
HETATM   21  C   UNK N   1      29.486  21.311  -7.024  0.00  0.00     0.071 A 
HETATM   22  C   UNK N   1      30.472  20.425  -7.488  0.00  0.00     0.039 A 
HETATM   23  C   UNK N   1      31.429  19.916  -6.611  0.00  0.00     0.042 A 
HETATM   24  C   UNK N   1      31.422  20.290  -5.256  0.00  0.00     0.095 A 
BRANCH  21  25
HETATM   25  O   UNK N   1      28.516  21.782  -7.844  0.00  0.00    -0.351 OA
BRANCH  25  26
HETATM   26  C   UNK N   1      27.302  22.247  -7.388  0.00  0.00     0.171 C 
HETATM   27  C   UNK N   1      26.181  21.542  -8.125  0.00  0.00     0.034 C 
ENDBRANCH  25  26
ENDBRANCH  21  25
BRANCH  24  28
HETATM   28  O   UNK N   1      32.276  19.722  -4.370  0.00  0.00    -0.349 OA
BRANCH  28  29
HETATM   29  C   UNK N   1      33.641  19.896  -4.400  0.00  0.00     0.171 C 
HETATM   30  C   UNK N   1      34.041  20.875  -3.317  0.00  0.00     0.034 C 
ENDBRANCH  28  29
ENDBRANCH  24  28
ENDBRANCH   1  19
TORSDOF 10
ENDMDL
MODEL 8
REMARK VINA RESULT:      -6.0      7.947     12.909
REMARK  10 active torsions:
REMARK  status: ('A' for Active; 'I' for Inactive)
REMARK    1  A    between atoms: C_1  and  O_26 
REMARK    2  A    between atoms: C_3  and  O_24 
REMARK    3  A    between atoms: C_7  and  O_24 
REMARK    4  A    between atoms: C_9  and  N_10 
REMARK       I    between atoms: N_10  and  C_11 
REMARK    5  A    between atoms: C_11  and  C_13 
REMARK    6  A    between atoms: C_17  and  O_18 
REMARK    7  A    between atoms: O_18  and  C_19 
REMARK    8  A    between atoms: C_19  and  C_20 
REMARK    9  A    between atoms: C_20  and  N_21 
REMARK   10  A    between atoms: C_27  and  O_26 
ROOT
HETATM    1  N   UNK N   1      20.668  17.738   4.508  0.00  0.00    -0.320 N 
HETATM    2  C   UNK N   1      21.793  17.845   5.264  0.00  0.00     0.256 C 
HETATM    3  O   UNK N   1      21.664  17.958   6.476  0.00  0.00    -0.267 OA
HETATM    4  H   UNK N   1      19.861  18.195   4.836  0.00  0.00     0.169 HD
ENDROOT
BRANCH   2   5
HETATM    5  C   UNK N   1      23.166  17.957   4.696  0.00  0.00     0.033 A 
HETATM    6  C   UNK N   1      24.169  17.116   5.182  0.00  0.00     0.026 A 
HETATM    7  C   UNK N   1      25.509  17.311   4.856  0.00  0.00    -0.027 A 
HETATM    8  C   UNK N   1      26.486  16.315   5.383  0.00  0.00     0.051 C 
HETATM    9  C   UNK N   1      25.886  18.432   4.063  0.00  0.00     0.080 A 
HETATM   10  C   UNK N   1      24.869  19.268   3.554  0.00  0.00    -0.027 A 
HETATM   11  C   UNK N   1      25.217  20.463   2.731  0.00  0.00     0.051 C 
HETATM   12  C   UNK N   1      23.521  19.027   3.864  0.00  0.00     0.026 A 
BRANCH   9  13
HETATM   13  O   UNK N   1      27.186  18.744   3.778  0.00  0.00    -0.348 OA
BRANCH  13  14
HETATM   14  C   UNK N   1      28.100  19.287   4.661  0.00  0.00     0.194 C 
BRANCH  14  15
HETATM   15  C   UNK N   1      27.385  20.151   5.692  0.00  0.00     0.137 C 
BRANCH  15  16
HETATM   16  N   UNK N   1      27.486  19.536   7.004  0.00  0.00    -0.428 N 
HETATM   17  H   UNK N   1      26.751  18.933   7.374  0.00  0.00     0.149 HD
HETATM   18  H   UNK N   1      28.315  19.712   7.571  0.00  0.00     0.149 HD
ENDBRANCH  15  16
ENDBRANCH  14  15
ENDBRANCH  13  14
ENDBRANCH   9  13
ENDBRANCH   2   5
BRANCH   1  19
HETATM   19  C   UNK N   1      20.561  17.021   3.285  0.00  0.00     0.071 A 
HETATM   20  C   UNK N   1      21.028  15.704   3.204  0.00  0.00     0.069 A 
HETATM   21  C   UNK N   1      21.087  15.042   1.969  0.00  0.00     0.071 A 
HETATM   22  C   UNK N   1      20.683  15.716   0.805  0.00  0.00     0.039 A 
HETATM   23  C   UNK N   1      20.245  17.038   0.874  0.00  0.00     0.042 A 
HETATM   24  C   UNK N   1      20.194  17.707   2.108  0.00  0.00     0.095 A 
BRANCH  21  25
HETATM   25  O   UNK N   1      21.563  13.775   1.923  0.00  0.00    -0.351 OA
BRANCH  25  26
HETATM   26  C   UNK N   1      21.864  13.124   0.746  0.00  0.00     0.171 C 
HETATM   27  C   UNK N   1      23.319  13.361   0.395  0.00  0.00     0.034 C 
ENDBRANCH  25  26
ENDBRANCH  21  25
BRANCH  24  28
HETATM   28  O   UNK N   1      19.875  19.022   2.179  0.00  0.00    -0.349 OA
BRANCH  28  29
HETATM   29  C   UNK N   1      20.608  20.022   1.582  0.00  0.00     0.171 C 
HETATM   30  C   UNK N   1      21.027  21.027   2.634  0.00  0.00     0.034 C 
ENDBRANCH  28  29
ENDBRANCH  24  28
ENDBRANCH   1  19
TORSDOF 10
ENDMDL
MODEL 9
REMARK VINA RESULT:      -5.9      2.228      7.216
REMARK  10 active torsions:
REMARK  status: ('A' for Active; 'I' for Inactive)
REMARK    1  A    between atoms: C_1  and  O_26 
REMARK    2  A    between atoms: C_3  and  O_24 
REMARK    3  A    between atoms: C_7  and  O_24 
REMARK    4  A    between atoms: C_9  and  N_10 
REMARK       I    between atoms: N_10  and  C_11 
REMARK    5  A    between atoms: C_11  and  C_13 
REMARK    6  A    between atoms: C_17  and  O_18 
REMARK    7  A    between atoms: O_18  and  C_19 
REMARK    8  A    between atoms: C_19  and  C_20 
REMARK    9  A    between atoms: C_20  and  N_21 
REMARK   10  A    between atoms: C_27  and  O_26 
ROOT
HETATM    1  N   UNK N   1      33.936  18.368   7.595  0.00  0.00    -0.320 N 
HETATM    2  C   UNK N   1      34.777  18.057   8.616  0.00  0.00     0.256 C 
HETATM    3  O   UNK N   1      35.523  18.932   9.035  0.00  0.00    -0.267 OA
HETATM    4  H   UNK N   1      34.242  19.047   6.951  0.00  0.00     0.169 HD
ENDROOT
BRANCH   2   5
HETATM    5  C   UNK N   1      34.933  16.684   9.174  0.00  0.00     0.033 A 
HETATM    6  C   UNK N   1      35.253  16.535  10.525  0.00  0.00     0.026 A 
HETATM    7  C   UNK N   1      35.624  15.303  11.057  0.00  0.00    -0.027 A 
HETATM    8  C   UNK N   1      35.886  15.251  12.524  0.00  0.00     0.051 C 
HETATM    9  C   UNK N   1      35.748  14.172  10.200  0.00  0.00     0.080 A 
HETATM   10  C   UNK N   1      35.402  14.319   8.840  0.00  0.00    -0.027 A 
HETATM   11  C   UNK N   1      35.529  13.166   7.901  0.00  0.00     0.051 C 
HETATM   12  C   UNK N   1      34.992  15.564   8.334  0.00  0.00     0.026 A 
BRANCH   9  13
HETATM   13  O   UNK N   1      36.195  12.953  10.629  0.00  0.00    -0.348 OA
BRANCH  13  14
HETATM   14  C   UNK N   1      35.426  11.975  11.228  0.00  0.00     0.194 C 
BRANCH  14  15
HETATM   15  C   UNK N   1      36.090  11.498  12.514  0.00  0.00     0.137 C 
BRANCH  15  16
HETATM   16  N   UNK N   1      37.205  10.624  12.197  0.00  0.00    -0.428 N 
HETATM   17  H   UNK N   1      37.064   9.667  11.874  0.00  0.00     0.149 HD
HETATM   18  H   UNK N   1      38.157  10.978  12.299  0.00  0.00     0.149 HD
ENDBRANCH  15  16
ENDBRANCH  14  15
ENDBRANCH  13  14
ENDBRANCH   9  13
ENDBRANCH   2   5
BRANCH   1  19
HETATM   19  C   UNK N   1      32.654  17.794   7.379  0.00  0.00     0.071 A 
HETATM   20  C   UNK N   1      31.692  17.830   8.395  0.00  0.00     0.069 A 
HETATM   21  C   UNK N   1      30.488  17.124   8.264  0.00  0.00     0.071 A 
HETATM   22  C   UNK N   1      30.254  16.367   7.104  0.00  0.00     0.039 A 
HETATM   23  C   UNK N   1      31.220  16.303   6.100  0.00  0.00     0.042 A 
HETATM   24  C   UNK N   1      32.432  17.001   6.234  0.00  0.00     0.095 A 
BRANCH  21  25
HETATM   25  O   UNK N   1      29.587  17.163   9.275  0.00  0.00    -0.351 OA
BRANCH  25  26
HETATM   26  C   UNK N   1      28.249  17.430   9.083  0.00  0.00     0.171 C 
HETATM   27  C   UNK N   1      28.089  18.821   8.501  0.00  0.00     0.034 C 
ENDBRANCH  25  26
ENDBRANCH  21  25
BRANCH  24  28
HETATM   28  O   UNK N   1      33.423  16.863   5.320  0.00  0.00    -0.349 OA
BRANCH  28  29
HETATM   29  C   UNK N   1      33.427  15.905   4.332  0.00  0.00     0.171 C 
HETATM   30  C   UNK N   1      34.426  14.825   4.691  0.00  0.00     0.034 C 
ENDBRANCH  28  29
ENDBRANCH  24  28
ENDBRANCH   1  19
TORSDOF 10
ENDMDL
