MODEL 1
REMARK VINA RESULT:      -7.1      0.000      0.000
REMARK  9 active torsions:
REMARK  status: ('A' for Active; 'I' for Inactive)
REMARK    1  A    between atoms: N_1  and  C_7 
REMARK    2  A    between atoms: C_11  and  O_30 
REMARK    3  A    between atoms: C_12  and  N_13 
REMARK       I    between atoms: N_13  and  C_14 
REMARK    4  A    between atoms: C_14  and  C_16 
REMARK    5  A    between atoms: C_21  and  O_22 
REMARK    6  A    between atoms: O_22  and  C_23 
REMARK    7  A    between atoms: C_23  and  C_24 
REMARK    8  A    between atoms: C_24  and  N_25 
REMARK    9  A    between atoms: O_30  and  C_31 
ROOT
HETATM    1  N   UNK N   1      35.093  13.320  13.248  0.00  0.00    -0.320 N 
HETATM    2  C   UNK N   1      34.628  12.144  13.753  0.00  0.00     0.256 C 
HETATM    3  O   UNK N   1      34.263  11.233  13.036  0.00  0.00    -0.267 OA
HETATM    4  H   UNK N   1      35.186  14.039  13.914  0.00  0.00     0.169 HD
ENDROOT
BRANCH   1   5
HETATM    5  C   UNK N   1      35.471  13.694  11.922  0.00  0.00     0.072 A 
HETATM    6  C   UNK N   1      36.718  13.374  11.300  0.00  0.00     0.117 A 
HETATM    7  C   UNK N   1      36.976  13.880   9.990  0.00  0.00     0.071 A 
HETATM    8  C   UNK N   1      36.045  14.713   9.369  0.00  0.00     0.056 A 
HETATM    9 Cl   UNK N   1      38.450  13.563   9.079  0.00  0.00    -0.081 Cl
HETATM   10  C   UNK N   1      34.855  15.067  10.006  0.00  0.00     0.034 A 
HETATM   11  C   UNK N   1      34.586  14.546  11.267  0.00  0.00     0.061 A 
BRANCH   6  12
HETATM   12  O   UNK N   1      37.624  12.633  11.992  0.00  0.00    -0.347 OA
BRANCH  12  13
HETATM   13  C   UNK N   1      37.737  11.267  12.061  0.00  0.00     0.171 C 
HETATM   14  C   UNK N   1      37.920  10.856  13.508  0.00  0.00     0.034 C 
ENDBRANCH  12  13
ENDBRANCH   6  12
BRANCH  10  15
HETATM   15  N   UNK N   1      33.948  15.990   9.406  0.00  0.00    -0.381 N 
HETATM   16  C   UNK N   1      32.583  15.601   9.110  0.00  0.00     0.123 C 
HETATM   17  C   UNK N   1      32.305  15.828   7.631  0.00  0.00     0.020 C 
HETATM   18  C   UNK N   1      32.641  17.272   7.258  0.00  0.00     0.003 C 
HETATM   19  C   UNK N   1      34.098  17.590   7.598  0.00  0.00     0.020 C 
HETATM   20  C   UNK N   1      34.355  17.340   9.082  0.00  0.00     0.123 C 
ENDBRANCH  10  15
ENDBRANCH   1   5
BRANCH   2  21
HETATM   21  C   UNK N   1      34.683  11.948  15.206  0.00  0.00     0.033 A 
HETATM   22  C   UNK N   1      34.682  10.651  15.712  0.00  0.00     0.026 A 
HETATM   23  C   UNK N   1      34.906  10.411  17.064  0.00  0.00    -0.027 A 
HETATM   24  C   UNK N   1      34.954   8.982  17.487  0.00  0.00     0.051 C 
HETATM   25  C   UNK N   1      35.102  11.507  17.956  0.00  0.00     0.080 A 
HETATM   26  C   UNK N   1      35.067  12.817  17.433  0.00  0.00    -0.027 A 
HETATM   27  C   UNK N   1      35.250  13.999  18.322  0.00  0.00     0.051 C 
HETATM   28  C   UNK N   1      34.891  13.027  16.067  0.00  0.00     0.026 A 
BRANCH  25  29
HETATM   29  O   UNK N   1      35.323  11.365  19.292  0.00  0.00    -0.348 OA
BRANCH  29  30
HETATM   30  C   UNK N   1      36.437  10.801  19.872  0.00  0.00     0.194 C 
BRANCH  30  31
HETATM   31  C   UNK N   1      36.020   9.864  20.989  0.00  0.00     0.137 C 
BRANCH  31  32
HETATM   32  N   UNK N   1      34.811  10.359  21.623  0.00  0.00    -0.428 N 
HETATM   33  H   UNK N   1      34.379  10.959  22.326  0.00  0.00     0.149 HD
HETATM   34  H   UNK N   1      34.039   9.890  21.149  0.00  0.00     0.149 HD
ENDBRANCH  31  32
ENDBRANCH  30  31
ENDBRANCH  29  30
ENDBRANCH  25  29
ENDBRANCH   2  21
TORSDOF 9
ENDMDL
MODEL 2
REMARK VINA RESULT:      -7.0      3.823     10.444
REMARK  9 active torsions:
REMARK  status: ('A' for Active; 'I' for Inactive)
REMARK    1  A    between atoms: N_1  and  C_7 
REMARK    2  A    between atoms: C_11  and  O_30 
REMARK    3  A    between atoms: C_12  and  N_13 
REMARK       I    between atoms: N_13  and  C_14 
REMARK    4  A    between atoms: C_14  and  C_16 
REMARK    5  A    between atoms: C_21  and  O_22 
REMARK    6  A    between atoms: O_22  and  C_23 
REMARK    7  A    between atoms: C_23  and  C_24 
REMARK    8  A    between atoms: C_24  and  N_25 
REMARK    9  A    between atoms: O_30  and  C_31 
ROOT
HETATM    1  N   UNK N   1      33.399  15.831   9.531  0.00  0.00    -0.320 N 
HETATM    2  C   UNK N   1      33.227  17.054   8.956  0.00  0.00     0.256 C 
HETATM    3  O   UNK N   1      34.122  17.876   8.907  0.00  0.00    -0.267 OA
HETATM    4  H   UNK N   1      32.564  15.329   9.671  0.00  0.00     0.169 HD
ENDROOT
BRANCH   1   5
HETATM    5  C   UNK N   1      34.576  15.149   9.964  0.00  0.00     0.072 A 
HETATM    6  C   UNK N   1      35.672  14.784   9.123  0.00  0.00     0.117 A 
HETATM    7  C   UNK N   1      36.751  14.040   9.693  0.00  0.00     0.071 A 
HETATM    8  C   UNK N   1      36.692  13.641  11.029  0.00  0.00     0.056 A 
HETATM    9 Cl   UNK N   1      38.181  13.530   8.801  0.00  0.00    -0.081 Cl
HETATM   10  C   UNK N   1      35.592  13.953  11.828  0.00  0.00     0.034 A 
HETATM   11  C   UNK N   1      34.557  14.707  11.284  0.00  0.00     0.061 A 
BRANCH   6  12
HETATM   12  O   UNK N   1      35.631  15.123   7.807  0.00  0.00    -0.347 OA
BRANCH  12  13
HETATM   13  C   UNK N   1      35.087  14.421   6.761  0.00  0.00     0.171 C 
HETATM   14  C   UNK N   1      34.822  15.369   5.609  0.00  0.00     0.034 C 
ENDBRANCH  12  13
ENDBRANCH   6  12
BRANCH  10  15
HETATM   15  N   UNK N   1      35.494  13.466  13.165  0.00  0.00    -0.381 N 
HETATM   16  C   UNK N   1      36.136  14.168  14.258  0.00  0.00     0.123 C 
HETATM   17  C   UNK N   1      37.073  13.215  14.988  0.00  0.00     0.020 C 
HETATM   18  C   UNK N   1      36.306  11.962  15.412  0.00  0.00     0.003 C 
HETATM   19  C   UNK N   1      35.668  11.285  14.197  0.00  0.00     0.020 C 
HETATM   20  C   UNK N   1      34.748  12.265  13.474  0.00  0.00     0.123 C 
ENDBRANCH  10  15
ENDBRANCH   1   5
BRANCH   2  21
HETATM   21  C   UNK N   1      31.953  17.327   8.282  0.00  0.00     0.033 A 
HETATM   22  C   UNK N   1      31.876  17.178   6.899  0.00  0.00     0.026 A 
HETATM   23  C   UNK N   1      30.654  17.256   6.238  0.00  0.00    -0.027 A 
HETATM   24  C   UNK N   1      30.676  17.012   4.768  0.00  0.00     0.051 C 
HETATM   25  C   UNK N   1      29.465  17.531   6.978  0.00  0.00     0.080 A 
HETATM   26  C   UNK N   1      29.564  17.713   8.373  0.00  0.00    -0.027 A 
HETATM   27  C   UNK N   1      28.357  18.017   9.191  0.00  0.00     0.051 C 
HETATM   28  C   UNK N   1      30.794  17.579   9.017  0.00  0.00     0.026 A 
BRANCH  25  29
HETATM   29  O   UNK N   1      28.229  17.629   6.413  0.00  0.00    -0.348 OA
BRANCH  29  30
HETATM   30  C   UNK N   1      27.653  18.779   5.924  0.00  0.00     0.194 C 
BRANCH  30  31
HETATM   31  C   UNK N   1      27.355  18.619   4.446  0.00  0.00     0.137 C 
BRANCH  31  32
HETATM   32  N   UNK N   1      27.863  19.766   3.713  0.00  0.00    -0.428 N 
HETATM   33  H   UNK N   1      28.051  20.768   3.685  0.00  0.00     0.149 HD
HETATM   34  H   UNK N   1      28.174  19.401   2.812  0.00  0.00     0.149 HD
ENDBRANCH  31  32
ENDBRANCH  30  31
ENDBRANCH  29  30
ENDBRANCH  25  29
ENDBRANCH   2  21
TORSDOF 9
ENDMDL
MODEL 3
REMARK VINA RESULT:      -6.7      8.861     13.540
REMARK  9 active torsions:
REMARK  status: ('A' for Active; 'I' for Inactive)
REMARK    1  A    between atoms: N_1  and  C_7 
REMARK    2  A    between atoms: C_11  and  O_30 
REMARK    3  A    between atoms: C_12  and  N_13 
REMARK       I    between atoms: N_13  and  C_14 
REMARK    4  A    between atoms: C_14  and  C_16 
REMARK    5  A    between atoms: C_21  and  O_22 
REMARK    6  A    between atoms: O_22  and  C_23 
REMARK    7  A    between atoms: C_23  and  C_24 
REMARK    8  A    between atoms: C_24  and  N_25 
REMARK    9  A    between atoms: O_30  and  C_31 
ROOT
HETATM    1  N   UNK N   1      26.608  17.459   5.606  0.00  0.00    -0.320 N 
HETATM    2  C   UNK N   1      27.829  17.101   5.121  0.00  0.00     0.256 C 
HETATM    3  O   UNK N   1      28.012  16.863   3.942  0.00  0.00    -0.267 OA
HETATM    4  H   UNK N   1      26.543  17.449   6.588  0.00  0.00     0.169 HD
ENDROOT
BRANCH   1   5
HETATM    5  C   UNK N   1      25.405  17.845   4.940  0.00  0.00     0.072 A 
HETATM    6  C   UNK N   1      25.180  19.112   4.316  0.00  0.00     0.117 A 
HETATM    7  C   UNK N   1      23.894  19.375   3.752  0.00  0.00     0.071 A 
HETATM    8  C   UNK N   1      22.876  18.427   3.865  0.00  0.00     0.056 A 
HETATM    9 Cl   UNK N   1      23.461  20.872   2.932  0.00  0.00    -0.081 Cl
HETATM   10  C   UNK N   1      23.088  17.216   4.526  0.00  0.00     0.034 A 
HETATM   11  C   UNK N   1      24.349  16.944   5.046  0.00  0.00     0.061 A 
BRANCH   6  12
HETATM   12  O   UNK N   1      26.182  20.030   4.317  0.00  0.00    -0.347 OA
BRANCH  12  13
HETATM   13  C   UNK N   1      26.367  21.092   5.166  0.00  0.00     0.171 C 
HETATM   14  C   UNK N   1      27.576  20.827   6.040  0.00  0.00     0.034 C 
ENDBRANCH  12  13
ENDBRANCH   6  12
BRANCH  10  15
HETATM   15  N   UNK N   1      22.021  16.290   4.719  0.00  0.00    -0.381 N 
HETATM   16  C   UNK N   1      22.076  14.965   4.135  0.00  0.00     0.123 C 
HETATM   17  C   UNK N   1      20.845  14.746   3.266  0.00  0.00     0.020 C 
HETATM   18  C   UNK N   1      19.582  15.019   4.083  0.00  0.00     0.003 C 
HETATM   19  C   UNK N   1      19.607  16.438   4.653  0.00  0.00     0.020 C 
HETATM   20  C   UNK N   1      20.857  16.638   5.506  0.00  0.00     0.123 C 
ENDBRANCH  10  15
ENDBRANCH   1   5
BRANCH   2  21
HETATM   21  C   UNK N   1      28.970  17.121   6.042  0.00  0.00     0.033 A 
HETATM   22  C   UNK N   1      30.242  16.843   5.548  0.00  0.00     0.026 A 
HETATM   23  C   UNK N   1      31.372  17.018   6.341  0.00  0.00    -0.027 A 
HETATM   24  C   UNK N   1      32.688  16.759   5.691  0.00  0.00     0.051 C 
HETATM   25  C   UNK N   1      31.228  17.450   7.693  0.00  0.00     0.080 A 
HETATM   26  C   UNK N   1      29.931  17.695   8.190  0.00  0.00    -0.027 A 
HETATM   27  C   UNK N   1      29.723  18.134   9.598  0.00  0.00     0.051 C 
HETATM   28  C   UNK N   1      28.820  17.561   7.359  0.00  0.00     0.026 A 
BRANCH  25  29
HETATM   29  O   UNK N   1      32.277  17.643   8.541  0.00  0.00    -0.348 OA
BRANCH  29  30
HETATM   30  C   UNK N   1      33.133  16.670   9.002  0.00  0.00     0.194 C 
BRANCH  30  31
HETATM   31  C   UNK N   1      34.544  17.218   9.084  0.00  0.00     0.137 C 
BRANCH  31  32
HETATM   32  N   UNK N   1      34.996  17.219  10.464  0.00  0.00    -0.428 N 
HETATM   33  H   UNK N   1      35.380  16.701  11.255  0.00  0.00     0.149 HD
HETATM   34  H   UNK N   1      34.870  18.176  10.795  0.00  0.00     0.149 HD
ENDBRANCH  31  32
ENDBRANCH  30  31
ENDBRANCH  29  30
ENDBRANCH  25  29
ENDBRANCH   2  21
TORSDOF 9
ENDMDL
MODEL 4
REMARK VINA RESULT:      -6.7      3.347     10.261
REMARK  9 active torsions:
REMARK  status: ('A' for Active; 'I' for Inactive)
REMARK    1  A    between atoms: N_1  and  C_7 
REMARK    2  A    between atoms: C_11  and  O_30 
REMARK    3  A    between atoms: C_12  and  N_13 
REMARK       I    between atoms: N_13  and  C_14 
REMARK    4  A    between atoms: C_14  and  C_16 
REMARK    5  A    between atoms: C_21  and  O_22 
REMARK    6  A    between atoms: O_22  and  C_23 
REMARK    7  A    between atoms: C_23  and  C_24 
REMARK    8  A    between atoms: C_24  and  N_25 
REMARK    9  A    between atoms: O_30  and  C_31 
ROOT
HETATM    1  N   UNK N   1      34.060  15.011   9.725  0.00  0.00    -0.320 N 
HETATM    2  C   UNK N   1      33.906  16.295   9.297  0.00  0.00     0.256 C 
HETATM    3  O   UNK N   1      34.595  17.204   9.720  0.00  0.00    -0.267 OA
HETATM    4  H   UNK N   1      33.336  14.404   9.452  0.00  0.00     0.169 HD
ENDROOT
BRANCH   1   5
HETATM    5  C   UNK N   1      35.087  14.392  10.501  0.00  0.00     0.072 A 
HETATM    6  C   UNK N   1      36.420  14.141  10.050  0.00  0.00     0.117 A 
HETATM    7  C   UNK N   1      37.315  13.447  10.921  0.00  0.00     0.071 A 
HETATM    8  C   UNK N   1      36.864  12.983  12.157  0.00  0.00     0.056 A 
HETATM    9 Cl   UNK N   1      38.991  13.077  10.527  0.00  0.00    -0.081 Cl
HETATM   10  C   UNK N   1      35.544  13.182  12.566  0.00  0.00     0.034 A 
HETATM   11  C   UNK N   1      34.682  13.889  11.734  0.00  0.00     0.061 A 
BRANCH   6  12
HETATM   12  O   UNK N   1      36.775  14.537   8.799  0.00  0.00    -0.347 OA
BRANCH  12  13
HETATM   13  C   UNK N   1      36.666  13.843   7.620  0.00  0.00     0.171 C 
HETATM   14  C   UNK N   1      38.051  13.585   7.064  0.00  0.00     0.034 C 
ENDBRANCH  12  13
ENDBRANCH   6  12
BRANCH  10  15
HETATM   15  N   UNK N   1      35.063  12.628  13.788  0.00  0.00    -0.381 N 
HETATM   16  C   UNK N   1      35.383  13.249  15.059  0.00  0.00     0.123 C 
HETATM   17  C   UNK N   1      36.056  12.225  15.963  0.00  0.00     0.020 C 
HETATM   18  C   UNK N   1      35.177  10.980  16.076  0.00  0.00     0.003 C 
HETATM   19  C   UNK N   1      34.896  10.391  14.693  0.00  0.00     0.020 C 
HETATM   20  C   UNK N   1      34.238  11.440  13.801  0.00  0.00     0.123 C 
ENDBRANCH  10  15
ENDBRANCH   1   5
BRANCH   2  21
HETATM   21  C   UNK N   1      32.954  16.551   8.211  0.00  0.00     0.033 A 
HETATM   22  C   UNK N   1      31.605  16.707   8.519  0.00  0.00     0.026 A 
HETATM   23  C   UNK N   1      30.694  17.121   7.552  0.00  0.00    -0.027 A 
HETATM   24  C   UNK N   1      29.289  17.325   8.006  0.00  0.00     0.051 C 
HETATM   25  C   UNK N   1      31.136  17.351   6.215  0.00  0.00     0.080 A 
HETATM   26  C   UNK N   1      32.499  17.156   5.911  0.00  0.00    -0.027 A 
HETATM   27  C   UNK N   1      33.011  17.367   4.527  0.00  0.00     0.051 C 
HETATM   28  C   UNK N   1      33.400  16.790   6.910  0.00  0.00     0.026 A 
BRANCH  25  29
HETATM   29  O   UNK N   1      30.313  17.753   5.205  0.00  0.00    -0.348 OA
BRANCH  29  30
HETATM   30  C   UNK N   1      29.448  16.949   4.500  0.00  0.00     0.194 C 
BRANCH  30  31
HETATM   31  C   UNK N   1      28.103  17.635   4.360  0.00  0.00     0.137 C 
BRANCH  31  32
HETATM   32  N   UNK N   1      28.295  19.055   4.120  0.00  0.00    -0.428 N 
HETATM   33  H   UNK N   1      27.885  19.982   4.007  0.00  0.00     0.149 HD
HETATM   34  H   UNK N   1      29.301  19.183   4.015  0.00  0.00     0.149 HD
ENDBRANCH  31  32
ENDBRANCH  30  31
ENDBRANCH  29  30
ENDBRANCH  25  29
ENDBRANCH   2  21
TORSDOF 9
ENDMDL
MODEL 5
REMARK VINA RESULT:      -6.6      3.414     10.294
REMARK  9 active torsions:
REMARK  status: ('A' for Active; 'I' for Inactive)
REMARK    1  A    between atoms: N_1  and  C_7 
REMARK    2  A    between atoms: C_11  and  O_30 
REMARK    3  A    between atoms: C_12  and  N_13 
REMARK       I    between atoms: N_13  and  C_14 
REMARK    4  A    between atoms: C_14  and  C_16 
REMARK    5  A    between atoms: C_21  and  O_22 
REMARK    6  A    between atoms: O_22  and  C_23 
REMARK    7  A    between atoms: C_23  and  C_24 
REMARK    8  A    between atoms: C_24  and  N_25 
REMARK    9  A    between atoms: O_30  and  C_31 
ROOT
HETATM    1  N   UNK N   1      34.088  15.279   9.579  0.00  0.00    -0.320 N 
HETATM    2  C   UNK N   1      33.997  16.580   9.189  0.00  0.00     0.256 C 
HETATM    3  O   UNK N   1      34.778  17.428   9.578  0.00  0.00    -0.267 OA
HETATM    4  H   UNK N   1      33.305  14.731   9.347  0.00  0.00     0.169 HD
ENDROOT
BRANCH   1   5
HETATM    5  C   UNK N   1      35.121  14.570  10.266  0.00  0.00     0.072 A 
HETATM    6  C   UNK N   1      36.370  14.176   9.693  0.00  0.00     0.117 A 
HETATM    7  C   UNK N   1      37.273  13.408  10.489  0.00  0.00     0.071 A 
HETATM    8  C   UNK N   1      36.905  13.013  11.776  0.00  0.00     0.056 A 
HETATM    9 Cl   UNK N   1      38.856  12.861   9.942  0.00  0.00    -0.081 Cl
HETATM   10  C   UNK N   1      35.660  13.353  12.307  0.00  0.00     0.034 A 
HETATM   11  C   UNK N   1      34.793  14.131  11.545  0.00  0.00     0.061 A 
BRANCH   6  12
HETATM   12  O   UNK N   1      36.635  14.513   8.403  0.00  0.00    -0.347 OA
BRANCH  12  13
HETATM   13  C   UNK N   1      36.457  13.760   7.269  0.00  0.00     0.171 C 
HETATM   14  C   UNK N   1      36.057  14.670   6.125  0.00  0.00     0.034 C 
ENDBRANCH  12  13
ENDBRANCH   6  12
BRANCH  10  15
HETATM   15  N   UNK N   1      35.251  12.872  13.585  0.00  0.00    -0.381 N 
HETATM   16  C   UNK N   1      35.670  13.544  14.798  0.00  0.00     0.123 C 
HETATM   17  C   UNK N   1      36.381  12.549  15.706  0.00  0.00     0.020 C 
HETATM   18  C   UNK N   1      35.484  11.333  15.940  0.00  0.00     0.003 C 
HETATM   19  C   UNK N   1      35.097  10.686  14.609  0.00  0.00     0.020 C 
HETATM   20  C   UNK N   1      34.402  11.707  13.712  0.00  0.00     0.123 C 
ENDBRANCH  10  15
ENDBRANCH   1   5
BRANCH   2  21
HETATM   21  C   UNK N   1      32.992  16.929   8.180  0.00  0.00     0.033 A 
HETATM   22  C   UNK N   1      33.379  17.025   6.846  0.00  0.00     0.026 A 
HETATM   23  C   UNK N   1      32.434  17.181   5.836  0.00  0.00    -0.027 A 
HETATM   24  C   UNK N   1      32.952  17.202   4.438  0.00  0.00     0.051 C 
HETATM   25  C   UNK N   1      31.051  17.285   6.170  0.00  0.00     0.080 A 
HETATM   26  C   UNK N   1      30.677  17.220   7.528  0.00  0.00    -0.027 A 
HETATM   27  C   UNK N   1      29.249  17.338   7.933  0.00  0.00     0.051 C 
HETATM   28  C   UNK N   1      31.639  17.012   8.516  0.00  0.00     0.026 A 
BRANCH  25  29
HETATM   29  O   UNK N   1      30.061  17.444   5.248  0.00  0.00    -0.348 OA
BRANCH  29  30
HETATM   30  C   UNK N   1      29.326  16.434   4.668  0.00  0.00     0.194 C 
BRANCH  30  31
HETATM   31  C   UNK N   1      29.227  16.661   3.172  0.00  0.00     0.137 C 
BRANCH  31  32
HETATM   32  N   UNK N   1      29.281  15.388   2.474  0.00  0.00    -0.428 N 
HETATM   33  H   UNK N   1      29.826  14.709   1.942  0.00  0.00     0.149 HD
HETATM   34  H   UNK N   1      28.344  14.992   2.551  0.00  0.00     0.149 HD
ENDBRANCH  31  32
ENDBRANCH  30  31
ENDBRANCH  29  30
ENDBRANCH  25  29
ENDBRANCH   2  21
TORSDOF 9
ENDMDL
MODEL 6
REMARK VINA RESULT:      -6.4      9.804     14.424
REMARK  9 active torsions:
REMARK  status: ('A' for Active; 'I' for Inactive)
REMARK    1  A    between atoms: N_1  and  C_7 
REMARK    2  A    between atoms: C_11  and  O_30 
REMARK    3  A    between atoms: C_12  and  N_13 
REMARK       I    between atoms: N_13  and  C_14 
REMARK    4  A    between atoms: C_14  and  C_16 
REMARK    5  A    between atoms: C_21  and  O_22 
REMARK    6  A    between atoms: O_22  and  C_23 
REMARK    7  A    between atoms: C_23  and  C_24 
REMARK    8  A    between atoms: C_24  and  N_25 
REMARK    9  A    between atoms: O_30  and  C_31 
ROOT
HETATM    1  N   UNK N   1      28.106  17.603   5.790  0.00  0.00    -0.320 N 
HETATM    2  C   UNK N   1      27.589  18.687   5.148  0.00  0.00     0.256 C 
HETATM    3  O   UNK N   1      28.290  19.597   4.749  0.00  0.00    -0.267 OA
HETATM    4  H   UNK N   1      27.434  17.029   6.221  0.00  0.00     0.169 HD
ENDROOT
BRANCH   1   5
HETATM    5  C   UNK N   1      29.453  17.154   5.947  0.00  0.00     0.072 A 
HETATM    6  C   UNK N   1      30.297  17.457   7.060  0.00  0.00     0.117 A 
HETATM    7  C   UNK N   1      31.647  16.991   7.039  0.00  0.00     0.071 A 
HETATM    8  C   UNK N   1      32.130  16.305   5.924  0.00  0.00     0.056 A 
HETATM    9 Cl   UNK N   1      32.808  17.260   8.335  0.00  0.00    -0.081 Cl
HETATM   10  C   UNK N   1      31.315  16.063   4.817  0.00  0.00     0.034 A 
HETATM   11  C   UNK N   1      29.990  16.485   4.851  0.00  0.00     0.061 A 
BRANCH   6  12
HETATM   12  O   UNK N   1      29.797  18.207   8.078  0.00  0.00    -0.347 OA
BRANCH  12  13
HETATM   13  C   UNK N   1      29.442  17.806   9.341  0.00  0.00     0.171 C 
HETATM   14  C   UNK N   1      27.984  17.394   9.341  0.00  0.00     0.034 C 
ENDBRANCH  12  13
ENDBRANCH   6  12
BRANCH  10  15
HETATM   15  N   UNK N   1      31.837  15.442   3.644  0.00  0.00    -0.381 N 
HETATM   16  C   UNK N   1      31.132  14.346   3.009  0.00  0.00     0.123 C 
HETATM   17  C   UNK N   1      32.059  13.143   2.909  0.00  0.00     0.020 C 
HETATM   18  C   UNK N   1      33.354  13.547   2.204  0.00  0.00     0.003 C 
HETATM   19  C   UNK N   1      34.031  14.702   2.943  0.00  0.00     0.020 C 
HETATM   20  C   UNK N   1      33.076  15.889   3.046  0.00  0.00     0.123 C 
ENDBRANCH  10  15
ENDBRANCH   1   5
BRANCH   2  21
HETATM   21  C   UNK N   1      26.155  18.685   4.837  0.00  0.00     0.033 A 
HETATM   22  C   UNK N   1      25.624  19.736   4.093  0.00  0.00     0.026 A 
HETATM   23  C   UNK N   1      24.314  19.692   3.627  0.00  0.00    -0.027 A 
HETATM   24  C   UNK N   1      23.870  20.836   2.781  0.00  0.00     0.051 C 
HETATM   25  C   UNK N   1      23.485  18.576   3.948  0.00  0.00     0.080 A 
HETATM   26  C   UNK N   1      24.026  17.536   4.732  0.00  0.00    -0.027 A 
HETATM   27  C   UNK N   1      23.200  16.354   5.109  0.00  0.00     0.051 C 
HETATM   28  C   UNK N   1      25.358  17.581   5.142  0.00  0.00     0.026 A 
BRANCH  25  29
HETATM   29  O   UNK N   1      22.191  18.453   3.539  0.00  0.00    -0.348 OA
BRANCH  29  30
HETATM   30  C   UNK N   1      21.093  19.009   4.154  0.00  0.00     0.194 C 
BRANCH  30  31
HETATM   31  C   UNK N   1      20.331  19.873   3.167  0.00  0.00     0.137 C 
BRANCH  31  32
HETATM   32  N   UNK N   1      19.325  19.076   2.486  0.00  0.00    -0.428 N 
HETATM   33  H   UNK N   1      18.995  18.156   2.193  0.00  0.00     0.149 HD
HETATM   34  H   UNK N   1      18.632  19.741   2.144  0.00  0.00     0.149 HD
ENDBRANCH  31  32
ENDBRANCH  30  31
ENDBRANCH  29  30
ENDBRANCH  25  29
ENDBRANCH   2  21
TORSDOF 9
ENDMDL
MODEL 7
REMARK VINA RESULT:      -6.4      8.488     14.560
REMARK  9 active torsions:
REMARK  status: ('A' for Active; 'I' for Inactive)
REMARK    1  A    between atoms: N_1  and  C_7 
REMARK    2  A    between atoms: C_11  and  O_30 
REMARK    3  A    between atoms: C_12  and  N_13 
REMARK       I    between atoms: N_13  and  C_14 
REMARK    4  A    between atoms: C_14  and  C_16 
REMARK    5  A    between atoms: C_21  and  O_22 
REMARK    6  A    between atoms: O_22  and  C_23 
REMARK    7  A    between atoms: C_23  and  C_24 
REMARK    8  A    between atoms: C_24  and  N_25 
REMARK    9  A    between atoms: O_30  and  C_31 
ROOT
HETATM    1  N   UNK N   1      28.067  17.260   4.951  0.00  0.00    -0.320 N 
HETATM    2  C   UNK N   1      27.493  18.466   4.681  0.00  0.00     0.256 C 
HETATM    3  O   UNK N   1      28.152  19.480   4.555  0.00  0.00    -0.267 OA
HETATM    4  H   UNK N   1      27.429  16.557   5.208  0.00  0.00     0.169 HD
ENDROOT
BRANCH   1   5
HETATM    5  C   UNK N   1      29.431  16.838   4.926  0.00  0.00     0.072 A 
HETATM    6  C   UNK N   1      30.030  16.048   3.896  0.00  0.00     0.117 A 
HETATM    7  C   UNK N   1      31.392  15.645   4.050  0.00  0.00     0.071 A 
HETATM    8  C   UNK N   1      32.090  15.979   5.212  0.00  0.00     0.056 A 
HETATM    9 Cl   UNK N   1      32.281  14.690   2.868  0.00  0.00    -0.081 Cl
HETATM   10  C   UNK N   1      31.480  16.702   6.238  0.00  0.00     0.034 A 
HETATM   11  C   UNK N   1      30.165  17.124   6.074  0.00  0.00     0.061 A 
BRANCH   6  12
HETATM   12  O   UNK N   1      29.272  15.677   2.830  0.00  0.00    -0.347 OA
BRANCH  12  13
HETATM   13  C   UNK N   1      28.514  14.543   2.673  0.00  0.00     0.171 C 
HETATM   14  C   UNK N   1      29.089  13.713   1.544  0.00  0.00     0.034 C 
ENDBRANCH  12  13
ENDBRANCH   6  12
BRANCH  10  15
HETATM   15  N   UNK N   1      32.167  16.962   7.460  0.00  0.00    -0.381 N 
HETATM   16  C   UNK N   1      33.212  17.964   7.523  0.00  0.00     0.123 C 
HETATM   17  C   UNK N   1      34.492  17.323   8.044  0.00  0.00     0.020 C 
HETATM   18  C   UNK N   1      34.214  16.622   9.373  0.00  0.00     0.003 C 
HETATM   19  C   UNK N   1      33.105  15.581   9.211  0.00  0.00     0.020 C 
HETATM   20  C   UNK N   1      31.840  16.244   8.673  0.00  0.00     0.123 C 
ENDBRANCH  10  15
ENDBRANCH   1   5
BRANCH   2  21
HETATM   21  C   UNK N   1      26.050  18.501   4.426  0.00  0.00     0.033 A 
HETATM   22  C   UNK N   1      25.233  17.553   5.038  0.00  0.00     0.026 A 
HETATM   23  C   UNK N   1      23.846  17.651   4.966  0.00  0.00    -0.027 A 
HETATM   24  C   UNK N   1      23.068  16.624   5.716  0.00  0.00     0.051 C 
HETATM   25  C   UNK N   1      23.248  18.712   4.223  0.00  0.00     0.080 A 
HETATM   26  C   UNK N   1      24.089  19.644   3.581  0.00  0.00    -0.027 A 
HETATM   27  C   UNK N   1      23.517  20.763   2.780  0.00  0.00     0.051 C 
HETATM   28  C   UNK N   1      25.474  19.553   3.711  0.00  0.00     0.026 A 
BRANCH  25  29
HETATM   29  O   UNK N   1      21.902  18.881   4.097  0.00  0.00    -0.348 OA
BRANCH  29  30
HETATM   30  C   UNK N   1      21.083  18.213   3.215  0.00  0.00     0.194 C 
BRANCH  30  31
HETATM   31  C   UNK N   1      20.107  19.185   2.580  0.00  0.00     0.137 C 
BRANCH  31  32
HETATM   32  N   UNK N   1      18.819  18.539   2.392  0.00  0.00    -0.428 N 
HETATM   33  H   UNK N   1      18.248  17.869   1.877  0.00  0.00     0.149 HD
HETATM   34  H   UNK N   1      18.203  18.941   3.099  0.00  0.00     0.149 HD
ENDBRANCH  31  32
ENDBRANCH  30  31
ENDBRANCH  29  30
ENDBRANCH  25  29
ENDBRANCH   2  21
TORSDOF 9
ENDMDL
MODEL 8
REMARK VINA RESULT:      -6.3      5.251     10.521
REMARK  9 active torsions:
REMARK  status: ('A' for Active; 'I' for Inactive)
REMARK    1  A    between atoms: N_1  and  C_7 
REMARK    2  A    between atoms: C_11  and  O_30 
REMARK    3  A    between atoms: C_12  and  N_13 
REMARK       I    between atoms: N_13  and  C_14 
REMARK    4  A    between atoms: C_14  and  C_16 
REMARK    5  A    between atoms: C_21  and  O_22 
REMARK    6  A    between atoms: O_22  and  C_23 
REMARK    7  A    between atoms: C_23  and  C_24 
REMARK    8  A    between atoms: C_24  and  N_25 
REMARK    9  A    between atoms: O_30  and  C_31 
ROOT
HETATM    1  N   UNK N   1      33.298  15.821   6.930  0.00  0.00    -0.320 N 
HETATM    2  C   UNK N   1      32.070  15.233   6.903  0.00  0.00     0.256 C 
HETATM    3  O   UNK N   1      31.933  14.026   6.846  0.00  0.00    -0.267 OA
HETATM    4  H   UNK N   1      33.284  16.796   6.794  0.00  0.00     0.169 HD
ENDROOT
BRANCH   1   5
HETATM    5  C   UNK N   1      34.603  15.273   7.123  0.00  0.00     0.072 A 
HETATM    6  C   UNK N   1      35.420  14.713   6.092  0.00  0.00     0.117 A 
HETATM    7  C   UNK N   1      36.677  14.138   6.455  0.00  0.00     0.071 A 
HETATM    8  C   UNK N   1      37.056  14.083   7.797  0.00  0.00     0.056 A 
HETATM    9 Cl   UNK N   1      37.809  13.428   5.308  0.00  0.00    -0.081 Cl
HETATM   10  C   UNK N   1      36.226  14.581   8.803  0.00  0.00     0.034 A 
HETATM   11  C   UNK N   1      35.018  15.172   8.448  0.00  0.00     0.061 A 
BRANCH   6  12
HETATM   12  O   UNK N   1      34.957  14.714   4.814  0.00  0.00    -0.347 OA
BRANCH  12  13
HETATM   13  C   UNK N   1      34.259  13.732   4.157  0.00  0.00     0.171 C 
HETATM   14  C   UNK N   1      33.073  14.353   3.448  0.00  0.00     0.034 C 
ENDBRANCH  12  13
ENDBRANCH   6  12
BRANCH  10  15
HETATM   15  N   UNK N   1      36.576  14.441  10.178  0.00  0.00    -0.381 N 
HETATM   16  C   UNK N   1      37.603  13.504  10.590  0.00  0.00     0.123 C 
HETATM   17  C   UNK N   1      37.024  12.544  11.620  0.00  0.00     0.020 C 
HETATM   18  C   UNK N   1      36.399  13.336  12.769  0.00  0.00     0.003 C 
HETATM   19  C   UNK N   1      35.326  14.291  12.244  0.00  0.00     0.020 C 
HETATM   20  C   UNK N   1      35.927  15.231  11.202  0.00  0.00     0.123 C 
ENDBRANCH  10  15
ENDBRANCH   1   5
BRANCH   2  21
HETATM   21  C   UNK N   1      30.891  16.091   7.062  0.00  0.00     0.033 A 
HETATM   22  C   UNK N   1      30.788  16.893   8.195  0.00  0.00     0.026 A 
HETATM   23  C   UNK N   1      29.780  17.847   8.307  0.00  0.00    -0.027 A 
HETATM   24  C   UNK N   1      29.805  18.699   9.530  0.00  0.00     0.051 C 
HETATM   25  C   UNK N   1      28.813  17.981   7.267  0.00  0.00     0.080 A 
HETATM   26  C   UNK N   1      28.911  17.138   6.141  0.00  0.00    -0.027 A 
HETATM   27  C   UNK N   1      27.919  17.226   5.033  0.00  0.00     0.051 C 
HETATM   28  C   UNK N   1      29.960  16.226   6.031  0.00  0.00     0.026 A 
BRANCH  25  29
HETATM   29  O   UNK N   1      27.792  18.883   7.296  0.00  0.00    -0.348 OA
BRANCH  29  30
HETATM   30  C   UNK N   1      27.853  20.187   6.861  0.00  0.00     0.194 C 
BRANCH  30  31
HETATM   31  C   UNK N   1      26.452  20.744   6.700  0.00  0.00     0.137 C 
BRANCH  31  32
HETATM   32  N   UNK N   1      25.948  21.193   7.986  0.00  0.00    -0.428 N 
HETATM   33  H   UNK N   1      25.272  21.084   8.743  0.00  0.00     0.149 HD
HETATM   34  H   UNK N   1      26.541  21.978   8.256  0.00  0.00     0.149 HD
ENDBRANCH  31  32
ENDBRANCH  30  31
ENDBRANCH  29  30
ENDBRANCH  25  29
ENDBRANCH   2  21
TORSDOF 9
ENDMDL
MODEL 9
REMARK VINA RESULT:      -6.2      4.914     10.775
REMARK  9 active torsions:
REMARK  status: ('A' for Active; 'I' for Inactive)
REMARK    1  A    between atoms: N_1  and  C_7 
REMARK    2  A    between atoms: C_11  and  O_30 
REMARK    3  A    between atoms: C_12  and  N_13 
REMARK       I    between atoms: N_13  and  C_14 
REMARK    4  A    between atoms: C_14  and  C_16 
REMARK    5  A    between atoms: C_21  and  O_22 
REMARK    6  A    between atoms: O_22  and  C_23 
REMARK    7  A    between atoms: C_23  and  C_24 
REMARK    8  A    between atoms: C_24  and  N_25 
REMARK    9  A    between atoms: O_30  and  C_31 
ROOT
HETATM    1  N   UNK N   1      34.012  15.683   7.599  0.00  0.00    -0.320 N 
HETATM    2  C   UNK N   1      33.728  16.892   7.040  0.00  0.00     0.256 C 
HETATM    3  O   UNK N   1      34.586  17.731   6.848  0.00  0.00    -0.267 OA
HETATM    4  H   UNK N   1      33.219  15.165   7.869  0.00  0.00     0.169 HD
ENDROOT
BRANCH   1   5
HETATM    5  C   UNK N   1      35.256  15.032   7.861  0.00  0.00     0.072 A 
HETATM    6  C   UNK N   1      36.131  14.497   6.865  0.00  0.00     0.117 A 
HETATM    7  C   UNK N   1      37.310  13.811   7.290  0.00  0.00     0.071 A 
HETATM    8  C   UNK N   1      37.557  13.630   8.651  0.00  0.00     0.056 A 
HETATM    9 Cl   UNK N   1      38.498  13.113   6.194  0.00  0.00    -0.081 Cl
HETATM   10  C   UNK N   1      36.669  14.106   9.616  0.00  0.00     0.034 A 
HETATM   11  C   UNK N   1      35.538  14.804   9.205  0.00  0.00     0.061 A 
BRANCH   6  12
HETATM   12  O   UNK N   1      35.790  14.627   5.555  0.00  0.00    -0.347 OA
BRANCH  12  13
HETATM   13  C   UNK N   1      35.199  13.702   4.731  0.00  0.00     0.171 C 
HETATM   14  C   UNK N   1      34.224  14.407   3.810  0.00  0.00     0.034 C 
ENDBRANCH  12  13
ENDBRANCH   6  12
BRANCH  10  15
HETATM   15  N   UNK N   1      36.878  13.839  11.002  0.00  0.00    -0.381 N 
HETATM   16  C   UNK N   1      37.808  12.812  11.425  0.00  0.00     0.123 C 
HETATM   17  C   UNK N   1      37.083  11.813  12.317  0.00  0.00     0.020 C 
HETATM   18  C   UNK N   1      36.397  12.551  13.467  0.00  0.00     0.003 C 
HETATM   19  C   UNK N   1      35.433  13.609  12.927  0.00  0.00     0.020 C 
HETATM   20  C   UNK N   1      36.180  14.587  12.024  0.00  0.00     0.123 C 
ENDBRANCH  10  15
ENDBRANCH   1   5
BRANCH   2  21
HETATM   21  C   UNK N   1      32.362  17.127   6.560  0.00  0.00     0.033 A 
HETATM   22  C   UNK N   1      32.094  17.001   5.199  0.00  0.00     0.026 A 
HETATM   23  C   UNK N   1      30.788  17.043   4.720  0.00  0.00    -0.027 A 
HETATM   24  C   UNK N   1      30.610  16.827   3.256  0.00  0.00     0.051 C 
HETATM   25  C   UNK N   1      29.708  17.257   5.627  0.00  0.00     0.080 A 
HETATM   26  C   UNK N   1      29.998  17.417   6.998  0.00  0.00    -0.027 A 
HETATM   27  C   UNK N   1      28.910  17.659   7.986  0.00  0.00     0.051 C 
HETATM   28  C   UNK N   1      31.311  17.320   7.458  0.00  0.00     0.026 A 
BRANCH  25  29
HETATM   29  O   UNK N   1      28.402  17.317   5.245  0.00  0.00    -0.348 OA
BRANCH  29  30
HETATM   30  C   UNK N   1      27.800  18.362   4.581  0.00  0.00     0.194 C 
BRANCH  30  31
HETATM   31  C   UNK N   1      26.406  18.590   5.132  0.00  0.00     0.137 C 
BRANCH  31  32
HETATM   32  N   UNK N   1      25.832  17.327   5.563  0.00  0.00    -0.428 N 
HETATM   33  H   UNK N   1      25.001  16.756   5.719  0.00  0.00     0.149 HD
HETATM   34  H   UNK N   1      26.623  16.742   5.833  0.00  0.00     0.149 HD
ENDBRANCH  31  32
ENDBRANCH  30  31
ENDBRANCH  29  30
ENDBRANCH  25  29
ENDBRANCH   2  21
TORSDOF 9
ENDMDL
