MODEL 1
REMARK VINA RESULT:      -6.5      0.000      0.000
REMARK  9 active torsions:
REMARK  status: ('A' for Active; 'I' for Inactive)
REMARK    1  A    between atoms: C_6  and  N_7 
REMARK    2  A    between atoms: N_7  and  C_8 
REMARK    3  A    between atoms: C_8  and  N_10 
REMARK    4  A    between atoms: C_11  and  N_10 
REMARK    5  A    between atoms: C_11  and  C_12 
REMARK    6  A    between atoms: C_11  and  C_16 
REMARK    7  A    between atoms: C_12  and  C_13 
REMARK       I    between atoms: C_16  and  N_18 
REMARK    8  A    between atoms: C_19  and  N_18 
REMARK    9  A    between atoms: C_23  and  O_24 
ROOT
HETATM    1  C   UNK N   1      32.334  16.204   5.744  0.00  0.00     0.176 C 
ENDROOT
BRANCH   1   2
HETATM    2  N   UNK N   1      31.203  15.948   6.628  0.00  0.00    -0.354 N 
HETATM    3  H   UNK N   1      30.944  15.007   6.749  0.00  0.00     0.162 HD
BRANCH   2   4
HETATM    4  C   UNK N   1      30.428  16.919   7.337  0.00  0.00     0.172 C 
HETATM    5  S   UNK N   1      31.029  17.736   8.366  0.00  0.00    -0.041 SA
BRANCH   4   6
HETATM    6  N   UNK N   1      29.095  17.163   6.872  0.00  0.00    -0.333 N 
HETATM    7  H   UNK N   1      28.480  16.397   6.939  0.00  0.00     0.168 HD
BRANCH   6   8
HETATM    8  C   UNK N   1      28.526  18.353   6.324  0.00  0.00     0.034 A 
HETATM    9  C   UNK N   1      28.580  18.654   4.953  0.00  0.00     0.029 A 
HETATM   10  C   UNK N   1      28.013  19.835   4.466  0.00  0.00     0.002 A 
HETATM   11  C   UNK N   1      27.387  20.725   5.343  0.00  0.00     0.000 A 
HETATM   12  C   UNK N   1      27.334  20.435   6.708  0.00  0.00     0.002 A 
HETATM   13  C   UNK N   1      27.907  19.256   7.196  0.00  0.00     0.029 A 
ENDBRANCH   6   8
ENDBRANCH   4   6
ENDBRANCH   2   4
ENDBRANCH   1   2
BRANCH   1  14
HETATM   14  C   UNK N   1      32.129  17.441   4.853  0.00  0.00     0.038 C 
BRANCH  14  15
HETATM   15  C   UNK N   1      32.065  17.167   3.359  0.00  0.00    -0.020 C 
HETATM   16  C   UNK N   1      33.234  16.295   2.943  0.00  0.00     0.009 C 
HETATM   17  C   UNK N   1      30.784  16.412   3.069  0.00  0.00     0.009 C 
ENDBRANCH  14  15
ENDBRANCH   1  14
BRANCH   1  18
HETATM   18  C   UNK N   1      33.603  16.300   6.560  0.00  0.00     0.240 C 
HETATM   19  O   UNK N   1      34.474  17.100   6.248  0.00  0.00    -0.271 OA
HETATM   20  N   UNK N   1      33.763  15.499   7.646  0.00  0.00    -0.352 N 
HETATM   21  H   UNK N   1      33.051  14.855   7.865  0.00  0.00     0.163 HD
BRANCH  20  22
HETATM   22  C   UNK N   1      34.935  15.550   8.495  0.00  0.00     0.113 C 
HETATM   23  C   UNK N   1      35.242  14.193   9.104  0.00  0.00     0.196 C 
HETATM   24  O   UNK N   1      35.536  14.385  10.462  0.00  0.00    -0.359 OA
HETATM   25  C   UNK N   1      34.713  15.452  10.848  0.00  0.00     0.258 C 
HETATM   26  C   UNK N   1      34.670  16.423   9.690  0.00  0.00     0.088 C 
BRANCH  25  27
HETATM   27  O   UNK N   1      33.427  14.984  11.136  0.00  0.00    -0.371 OA
HETATM   28  H   UNK N   1      33.248  14.031  11.166  0.00  0.00     0.212 HD
ENDBRANCH  25  27
ENDBRANCH  20  22
ENDBRANCH   1  18
TORSDOF 9
ENDMDL
MODEL 2
REMARK VINA RESULT:      -6.4      1.893      2.783
REMARK  9 active torsions:
REMARK  status: ('A' for Active; 'I' for Inactive)
REMARK    1  A    between atoms: C_6  and  N_7 
REMARK    2  A    between atoms: N_7  and  C_8 
REMARK    3  A    between atoms: C_8  and  N_10 
REMARK    4  A    between atoms: C_11  and  N_10 
REMARK    5  A    between atoms: C_11  and  C_12 
REMARK    6  A    between atoms: C_11  and  C_16 
REMARK    7  A    between atoms: C_12  and  C_13 
REMARK       I    between atoms: C_16  and  N_18 
REMARK    8  A    between atoms: C_19  and  N_18 
REMARK    9  A    between atoms: C_23  and  O_24 
ROOT
HETATM    1  C   UNK N   1      33.132  17.156   8.053  0.00  0.00     0.176 C 
ENDROOT
BRANCH   1   2
HETATM    2  N   UNK N   1      32.113  17.936   8.746  0.00  0.00    -0.354 N 
HETATM    3  H   UNK N   1      32.427  18.716   9.257  0.00  0.00     0.162 HD
BRANCH   2   4
HETATM    4  C   UNK N   1      30.705  17.687   8.765  0.00  0.00     0.172 C 
HETATM    5  S   UNK N   1      29.807  18.573   9.469  0.00  0.00    -0.041 SA
BRANCH   4   6
HETATM    6  N   UNK N   1      30.212  16.636   7.924  0.00  0.00    -0.333 N 
HETATM    7  H   UNK N   1      30.163  15.749   8.348  0.00  0.00     0.168 HD
BRANCH   6   8
HETATM    8  C   UNK N   1      29.782  16.685   6.564  0.00  0.00     0.034 A 
HETATM    9  C   UNK N   1      29.330  17.868   5.957  0.00  0.00     0.029 A 
HETATM   10  C   UNK N   1      28.914  17.864   4.622  0.00  0.00     0.002 A 
HETATM   11  C   UNK N   1      28.948  16.679   3.882  0.00  0.00     0.000 A 
HETATM   12  C   UNK N   1      29.392  15.498   4.480  0.00  0.00     0.002 A 
HETATM   13  C   UNK N   1      29.802  15.501   5.817  0.00  0.00     0.029 A 
ENDBRANCH   6   8
ENDBRANCH   4   6
ENDBRANCH   2   4
ENDBRANCH   1   2
BRANCH   1  14
HETATM   14  C   UNK N   1      33.447  17.698   6.649  0.00  0.00     0.038 C 
BRANCH  14  15
HETATM   15  C   UNK N   1      33.108  16.765   5.497  0.00  0.00    -0.020 C 
HETATM   16  C   UNK N   1      32.857  17.571   4.236  0.00  0.00     0.009 C 
HETATM   17  C   UNK N   1      34.298  15.860   5.252  0.00  0.00     0.009 C 
ENDBRANCH  14  15
ENDBRANCH   1  14
BRANCH   1  18
HETATM   18  C   UNK N   1      34.371  17.063   8.914  0.00  0.00     0.240 C 
HETATM   19  O   UNK N   1      35.051  18.058   9.120  0.00  0.00    -0.271 OA
HETATM   20  N   UNK N   1      34.717  15.869   9.463  0.00  0.00    -0.352 N 
HETATM   21  H   UNK N   1      34.158  15.082   9.268  0.00  0.00     0.163 HD
BRANCH  20  22
HETATM   22  C   UNK N   1      35.871  15.703  10.322  0.00  0.00     0.113 C 
HETATM   23  C   UNK N   1      36.426  14.291  10.243  0.00  0.00     0.196 C 
HETATM   24  O   UNK N   1      36.698  13.860  11.550  0.00  0.00    -0.359 OA
HETATM   25  C   UNK N   1      35.700  14.463  12.329  0.00  0.00     0.258 C 
HETATM   26  C   UNK N   1      35.468  15.846  11.762  0.00  0.00     0.088 C 
BRANCH  25  27
HETATM   27  O   UNK N   1      34.524  13.709  12.267  0.00  0.00    -0.371 OA
HETATM   28  H   UNK N   1      33.911  13.819  11.524  0.00  0.00     0.212 HD
ENDBRANCH  25  27
ENDBRANCH  20  22
ENDBRANCH   1  18
TORSDOF 9
ENDMDL
MODEL 3
REMARK VINA RESULT:      -6.3     12.197     15.140
REMARK  9 active torsions:
REMARK  status: ('A' for Active; 'I' for Inactive)
REMARK    1  A    between atoms: C_6  and  N_7 
REMARK    2  A    between atoms: N_7  and  C_8 
REMARK    3  A    between atoms: C_8  and  N_10 
REMARK    4  A    between atoms: C_11  and  N_10 
REMARK    5  A    between atoms: C_11  and  C_12 
REMARK    6  A    between atoms: C_11  and  C_16 
REMARK    7  A    between atoms: C_12  and  C_13 
REMARK       I    between atoms: C_16  and  N_18 
REMARK    8  A    between atoms: C_19  and  N_18 
REMARK    9  A    between atoms: C_23  and  O_24 
ROOT
HETATM    1  C   UNK N   1      26.731  25.975  -4.072  0.00  0.00     0.176 C 
ENDROOT
BRANCH   1   2
HETATM    2  N   UNK N   1      25.594  25.753  -4.957  0.00  0.00    -0.354 N 
HETATM    3  H   UNK N   1      24.704  25.949  -4.586  0.00  0.00     0.162 HD
BRANCH   2   4
HETATM    4  C   UNK N   1      25.633  25.278  -6.305  0.00  0.00     0.172 C 
HETATM    5  S   UNK N   1      26.182  26.096  -7.362  0.00  0.00    -0.041 SA
BRANCH   4   6
HETATM    6  N   UNK N   1      25.268  23.910  -6.531  0.00  0.00    -0.333 N 
HETATM    7  H   UNK N   1      24.352  23.671  -6.262  0.00  0.00     0.168 HD
BRANCH   6   8
HETATM    8  C   UNK N   1      26.038  22.844  -7.087  0.00  0.00     0.034 A 
HETATM    9  C   UNK N   1      27.431  22.756  -6.930  0.00  0.00     0.029 A 
HETATM   10  C   UNK N   1      28.141  21.695  -7.499  0.00  0.00     0.002 A 
HETATM   11  C   UNK N   1      27.466  20.713  -8.229  0.00  0.00     0.000 A 
HETATM   12  C   UNK N   1      26.082  20.796  -8.394  0.00  0.00     0.002 A 
HETATM   13  C   UNK N   1      25.373  21.861  -7.830  0.00  0.00     0.029 A 
ENDBRANCH   6   8
ENDBRANCH   4   6
ENDBRANCH   2   4
ENDBRANCH   1   2
BRANCH   1  14
HETATM   14  C   UNK N   1      26.429  26.984  -2.951  0.00  0.00     0.038 C 
BRANCH  14  15
HETATM   15  C   UNK N   1      27.105  28.339  -3.091  0.00  0.00    -0.020 C 
HETATM   16  C   UNK N   1      28.456  28.175  -3.761  0.00  0.00     0.009 C 
HETATM   17  C   UNK N   1      26.241  29.213  -3.975  0.00  0.00     0.009 C 
ENDBRANCH  14  15
ENDBRANCH   1  14
BRANCH   1  18
HETATM   18  C   UNK N   1      27.215  24.651  -3.525  0.00  0.00     0.240 C 
HETATM   19  O   UNK N   1      26.438  23.907  -2.945  0.00  0.00    -0.271 OA
HETATM   20  N   UNK N   1      28.515  24.292  -3.692  0.00  0.00    -0.352 N 
HETATM   21  H   UNK N   1      29.121  24.918  -4.151  0.00  0.00     0.163 HD
BRANCH  20  22
HETATM   22  C   UNK N   1      29.049  23.030  -3.224  0.00  0.00     0.113 C 
HETATM   23  C   UNK N   1      29.944  23.218  -2.011  0.00  0.00     0.196 C 
HETATM   24  O   UNK N   1      31.096  22.441  -2.200  0.00  0.00    -0.359 OA
HETATM   25  C   UNK N   1      31.322  22.485  -3.583  0.00  0.00     0.258 C 
HETATM   26  C   UNK N   1      29.970  22.444  -4.257  0.00  0.00     0.088 C 
BRANCH  25  27
HETATM   27  O   UNK N   1      31.996  23.664  -3.919  0.00  0.00    -0.371 OA
HETATM   28  H   UNK N   1      31.556  24.344  -4.453  0.00  0.00     0.212 HD
ENDBRANCH  25  27
ENDBRANCH  20  22
ENDBRANCH   1  18
TORSDOF 9
ENDMDL
MODEL 4
REMARK VINA RESULT:      -6.3      5.307      8.727
REMARK  9 active torsions:
REMARK  status: ('A' for Active; 'I' for Inactive)
REMARK    1  A    between atoms: C_6  and  N_7 
REMARK    2  A    between atoms: N_7  and  C_8 
REMARK    3  A    between atoms: C_8  and  N_10 
REMARK    4  A    between atoms: C_11  and  N_10 
REMARK    5  A    between atoms: C_11  and  C_12 
REMARK    6  A    between atoms: C_11  and  C_16 
REMARK    7  A    between atoms: C_12  and  C_13 
REMARK       I    between atoms: C_16  and  N_18 
REMARK    8  A    between atoms: C_19  and  N_18 
REMARK    9  A    between atoms: C_23  and  O_24 
ROOT
HETATM    1  C   UNK N   1      26.692  18.123   5.601  0.00  0.00     0.176 C 
ENDROOT
BRANCH   1   2
HETATM    2  N   UNK N   1      27.406  17.278   6.552  0.00  0.00    -0.354 N 
HETATM    3  H   UNK N   1      27.004  16.401   6.749  0.00  0.00     0.162 HD
BRANCH   2   4
HETATM    4  C   UNK N   1      28.626  17.588   7.230  0.00  0.00     0.172 C 
HETATM    5  S   UNK N   1      28.658  18.585   8.274  0.00  0.00    -0.041 SA
BRANCH   4   6
HETATM    6  N   UNK N   1      29.760  16.757   6.954  0.00  0.00    -0.333 N 
HETATM    7  H   UNK N   1      29.709  15.842   7.315  0.00  0.00     0.168 HD
BRANCH   6   8
HETATM    8  C   UNK N   1      30.955  17.059   6.232  0.00  0.00     0.034 A 
HETATM    9  C   UNK N   1      32.209  17.159   6.856  0.00  0.00     0.029 A 
HETATM   10  C   UNK N   1      33.349  17.463   6.107  0.00  0.00     0.002 A 
HETATM   11  C   UNK N   1      33.247  17.669   4.729  0.00  0.00     0.000 A 
HETATM   12  C   UNK N   1      32.003  17.577   4.102  0.00  0.00     0.002 A 
HETATM   13  C   UNK N   1      30.861  17.278   4.853  0.00  0.00     0.029 A 
ENDBRANCH   6   8
ENDBRANCH   4   6
ENDBRANCH   2   4
ENDBRANCH   1   2
BRANCH   1  14
HETATM   14  C   UNK N   1      27.584  18.610   4.447  0.00  0.00     0.038 C 
BRANCH  14  15
HETATM   15  C   UNK N   1      27.534  20.104   4.168  0.00  0.00    -0.020 C 
HETATM   16  C   UNK N   1      26.383  20.417   3.231  0.00  0.00     0.009 C 
HETATM   17  C   UNK N   1      27.289  20.824   5.478  0.00  0.00     0.009 C 
ENDBRANCH  14  15
ENDBRANCH   1  14
BRANCH   1  18
HETATM   18  C   UNK N   1      25.466  17.396   5.098  0.00  0.00     0.240 C 
HETATM   19  O   UNK N   1      25.583  16.336   4.500  0.00  0.00    -0.271 OA
HETATM   20  N   UNK N   1      24.234  17.924   5.324  0.00  0.00    -0.352 N 
HETATM   21  H   UNK N   1      24.171  18.786   5.796  0.00  0.00     0.163 HD
BRANCH  20  22
HETATM   22  C   UNK N   1      23.010  17.276   4.901  0.00  0.00     0.113 C 
HETATM   23  C   UNK N   1      22.023  18.274   4.322  0.00  0.00     0.196 C 
HETATM   24  O   UNK N   1      20.757  17.988   4.856  0.00  0.00    -0.359 OA
HETATM   25  C   UNK N   1      21.023  17.537   6.156  0.00  0.00     0.258 C 
HETATM   26  C   UNK N   1      22.287  16.711   6.091  0.00  0.00     0.088 C 
BRANCH  25  27
HETATM   27  O   UNK N   1      21.199  18.627   7.014  0.00  0.00    -0.371 OA
HETATM   28  H   UNK N   1      21.500  19.481   6.665  0.00  0.00     0.212 HD
ENDBRANCH  25  27
ENDBRANCH  20  22
ENDBRANCH   1  18
TORSDOF 9
ENDMDL
MODEL 5
REMARK VINA RESULT:      -6.2      2.486      5.376
REMARK  9 active torsions:
REMARK  status: ('A' for Active; 'I' for Inactive)
REMARK    1  A    between atoms: C_6  and  N_7 
REMARK    2  A    between atoms: N_7  and  C_8 
REMARK    3  A    between atoms: C_8  and  N_10 
REMARK    4  A    between atoms: C_11  and  N_10 
REMARK    5  A    between atoms: C_11  and  C_12 
REMARK    6  A    between atoms: C_11  and  C_16 
REMARK    7  A    between atoms: C_12  and  C_13 
REMARK       I    between atoms: C_16  and  N_18 
REMARK    8  A    between atoms: C_19  and  N_18 
REMARK    9  A    between atoms: C_23  and  O_24 
ROOT
HETATM    1  C   UNK N   1      28.812  17.895   5.531  0.00  0.00     0.176 C 
ENDROOT
BRANCH   1   2
HETATM    2  N   UNK N   1      28.239  16.709   4.904  0.00  0.00    -0.354 N 
HETATM    3  H   UNK N   1      27.848  16.038   5.508  0.00  0.00     0.162 HD
BRANCH   2   4
HETATM    4  C   UNK N   1      28.186  16.417   3.505  0.00  0.00     0.172 C 
HETATM    5  S   UNK N   1      26.929  16.114   2.860  0.00  0.00    -0.041 SA
BRANCH   4   6
HETATM    6  N   UNK N   1      29.389  16.604   2.749  0.00  0.00    -0.333 N 
HETATM    7  H   UNK N   1      29.292  17.149   1.934  0.00  0.00     0.168 HD
BRANCH   6   8
HETATM    8  C   UNK N   1      30.707  16.116   3.000  0.00  0.00     0.034 A 
HETATM    9  C   UNK N   1      30.971  14.765   3.283  0.00  0.00     0.029 A 
HETATM   10  C   UNK N   1      32.279  14.337   3.528  0.00  0.00     0.002 A 
HETATM   11  C   UNK N   1      33.333  15.253   3.493  0.00  0.00     0.000 A 
HETATM   12  C   UNK N   1      33.078  16.599   3.218  0.00  0.00     0.002 A 
HETATM   13  C   UNK N   1      31.769  17.027   2.979  0.00  0.00     0.029 A 
ENDBRANCH   6   8
ENDBRANCH   4   6
ENDBRANCH   2   4
ENDBRANCH   1   2
BRANCH   1  14
HETATM   14  C   UNK N   1      27.752  18.945   5.904  0.00  0.00     0.038 C 
BRANCH  14  15
HETATM   15  C   UNK N   1      27.774  20.219   5.074  0.00  0.00    -0.020 C 
HETATM   16  C   UNK N   1      27.043  19.996   3.764  0.00  0.00     0.009 C 
HETATM   17  C   UNK N   1      27.047  21.302   5.844  0.00  0.00     0.009 C 
ENDBRANCH  14  15
ENDBRANCH   1  14
BRANCH   1  18
HETATM   18  C   UNK N   1      29.644  17.485   6.724  0.00  0.00     0.240 C 
HETATM   19  O   UNK N   1      29.133  17.411   7.833  0.00  0.00    -0.271 OA
HETATM   20  N   UNK N   1      30.960  17.191   6.554  0.00  0.00    -0.352 N 
HETATM   21  H   UNK N   1      31.347  17.272   5.652  0.00  0.00     0.163 HD
BRANCH  20  22
HETATM   22  C   UNK N   1      31.818  16.762   7.639  0.00  0.00     0.113 C 
HETATM   23  C   UNK N   1      32.431  17.947   8.366  0.00  0.00     0.196 C 
HETATM   24  O   UNK N   1      33.791  17.671   8.572  0.00  0.00    -0.359 OA
HETATM   25  C   UNK N   1      34.169  16.929   7.444  0.00  0.00     0.258 C 
HETATM   26  C   UNK N   1      33.009  16.024   7.096  0.00  0.00     0.088 C 
BRANCH  25  27
HETATM   27  O   UNK N   1      34.449  17.790   6.378  0.00  0.00    -0.371 OA
HETATM   28  H   UNK N   1      34.821  17.443   5.552  0.00  0.00     0.212 HD
ENDBRANCH  25  27
ENDBRANCH  20  22
ENDBRANCH   1  18
TORSDOF 9
ENDMDL
MODEL 6
REMARK VINA RESULT:      -6.1     12.819     15.521
REMARK  9 active torsions:
REMARK  status: ('A' for Active; 'I' for Inactive)
REMARK    1  A    between atoms: C_6  and  N_7 
REMARK    2  A    between atoms: N_7  and  C_8 
REMARK    3  A    between atoms: C_8  and  N_10 
REMARK    4  A    between atoms: C_11  and  N_10 
REMARK    5  A    between atoms: C_11  and  C_12 
REMARK    6  A    between atoms: C_11  and  C_16 
REMARK    7  A    between atoms: C_12  and  C_13 
REMARK       I    between atoms: C_16  and  N_18 
REMARK    8  A    between atoms: C_19  and  N_18 
REMARK    9  A    between atoms: C_23  and  O_24 
ROOT
HETATM    1  C   UNK N   1      25.907  23.444  -6.133  0.00  0.00     0.176 C 
ENDROOT
BRANCH   1   2
HETATM    2  N   UNK N   1      25.335  24.533  -6.916  0.00  0.00    -0.354 N 
HETATM    3  H   UNK N   1      24.458  24.364  -7.329  0.00  0.00     0.162 HD
BRANCH   2   4
HETATM    4  C   UNK N   1      25.913  25.820  -7.150  0.00  0.00     0.172 C 
HETATM    5  S   UNK N   1      26.850  26.024  -8.231  0.00  0.00    -0.041 SA
BRANCH   4   6
HETATM    6  N   UNK N   1      25.399  26.919  -6.388  0.00  0.00    -0.333 N 
HETATM    7  H   UNK N   1      24.422  27.039  -6.430  0.00  0.00     0.168 HD
BRANCH   6   8
HETATM    8  C   UNK N   1      26.093  27.867  -5.578  0.00  0.00     0.034 A 
HETATM    9  C   UNK N   1      27.213  28.580  -6.039  0.00  0.00     0.029 A 
HETATM   10  C   UNK N   1      27.862  29.494  -5.205  0.00  0.00     0.002 A 
HETATM   11  C   UNK N   1      27.400  29.705  -3.904  0.00  0.00     0.000 A 
HETATM   12  C   UNK N   1      26.291  28.998  -3.435  0.00  0.00     0.002 A 
HETATM   13  C   UNK N   1      25.645  28.079  -4.268  0.00  0.00     0.029 A 
ENDBRANCH   6   8
ENDBRANCH   4   6
ENDBRANCH   2   4
ENDBRANCH   1   2
BRANCH   1  14
HETATM   14  C   UNK N   1      26.903  22.588  -6.934  0.00  0.00     0.038 C 
BRANCH  14  15
HETATM   15  C   UNK N   1      26.281  21.508  -7.807  0.00  0.00    -0.020 C 
HETATM   16  C   UNK N   1      24.855  21.243  -7.363  0.00  0.00     0.009 C 
HETATM   17  C   UNK N   1      26.247  22.012  -9.235  0.00  0.00     0.009 C 
ENDBRANCH  14  15
ENDBRANCH   1  14
BRANCH   1  18
HETATM   18  C   UNK N   1      26.529  23.999  -4.872  0.00  0.00     0.240 C 
HETATM   19  O   UNK N   1      25.836  24.587  -4.053  0.00  0.00    -0.271 OA
HETATM   20  N   UNK N   1      27.859  23.833  -4.651  0.00  0.00    -0.352 N 
HETATM   21  H   UNK N   1      28.395  23.368  -5.334  0.00  0.00     0.163 HD
BRANCH  20  22
HETATM   22  C   UNK N   1      28.524  24.308  -3.455  0.00  0.00     0.113 C 
HETATM   23  C   UNK N   1      29.994  24.595  -3.712  0.00  0.00     0.196 C 
HETATM   24  O   UNK N   1      30.731  24.058  -2.646  0.00  0.00    -0.359 OA
HETATM   25  C   UNK N   1      30.022  22.905  -2.280  0.00  0.00     0.258 C 
HETATM   26  C   UNK N   1      28.551  23.226  -2.413  0.00  0.00     0.088 C 
BRANCH  25  27
HETATM   27  O   UNK N   1      30.366  21.844  -3.125  0.00  0.00    -0.371 OA
HETATM   28  H   UNK N   1      29.676  21.286  -3.516  0.00  0.00     0.212 HD
ENDBRANCH  25  27
ENDBRANCH  20  22
ENDBRANCH   1  18
TORSDOF 9
ENDMDL
MODEL 7
REMARK VINA RESULT:      -6.0      3.239      4.780
REMARK  9 active torsions:
REMARK  status: ('A' for Active; 'I' for Inactive)
REMARK    1  A    between atoms: C_6  and  N_7 
REMARK    2  A    between atoms: N_7  and  C_8 
REMARK    3  A    between atoms: C_8  and  N_10 
REMARK    4  A    between atoms: C_11  and  N_10 
REMARK    5  A    between atoms: C_11  and  C_12 
REMARK    6  A    between atoms: C_11  and  C_16 
REMARK    7  A    between atoms: C_12  and  C_13 
REMARK       I    between atoms: C_16  and  N_18 
REMARK    8  A    between atoms: C_19  and  N_18 
REMARK    9  A    between atoms: C_23  and  O_24 
ROOT
HETATM    1  C   UNK N   1      34.549  15.824   8.472  0.00  0.00     0.176 C 
ENDROOT
BRANCH   1   2
HETATM    2  N   UNK N   1      34.656  14.585   7.711  0.00  0.00    -0.354 N 
HETATM    3  H   UNK N   1      34.435  13.754   8.190  0.00  0.00     0.162 HD
BRANCH   2   4
HETATM    4  C   UNK N   1      35.050  14.447   6.344  0.00  0.00     0.172 C 
HETATM    5  S   UNK N   1      36.426  14.177   5.994  0.00  0.00    -0.041 SA
BRANCH   4   6
HETATM    6  N   UNK N   1      34.008  14.415   5.360  0.00  0.00    -0.333 N 
HETATM    7  H   UNK N   1      33.993  13.612   4.790  0.00  0.00     0.168 HD
BRANCH   6   8
HETATM    8  C   UNK N   1      32.990  15.377   5.083  0.00  0.00     0.034 A 
HETATM    9  C   UNK N   1      31.629  15.126   5.321  0.00  0.00     0.029 A 
HETATM   10  C   UNK N   1      30.668  16.098   5.028  0.00  0.00     0.002 A 
HETATM   11  C   UNK N   1      31.058  17.329   4.495  0.00  0.00     0.000 A 
HETATM   12  C   UNK N   1      32.409  17.585   4.250  0.00  0.00     0.002 A 
HETATM   13  C   UNK N   1      33.369  16.609   4.538  0.00  0.00     0.029 A 
ENDBRANCH   6   8
ENDBRANCH   4   6
ENDBRANCH   2   4
ENDBRANCH   1   2
BRANCH   1  14
HETATM   14  C   UNK N   1      33.094  16.208   8.790  0.00  0.00     0.038 C 
BRANCH  14  15
HETATM   15  C   UNK N   1      32.546  17.395   8.012  0.00  0.00    -0.020 C 
HETATM   16  C   UNK N   1      31.327  17.956   8.718  0.00  0.00     0.009 C 
HETATM   17  C   UNK N   1      33.611  18.472   7.977  0.00  0.00     0.009 C 
ENDBRANCH  14  15
ENDBRANCH   1  14
BRANCH   1  18
HETATM   18  C   UNK N   1      35.392  15.726   9.723  0.00  0.00     0.240 C 
HETATM   19  O   UNK N   1      35.806  16.740  10.266  0.00  0.00    -0.271 OA
HETATM   20  N   UNK N   1      35.679  14.503  10.243  0.00  0.00    -0.352 N 
HETATM   21  H   UNK N   1      35.344  13.703   9.776  0.00  0.00     0.163 HD
BRANCH  20  22
HETATM   22  C   UNK N   1      36.454  14.324  11.453  0.00  0.00     0.113 C 
HETATM   23  C   UNK N   1      36.892  12.880  11.626  0.00  0.00     0.196 C 
HETATM   24  O   UNK N   1      36.668  12.519  12.964  0.00  0.00    -0.359 OA
HETATM   25  C   UNK N   1      35.514  13.228  13.326  0.00  0.00     0.258 C 
HETATM   26  C   UNK N   1      35.596  14.583  12.659  0.00  0.00     0.088 C 
BRANCH  25  27
HETATM   27  O   UNK N   1      34.375  12.542  12.892  0.00  0.00    -0.371 OA
HETATM   28  H   UNK N   1      34.461  11.756  12.331  0.00  0.00     0.212 HD
ENDBRANCH  25  27
ENDBRANCH  20  22
ENDBRANCH   1  18
TORSDOF 9
ENDMDL
MODEL 8
REMARK VINA RESULT:      -6.0      1.901      3.226
REMARK  9 active torsions:
REMARK  status: ('A' for Active; 'I' for Inactive)
REMARK    1  A    between atoms: C_6  and  N_7 
REMARK    2  A    between atoms: N_7  and  C_8 
REMARK    3  A    between atoms: C_8  and  N_10 
REMARK    4  A    between atoms: C_11  and  N_10 
REMARK    5  A    between atoms: C_11  and  C_12 
REMARK    6  A    between atoms: C_11  and  C_16 
REMARK    7  A    between atoms: C_12  and  C_13 
REMARK       I    between atoms: C_16  and  N_18 
REMARK    8  A    between atoms: C_19  and  N_18 
REMARK    9  A    between atoms: C_23  and  O_24 
ROOT
HETATM    1  C   UNK N   1      30.950  17.197   6.634  0.00  0.00     0.176 C 
ENDROOT
BRANCH   1   2
HETATM    2  N   UNK N   1      30.465  16.424   5.497  0.00  0.00    -0.354 N 
HETATM    3  H   UNK N   1      30.443  15.446   5.607  0.00  0.00     0.162 HD
BRANCH   2   4
HETATM    4  C   UNK N   1      30.019  16.933   4.237  0.00  0.00     0.172 C 
HETATM    5  S   UNK N   1      29.953  16.078   3.075  0.00  0.00    -0.041 SA
BRANCH   4   6
HETATM    6  N   UNK N   1      29.486  18.263   4.218  0.00  0.00    -0.333 N 
HETATM    7  H   UNK N   1      30.113  18.962   3.921  0.00  0.00     0.168 HD
BRANCH   6   8
HETATM    8  C   UNK N   1      28.181  18.725   4.567  0.00  0.00     0.034 A 
HETATM    9  C   UNK N   1      27.048  17.896   4.517  0.00  0.00     0.029 A 
HETATM   10  C   UNK N   1      25.790  18.396   4.863  0.00  0.00     0.002 A 
HETATM   11  C   UNK N   1      25.652  19.728   5.264  0.00  0.00     0.000 A 
HETATM   12  C   UNK N   1      26.773  20.560   5.312  0.00  0.00     0.002 A 
HETATM   13  C   UNK N   1      28.030  20.060   4.959  0.00  0.00     0.029 A 
ENDBRANCH   6   8
ENDBRANCH   4   6
ENDBRANCH   2   4
ENDBRANCH   1   2
BRANCH   1  14
HETATM   14  C   UNK N   1      30.089  17.012   7.895  0.00  0.00     0.038 C 
BRANCH  14  15
HETATM   15  C   UNK N   1      29.308  18.239   8.339  0.00  0.00    -0.020 C 
HETATM   16  C   UNK N   1      27.950  17.823   8.871  0.00  0.00     0.009 C 
HETATM   17  C   UNK N   1      30.073  18.908   9.462  0.00  0.00     0.009 C 
ENDBRANCH  14  15
ENDBRANCH   1  14
BRANCH   1  18
HETATM   18  C   UNK N   1      32.403  16.866   6.889  0.00  0.00     0.240 C 
HETATM   19  O   UNK N   1      33.244  17.093   6.031  0.00  0.00    -0.271 OA
HETATM   20  N   UNK N   1      32.767  16.324   8.081  0.00  0.00    -0.352 N 
HETATM   21  H   UNK N   1      32.066  16.140   8.747  0.00  0.00     0.163 HD
BRANCH  20  22
HETATM   22  C   UNK N   1      34.140  16.006   8.414  0.00  0.00     0.113 C 
HETATM   23  C   UNK N   1      34.340  14.510   8.583  0.00  0.00     0.196 C 
HETATM   24  O   UNK N   1      35.112  14.305   9.737  0.00  0.00    -0.359 OA
HETATM   25  C   UNK N   1      34.714  15.330  10.607  0.00  0.00     0.258 C 
HETATM   26  C   UNK N   1      34.487  16.566   9.765  0.00  0.00     0.088 C 
BRANCH  25  27
HETATM   27  O   UNK N   1      33.534  14.968  11.264  0.00  0.00    -0.371 OA
HETATM   28  H   UNK N   1      32.766  14.659  10.759  0.00  0.00     0.212 HD
ENDBRANCH  25  27
ENDBRANCH  20  22
ENDBRANCH   1  18
TORSDOF 9
ENDMDL
MODEL 9
REMARK VINA RESULT:      -6.0      9.005     11.902
REMARK  9 active torsions:
REMARK  status: ('A' for Active; 'I' for Inactive)
REMARK    1  A    between atoms: C_6  and  N_7 
REMARK    2  A    between atoms: N_7  and  C_8 
REMARK    3  A    between atoms: C_8  and  N_10 
REMARK    4  A    between atoms: C_11  and  N_10 
REMARK    5  A    between atoms: C_11  and  C_12 
REMARK    6  A    between atoms: C_11  and  C_16 
REMARK    7  A    between atoms: C_12  and  C_13 
REMARK       I    between atoms: C_16  and  N_18 
REMARK    8  A    between atoms: C_19  and  N_18 
REMARK    9  A    between atoms: C_23  and  O_24 
ROOT
HETATM    1  C   UNK N   1      22.353  15.999   5.770  0.00  0.00     0.176 C 
ENDROOT
BRANCH   1   2
HETATM    2  N   UNK N   1      23.605  15.510   6.338  0.00  0.00    -0.354 N 
HETATM    3  H   UNK N   1      24.298  16.185   6.519  0.00  0.00     0.162 HD
BRANCH   2   4
HETATM    4  C   UNK N   1      23.934  14.156   6.657  0.00  0.00     0.172 C 
HETATM    5  S   UNK N   1      23.877  13.123   5.649  0.00  0.00    -0.041 SA
BRANCH   4   6
HETATM    6  N   UNK N   1      24.480  13.902   7.958  0.00  0.00    -0.333 N 
HETATM    7  H   UNK N   1      25.417  14.182   8.081  0.00  0.00     0.168 HD
BRANCH   6   8
HETATM    8  C   UNK N   1      23.869  13.303   9.100  0.00  0.00     0.034 A 
HETATM    9  C   UNK N   1      22.486  13.373   9.341  0.00  0.00     0.029 A 
HETATM   10  C   UNK N   1      21.935  12.775  10.478  0.00  0.00     0.002 A 
HETATM   11  C   UNK N   1      22.759  12.102  11.383  0.00  0.00     0.000 A 
HETATM   12  C   UNK N   1      24.135  12.032  11.154  0.00  0.00     0.002 A 
HETATM   13  C   UNK N   1      24.686  12.636  10.020  0.00  0.00     0.029 A 
ENDBRANCH   6   8
ENDBRANCH   4   6
ENDBRANCH   2   4
ENDBRANCH   1   2
BRANCH   1  14
HETATM   14  C   UNK N   1      21.523  16.819   6.772  0.00  0.00     0.038 C 
BRANCH  14  15
HETATM   15  C   UNK N   1      20.220  16.176   7.222  0.00  0.00    -0.020 C 
HETATM   16  C   UNK N   1      20.171  14.731   6.762  0.00  0.00     0.009 C 
HETATM   17  C   UNK N   1      20.180  16.192   8.736  0.00  0.00     0.009 C 
ENDBRANCH  14  15
ENDBRANCH   1  14
BRANCH   1  18
HETATM   18  C   UNK N   1      22.639  16.774   4.505  0.00  0.00     0.240 C 
HETATM   19  O   UNK N   1      23.505  16.390   3.732  0.00  0.00    -0.271 OA
HETATM   20  N   UNK N   1      21.920  17.894   4.229  0.00  0.00    -0.352 N 
HETATM   21  H   UNK N   1      21.239  18.187   4.877  0.00  0.00     0.163 HD
BRANCH  20  22
HETATM   22  C   UNK N   1      22.112  18.676   3.025  0.00  0.00     0.113 C 
HETATM   23  C   UNK N   1      22.857  19.968   3.313  0.00  0.00     0.196 C 
HETATM   24  O   UNK N   1      22.204  21.005   2.628  0.00  0.00    -0.359 OA
HETATM   25  C   UNK N   1      20.850  20.643   2.661  0.00  0.00     0.258 C 
HETATM   26  C   UNK N   1      20.785  19.141   2.495  0.00  0.00     0.088 C 
BRANCH  25  27
HETATM   27  O   UNK N   1      20.284  21.020   3.884  0.00  0.00    -0.371 OA
HETATM   28  H   UNK N   1      20.249  20.391   4.621  0.00  0.00     0.212 HD
ENDBRANCH  25  27
ENDBRANCH  20  22
ENDBRANCH   1  18
TORSDOF 9
ENDMDL
