MODEL 1
REMARK VINA RESULT:      -7.6      0.000      0.000
REMARK  2 active torsions:
REMARK  status: ('A' for Active; 'I' for Inactive)
REMARK    1  A    between atoms: C_17  and  N_16 
REMARK    2  A    between atoms: C_18  and  C_17 
ROOT
HETATM    1  O   UNK N   1      34.982  12.259  11.709  0.00  0.00    -0.264 OA
HETATM    2  C   UNK N   1      35.229  13.450  11.635  0.00  0.00     0.290 A 
HETATM    3  C   UNK N   1      34.789  14.211  10.545  0.00  0.00     0.118 A 
HETATM    4  N   UNK N   1      34.072  13.844   9.443  0.00  0.00    -0.345 N 
HETATM    5  C   UNK N   1      33.546  12.530   9.109  0.00  0.00     0.156 C 
HETATM    6  C   UNK N   1      33.952  14.973   8.707  0.00  0.00     0.053 A 
HETATM    7  C   UNK N   1      33.341  15.269   7.461  0.00  0.00     0.045 A 
HETATM    8  C   UNK N   1      33.526  16.638   7.146  0.00  0.00    -0.018 A 
HETATM    9  C   UNK N   1      33.045  17.334   5.926  0.00  0.00     0.056 C 
HETATM   10  S   UNK N   1      34.399  17.354   8.387  0.00  0.00    -0.092 SA
HETATM   11  C   UNK N   1      34.567  16.017   9.323  0.00  0.00     0.046 A 
HETATM   12  C   UNK N   1      35.094  15.549  10.488  0.00  0.00     0.033 A 
HETATM   13  C   UNK N   1      35.802  16.171  11.480  0.00  0.00     0.122 A 
HETATM   14  N   UNK N   1      36.209  15.410  12.530  0.00  0.00    -0.306 N 
ATOM     15  HN  UNK N   1      36.725  15.863  13.285  1.00  0.00     0.186 HD
HETATM   16  N   UNK N   1      35.967  14.098  12.626  0.00  0.00    -0.252 N 
ENDROOT
BRANCH  16  17
HETATM   17  C   UNK N   1      36.470  13.326  13.776  0.00  0.00     0.194 C 
BRANCH  17  18
HETATM   18  C   UNK N   1      36.204  13.709  15.242  0.00  0.00     0.000 A 
HETATM   19  C   UNK N   1      36.791  14.754  16.030  0.00  0.00     0.124 A 
HETATM   20  C   UNK N   1      36.402  14.929  17.361  0.00  0.00     0.043 A 
HETATM   21  F   UNK N   1      37.739  15.600  15.587  0.00  0.00    -0.205 F 
HETATM   22  C   UNK N   1      35.456  14.096  17.947  0.00  0.00     0.003 A 
HETATM   23  C   UNK N   1      34.889  13.069  17.203  0.00  0.00     0.001 A 
HETATM   24  C   UNK N   1      35.260  12.881  15.871  0.00  0.00     0.012 A 
ENDBRANCH  17  18
ENDBRANCH  16  17
TORSDOF 2
ENDMDL
MODEL 2
REMARK VINA RESULT:      -7.3      3.493      7.712
REMARK  2 active torsions:
REMARK  status: ('A' for Active; 'I' for Inactive)
REMARK    1  A    between atoms: C_17  and  N_16 
REMARK    2  A    between atoms: C_18  and  C_17 
ROOT
HETATM    1  O   UNK N   1      35.297  14.992   7.555  0.00  0.00    -0.264 OA
HETATM    2  C   UNK N   1      35.276  15.473   8.676  0.00  0.00     0.290 A 
HETATM    3  C   UNK N   1      35.670  14.721   9.789  0.00  0.00     0.118 A 
HETATM    4  N   UNK N   1      36.112  13.433   9.875  0.00  0.00    -0.345 N 
HETATM    5  C   UNK N   1      36.311  12.478   8.796  0.00  0.00     0.156 C 
HETATM    6  C   UNK N   1      36.324  13.219  11.193  0.00  0.00     0.053 A 
HETATM    7  C   UNK N   1      36.769  12.100  11.944  0.00  0.00     0.045 A 
HETATM    8  C   UNK N   1      36.802  12.426  13.323  0.00  0.00    -0.018 A 
HETATM    9  C   UNK N   1      37.202  11.524  14.433  0.00  0.00     0.056 C 
HETATM   10  S   UNK N   1      36.299  14.017  13.503  0.00  0.00    -0.092 SA
HETATM   11  C   UNK N   1      36.033  14.333  11.915  0.00  0.00     0.046 A 
HETATM   12  C   UNK N   1      35.624  15.290  11.039  0.00  0.00     0.033 A 
HETATM   13  C   UNK N   1      35.222  16.585  11.228  0.00  0.00     0.122 A 
HETATM   14  N   UNK N   1      34.854  17.293  10.129  0.00  0.00    -0.306 N 
ATOM     15  HN  UNK N   1      34.566  18.265  10.252  1.00  0.00     0.186 HD
HETATM   16  N   UNK N   1      34.850  16.784   8.892  0.00  0.00    -0.252 N 
ENDROOT
BRANCH  16  17
HETATM   17  C   UNK N   1      34.403  17.598   7.747  0.00  0.00     0.194 C 
BRANCH  17  18
HETATM   18  C   UNK N   1      33.037  17.429   7.062  0.00  0.00     0.000 A 
HETATM   19  C   UNK N   1      31.745  17.219   7.649  0.00  0.00     0.124 A 
HETATM   20  C   UNK N   1      30.618  17.087   6.832  0.00  0.00     0.043 A 
HETATM   21  F   UNK N   1      31.518  17.109   8.971  0.00  0.00    -0.205 F 
HETATM   22  C   UNK N   1      30.726  17.146   5.448  0.00  0.00     0.003 A 
HETATM   23  C   UNK N   1      31.972  17.333   4.862  0.00  0.00     0.001 A 
HETATM   24  C   UNK N   1      33.108  17.472   5.661  0.00  0.00     0.012 A 
ENDBRANCH  17  18
ENDBRANCH  16  17
TORSDOF 2
ENDMDL
MODEL 3
REMARK VINA RESULT:      -7.2      3.155      7.342
REMARK  2 active torsions:
REMARK  status: ('A' for Active; 'I' for Inactive)
REMARK    1  A    between atoms: C_17  and  N_16 
REMARK    2  A    between atoms: C_18  and  C_17 
ROOT
HETATM    1  O   UNK N   1      34.454  12.524  10.371  0.00  0.00    -0.264 OA
HETATM    2  C   UNK N   1      34.960  13.188  11.260  0.00  0.00     0.290 A 
HETATM    3  C   UNK N   1      35.018  12.707  12.573  0.00  0.00     0.118 A 
HETATM    4  N   UNK N   1      34.574  11.532  13.105  0.00  0.00    -0.345 N 
HETATM    5  C   UNK N   1      33.918  10.427  12.423  0.00  0.00     0.156 C 
HETATM    6  C   UNK N   1      34.868  11.606  14.423  0.00  0.00     0.053 A 
HETATM    7  C   UNK N   1      34.664  10.733  15.523  0.00  0.00     0.045 A 
HETATM    8  C   UNK N   1      35.168  11.323  16.709  0.00  0.00    -0.018 A 
HETATM    9  C   UNK N   1      35.137  10.731  18.070  0.00  0.00     0.056 C 
HETATM   10  S   UNK N   1      35.806  12.826  16.322  0.00  0.00    -0.092 SA
HETATM   11  C   UNK N   1      35.481  12.784  14.714  0.00  0.00     0.046 A 
HETATM   12  C   UNK N   1      35.586  13.485  13.552  0.00  0.00     0.033 A 
HETATM   13  C   UNK N   1      36.119  14.716  13.278  0.00  0.00     0.122 A 
HETATM   14  N   UNK N   1      36.057  15.153  11.993  0.00  0.00    -0.306 N 
ATOM     15  HN  UNK N   1      36.465  16.062  11.770  1.00  0.00     0.186 HD
HETATM   16  N   UNK N   1      35.491  14.452  11.004  0.00  0.00    -0.252 N 
ENDROOT
BRANCH  16  17
HETATM   17  C   UNK N   1      35.425  15.002   9.638  0.00  0.00     0.194 C 
BRANCH  17  18
HETATM   18  C   UNK N   1      34.289  15.909   9.138  0.00  0.00     0.000 A 
HETATM   19  C   UNK N   1      32.888  15.626   9.009  0.00  0.00     0.124 A 
HETATM   20  C   UNK N   1      32.018  16.606   8.524  0.00  0.00     0.043 A 
HETATM   21  F   UNK N   1      32.321  14.442   9.305  0.00  0.00    -0.205 F 
HETATM   22  C   UNK N   1      32.486  17.859   8.150  0.00  0.00     0.003 A 
HETATM   23  C   UNK N   1      33.842  18.146   8.253  0.00  0.00     0.001 A 
HETATM   24  C   UNK N   1      34.726  17.182   8.740  0.00  0.00     0.012 A 
ENDBRANCH  17  18
ENDBRANCH  16  17
TORSDOF 2
ENDMDL
MODEL 4
REMARK VINA RESULT:      -7.0     20.221     22.743
REMARK  2 active torsions:
REMARK  status: ('A' for Active; 'I' for Inactive)
REMARK    1  A    between atoms: C_17  and  N_16 
REMARK    2  A    between atoms: C_18  and  C_17 
ROOT
HETATM    1  O   UNK N   1      27.698  25.136  -4.274  0.00  0.00    -0.264 OA
HETATM    2  C   UNK N   1      27.180  24.668  -5.274  0.00  0.00     0.290 A 
HETATM    3  C   UNK N   1      27.715  23.536  -5.900  0.00  0.00     0.118 A 
HETATM    4  N   UNK N   1      28.809  22.785  -5.582  0.00  0.00    -0.345 N 
HETATM    5  C   UNK N   1      29.726  22.958  -4.467  0.00  0.00     0.156 C 
HETATM    6  C   UNK N   1      28.872  21.831  -6.539  0.00  0.00     0.053 A 
HETATM    7  C   UNK N   1      29.765  20.757  -6.794  0.00  0.00     0.045 A 
HETATM    8  C   UNK N   1      29.362  20.061  -7.961  0.00  0.00    -0.018 A 
HETATM    9  C   UNK N   1      30.040  18.884  -8.563  0.00  0.00     0.056 C 
HETATM   10  S   UNK N   1      27.981  20.797  -8.567  0.00  0.00    -0.092 SA
HETATM   11  C   UNK N   1      27.852  21.970  -7.427  0.00  0.00     0.046 A 
HETATM   12  C   UNK N   1      27.111  23.040  -7.029  0.00  0.00     0.033 A 
HETATM   13  C   UNK N   1      25.983  23.611  -7.554  0.00  0.00     0.122 A 
HETATM   14  N   UNK N   1      25.480  24.702  -6.921  0.00  0.00    -0.306 N 
ATOM     15  HN  UNK N   1      24.631  25.130  -7.292  1.00  0.00     0.186 HD
HETATM   16  N   UNK N   1      26.041  25.247  -5.835  0.00  0.00    -0.252 N 
ENDROOT
BRANCH  16  17
HETATM   17  C   UNK N   1      25.463  26.455  -5.219  0.00  0.00     0.194 C 
BRANCH  17  18
HETATM   18  C   UNK N   1      26.199  27.802  -5.133  0.00  0.00     0.000 A 
HETATM   19  C   UNK N   1      27.167  28.370  -6.027  0.00  0.00     0.124 A 
HETATM   20  C   UNK N   1      27.720  29.625  -5.755  0.00  0.00     0.043 A 
HETATM   21  F   UNK N   1      27.625  27.763  -7.137  0.00  0.00    -0.205 F 
HETATM   22  C   UNK N   1      27.355  30.338  -4.620  0.00  0.00     0.003 A 
HETATM   23  C   UNK N   1      26.431  29.796  -3.734  0.00  0.00     0.001 A 
HETATM   24  C   UNK N   1      25.863  28.547  -3.991  0.00  0.00     0.012 A 
ENDBRANCH  17  18
ENDBRANCH  16  17
TORSDOF 2
ENDMDL
MODEL 5
REMARK VINA RESULT:      -6.8     12.674     14.805
REMARK  2 active torsions:
REMARK  status: ('A' for Active; 'I' for Inactive)
REMARK    1  A    between atoms: C_17  and  N_16 
REMARK    2  A    between atoms: C_18  and  C_17 
ROOT
HETATM    1  O   UNK N   1      20.136  13.038   5.544  0.00  0.00    -0.264 OA
HETATM    2  C   UNK N   1      20.603  14.091   5.947  0.00  0.00     0.290 A 
HETATM    3  C   UNK N   1      20.608  15.232   5.137  0.00  0.00     0.118 A 
HETATM    4  N   UNK N   1      20.154  15.415   3.863  0.00  0.00    -0.345 N 
HETATM    5  C   UNK N   1      19.510  14.445   2.991  0.00  0.00     0.156 C 
HETATM    6  C   UNK N   1      20.437  16.704   3.568  0.00  0.00     0.053 A 
HETATM    7  C   UNK N   1      20.239  17.512   2.418  0.00  0.00     0.045 A 
HETATM    8  C   UNK N   1      20.742  18.816   2.651  0.00  0.00    -0.018 A 
HETATM    9  C   UNK N   1      20.731  19.949   1.691  0.00  0.00     0.056 C 
HETATM   10  S   UNK N   1      21.369  18.872   4.206  0.00  0.00    -0.092 SA
HETATM   11  C   UNK N   1      21.042  17.317   4.619  0.00  0.00     0.046 A 
HETATM   12  C   UNK N   1      21.151  16.399   5.617  0.00  0.00     0.033 A 
HETATM   13  C   UNK N   1      21.671  16.486   6.881  0.00  0.00     0.122 A 
HETATM   14  N   UNK N   1      21.644  15.365   7.648  0.00  0.00    -0.306 N 
ATOM     15  HN  UNK N   1      22.014  15.419   8.598  1.00  0.00     0.186 HD
HETATM   16  N   UNK N   1      21.156  14.194   7.223  0.00  0.00    -0.252 N 
ENDROOT
BRANCH  16  17
HETATM   17  C   UNK N   1      21.191  13.007   8.096  0.00  0.00     0.194 C 
BRANCH  17  18
HETATM   18  C   UNK N   1      22.305  12.735   9.120  0.00  0.00     0.000 A 
HETATM   19  C   UNK N   1      23.728  12.841   8.966  0.00  0.00     0.124 A 
HETATM   20  C   UNK N   1      24.572  12.539  10.040  0.00  0.00     0.043 A 
HETATM   21  F   UNK N   1      24.346  13.198   7.825  0.00  0.00    -0.205 F 
HETATM   22  C   UNK N   1      24.057  12.125  11.262  0.00  0.00     0.003 A 
HETATM   23  C   UNK N   1      22.683  12.001  11.423  0.00  0.00     0.001 A 
HETATM   24  C   UNK N   1      21.823  12.302  10.366  0.00  0.00     0.012 A 
ENDBRANCH  17  18
ENDBRANCH  16  17
TORSDOF 2
ENDMDL
MODEL 6
REMARK VINA RESULT:      -6.8      1.444      1.761
REMARK  2 active torsions:
REMARK  status: ('A' for Active; 'I' for Inactive)
REMARK    1  A    between atoms: C_17  and  N_16 
REMARK    2  A    between atoms: C_18  and  C_17 
ROOT
HETATM    1  O   UNK N   1      35.624  11.358  11.933  0.00  0.00    -0.264 OA
HETATM    2  C   UNK N   1      35.781  12.560  12.057  0.00  0.00     0.290 A 
HETATM    3  C   UNK N   1      35.283  13.454  11.101  0.00  0.00     0.118 A 
HETATM    4  N   UNK N   1      34.595  13.220   9.946  0.00  0.00    -0.345 N 
HETATM    5  C   UNK N   1      34.170  11.942   9.396  0.00  0.00     0.156 C 
HETATM    6  C   UNK N   1      34.390  14.441   9.403  0.00  0.00     0.053 A 
HETATM    7  C   UNK N   1      33.757  14.891   8.215  0.00  0.00     0.045 A 
HETATM    8  C   UNK N   1      33.838  16.304   8.129  0.00  0.00    -0.018 A 
HETATM    9  C   UNK N   1      33.304  17.152   7.034  0.00  0.00     0.056 C 
HETATM   10  S   UNK N   1      34.655  16.869   9.481  0.00  0.00    -0.092 SA
HETATM   11  C   UNK N   1      34.924  15.414  10.188  0.00  0.00     0.046 A 
HETATM   12  C   UNK N   1      35.486  14.802  11.266  0.00  0.00     0.033 A 
HETATM   13  C   UNK N   1      36.147  15.305  12.355  0.00  0.00     0.122 A 
HETATM   14  N   UNK N   1      36.610  14.415  13.272  0.00  0.00    -0.306 N 
ATOM     15  HN  UNK N   1      37.092  14.776  14.096  1.00  0.00     0.186 HD
HETATM   16  N   UNK N   1      36.469  13.091  13.149  0.00  0.00    -0.252 N 
ENDROOT
BRANCH  16  17
HETATM   17  C   UNK N   1      37.029  12.180  14.164  0.00  0.00     0.194 C 
BRANCH  17  18
HETATM   18  C   UNK N   1      36.333  11.857  15.496  0.00  0.00     0.000 A 
HETATM   19  C   UNK N   1      35.847  12.749  16.509  0.00  0.00     0.124 A 
HETATM   20  C   UNK N   1      35.240  12.237  17.660  0.00  0.00     0.043 A 
HETATM   21  F   UNK N   1      35.951  14.090  16.456  0.00  0.00    -0.205 F 
HETATM   22  C   UNK N   1      35.104  10.868  17.849  0.00  0.00     0.003 A 
HETATM   23  C   UNK N   1      35.583   9.989  16.886  0.00  0.00     0.001 A 
HETATM   24  C   UNK N   1      36.188  10.480  15.728  0.00  0.00     0.012 A 
ENDBRANCH  17  18
ENDBRANCH  16  17
TORSDOF 2
ENDMDL
MODEL 7
REMARK VINA RESULT:      -6.8     18.364     21.654
REMARK  2 active torsions:
REMARK  status: ('A' for Active; 'I' for Inactive)
REMARK    1  A    between atoms: C_17  and  N_16 
REMARK    2  A    between atoms: C_18  and  C_17 
ROOT
HETATM    1  O   UNK N   1      27.348  25.009  -3.438  0.00  0.00    -0.264 OA
HETATM    2  C   UNK N   1      27.818  24.617  -4.492  0.00  0.00     0.290 A 
HETATM    3  C   UNK N   1      28.801  23.620  -4.516  0.00  0.00     0.118 A 
HETATM    4  N   UNK N   1      29.395  22.940  -3.493  0.00  0.00    -0.345 N 
HETATM    5  C   UNK N   1      29.145  23.064  -2.066  0.00  0.00     0.156 C 
HETATM    6  C   UNK N   1      30.288  22.116  -4.088  0.00  0.00     0.053 A 
HETATM    7  C   UNK N   1      31.222  21.167  -3.598  0.00  0.00     0.045 A 
HETATM    8  C   UNK N   1      31.926  20.579  -4.679  0.00  0.00    -0.018 A 
HETATM    9  C   UNK N   1      32.991  19.549  -4.581  0.00  0.00     0.056 C 
HETATM   10  S   UNK N   1      31.359  21.252  -6.108  0.00  0.00    -0.092 SA
HETATM   11  C   UNK N   1      30.256  22.265  -5.439  0.00  0.00     0.046 A 
HETATM   12  C   UNK N   1      29.316  23.208  -5.721  0.00  0.00     0.033 A 
HETATM   13  C   UNK N   1      28.880  23.731  -6.909  0.00  0.00     0.122 A 
HETATM   14  N   UNK N   1      27.918  24.689  -6.856  0.00  0.00    -0.306 N 
ATOM     15  HN  UNK N   1      27.572  25.078  -7.734  1.00  0.00     0.186 HD
HETATM   16  N   UNK N   1      27.401  25.151  -5.712  0.00  0.00    -0.252 N 
ENDROOT
BRANCH  16  17
HETATM   17  C   UNK N   1      26.386  26.219  -5.726  0.00  0.00     0.194 C 
BRANCH  17  18
HETATM   18  C   UNK N   1      26.664  27.665  -5.284  0.00  0.00     0.000 A 
HETATM   19  C   UNK N   1      26.148  28.388  -4.157  0.00  0.00     0.124 A 
HETATM   20  C   UNK N   1      26.535  29.714  -3.940  0.00  0.00     0.043 A 
HETATM   21  F   UNK N   1      25.270  27.887  -3.269  0.00  0.00    -0.205 F 
HETATM   22  C   UNK N   1      27.411  30.356  -4.806  0.00  0.00     0.003 A 
HETATM   23  C   UNK N   1      27.908  29.677  -5.911  0.00  0.00     0.001 A 
HETATM   24  C   UNK N   1      27.538  28.351  -6.143  0.00  0.00     0.012 A 
ENDBRANCH  17  18
ENDBRANCH  16  17
TORSDOF 2
ENDMDL
MODEL 8
REMARK VINA RESULT:      -6.7     21.184     22.812
REMARK  2 active torsions:
REMARK  status: ('A' for Active; 'I' for Inactive)
REMARK    1  A    between atoms: C_17  and  N_16 
REMARK    2  A    between atoms: C_18  and  C_17 
ROOT
HETATM    1  O   UNK N   1      25.202  25.318  -6.591  0.00  0.00    -0.264 OA
HETATM    2  C   UNK N   1      26.248  24.993  -6.054  0.00  0.00     0.290 A 
HETATM    3  C   UNK N   1      26.945  23.852  -6.469  0.00  0.00     0.118 A 
HETATM    4  N   UNK N   1      26.655  22.945  -7.446  0.00  0.00    -0.345 N 
HETATM    5  C   UNK N   1      25.517  22.932  -8.352  0.00  0.00     0.156 C 
HETATM    6  C   UNK N   1      27.656  22.037  -7.394  0.00  0.00     0.053 A 
HETATM    7  C   UNK N   1      27.943  20.853  -8.122  0.00  0.00     0.045 A 
HETATM    8  C   UNK N   1      29.142  20.269  -7.642  0.00  0.00    -0.018 A 
HETATM    9  C   UNK N   1      29.773  19.019  -8.136  0.00  0.00     0.056 C 
HETATM   10  S   UNK N   1      29.737  21.227  -6.400  0.00  0.00    -0.092 SA
HETATM   11  C   UNK N   1      28.551  22.362  -6.424  0.00  0.00     0.046 A 
HETATM   12  C   UNK N   1      28.116  23.509  -5.837  0.00  0.00     0.033 A 
HETATM   13  C   UNK N   1      28.635  24.265  -4.820  0.00  0.00     0.122 A 
HETATM   14  N   UNK N   1      27.942  25.372  -4.445  0.00  0.00    -0.306 N 
ATOM     15  HN  UNK N   1      28.324  25.953  -3.699  1.00  0.00     0.186 HD
HETATM   16  N   UNK N   1      26.783  25.738  -5.004  0.00  0.00    -0.252 N 
ENDROOT
BRANCH  16  17
HETATM   17  C   UNK N   1      26.064  26.932  -4.523  0.00  0.00     0.194 C 
BRANCH  17  18
HETATM   18  C   UNK N   1      26.619  28.362  -4.631  0.00  0.00     0.000 A 
HETATM   19  C   UNK N   1      27.434  28.947  -5.656  0.00  0.00     0.124 A 
HETATM   20  C   UNK N   1      27.834  30.283  -5.555  0.00  0.00     0.043 A 
HETATM   21  F   UNK N   1      27.884  28.287  -6.740  0.00  0.00    -0.205 F 
HETATM   22  C   UNK N   1      27.463  31.061  -4.466  0.00  0.00     0.003 A 
HETATM   23  C   UNK N   1      26.688  30.506  -3.456  0.00  0.00     0.001 A 
HETATM   24  C   UNK N   1      26.274  29.177  -3.541  0.00  0.00     0.012 A 
ENDBRANCH  17  18
ENDBRANCH  16  17
TORSDOF 2
ENDMDL
MODEL 9
REMARK VINA RESULT:      -6.5     18.088     21.026
REMARK  2 active torsions:
REMARK  status: ('A' for Active; 'I' for Inactive)
REMARK    1  A    between atoms: C_17  and  N_16 
REMARK    2  A    between atoms: C_18  and  C_17 
ROOT
HETATM    1  O   UNK N   1      27.621  23.082  -6.558  0.00  0.00    -0.264 OA
HETATM    2  C   UNK N   1      28.344  23.328  -5.607  0.00  0.00     0.290 A 
HETATM    3  C   UNK N   1      29.464  22.535  -5.331  0.00  0.00     0.118 A 
HETATM    4  N   UNK N   1      29.948  21.434  -5.975  0.00  0.00    -0.345 N 
HETATM    5  C   UNK N   1      29.421  20.784  -7.165  0.00  0.00     0.156 C 
HETATM    6  C   UNK N   1      31.035  21.057  -5.263  0.00  0.00     0.053 A 
HETATM    7  C   UNK N   1      31.969  19.996  -5.391  0.00  0.00     0.045 A 
HETATM    8  C   UNK N   1      32.925  20.067  -4.346  0.00  0.00    -0.018 A 
HETATM    9  C   UNK N   1      34.059  19.133  -4.126  0.00  0.00     0.056 C 
HETATM   10  S   UNK N   1      32.557  21.388  -3.380  0.00  0.00    -0.092 SA
HETATM   11  C   UNK N   1      31.235  21.893  -4.211  0.00  0.00     0.046 A 
HETATM   12  C   UNK N   1      30.252  22.834  -4.246  0.00  0.00     0.033 A 
HETATM   13  C   UNK N   1      29.987  23.903  -3.434  0.00  0.00     0.122 A 
HETATM   14  N   UNK N   1      28.900  24.661  -3.732  0.00  0.00    -0.306 N 
ATOM     15  HN  UNK N   1      28.698  25.471  -3.144  1.00  0.00     0.186 HD
HETATM   16  N   UNK N   1      28.079  24.401  -4.756  0.00  0.00    -0.252 N 
ENDROOT
BRANCH  16  17
HETATM   17  C   UNK N   1      26.896  25.245  -5.001  0.00  0.00     0.194 C 
BRANCH  17  18
HETATM   18  C   UNK N   1      26.878  26.769  -4.797  0.00  0.00     0.000 A 
HETATM   19  C   UNK N   1      26.443  27.530  -3.661  0.00  0.00     0.124 A 
HETATM   20  C   UNK N   1      26.512  28.926  -3.686  0.00  0.00     0.043 A 
HETATM   21  F   UNK N   1      25.932  26.995  -2.537  0.00  0.00    -0.205 F 
HETATM   22  C   UNK N   1      26.988  29.600  -4.804  0.00  0.00     0.003 A 
HETATM   23  C   UNK N   1      27.398  28.879  -5.919  0.00  0.00     0.001 A 
HETATM   24  C   UNK N   1      27.343  27.485  -5.911  0.00  0.00     0.012 A 
ENDBRANCH  17  18
ENDBRANCH  16  17
TORSDOF 2
ENDMDL
