MODEL 1
REMARK VINA RESULT:      -8.5      0.000      0.000
REMARK  4 active torsions:
REMARK  status: ('A' for Active; 'I' for Inactive)
REMARK    1  A    between atoms: C_10  and  C_11 
REMARK       I    between atoms: C_11  and  N_13 
REMARK    2  A    between atoms: C_14  and  N_13 
REMARK    3  A    between atoms: C_19  and  N_20 
REMARK       I    between atoms: N_20  and  C_21 
REMARK    4  A    between atoms: C_21  and  C_23 
ROOT
HETATM    1  C   UNK N   1      35.621  14.747   9.145  0.00  0.00     0.107 C 
HETATM    2  C   UNK N   1      36.552  13.804   8.361  0.00  0.00     0.027 C 
HETATM    3  C   UNK N   1      35.811  12.651   7.683  0.00  0.00     0.002 C 
HETATM    4  C   UNK N   1      34.610  13.153   6.885  0.00  0.00     0.002 C 
HETATM    5  C   UNK N   1      33.656  13.932   7.792  0.00  0.00     0.027 C 
HETATM    6  C   UNK N   1      34.354  15.163   8.371  0.00  0.00     0.107 C 
ENDROOT
BRANCH   1   7
HETATM    7  N   UNK N   1      35.195  14.277  10.444  0.00  0.00    -0.349 N 
HETATM    8  C   UNK N   1      35.359  14.816  11.673  0.00  0.00     0.268 C 
HETATM    9  O   UNK N   1      35.580  16.009  11.839  0.00  0.00    -0.266 OA
HETATM   10  H   UNK N   1      34.705  13.422  10.431  0.00  0.00     0.163 HD
BRANCH   8  11
HETATM   11  C   UNK N   1      35.348  13.888  12.798  0.00  0.00     0.102 A 
HETATM   12  N   UNK N   1      34.563  12.784  12.754  0.00  0.00    -0.351 N 
HETATM   13  C   UNK N   1      34.799  12.132  13.888  0.00  0.00     0.043 A 
HETATM   14  H   UNK N   1      33.946  12.520  12.033  0.00  0.00     0.166 HD
HETATM   15  C   UNK N   1      34.208  10.939  14.284  0.00  0.00     0.032 A 
HETATM   16  C   UNK N   1      35.706  12.799  14.662  0.00  0.00    -0.005 A 
HETATM   17  C   UNK N   1      34.546  10.437  15.548  0.00  0.00     0.026 A 
HETATM   18  C   UNK N   1      35.459  11.135  16.371  0.00  0.00     0.035 A 
HETATM   19 Cl   UNK N   1      35.797  10.530  17.975  0.00  0.00    -0.084 Cl
HETATM   20  C   UNK N   1      36.062  12.330  15.923  0.00  0.00     0.037 A 
HETATM   21  C   UNK N   1      36.101  13.931  13.969  0.00  0.00     0.049 A 
ENDBRANCH   8  11
ENDBRANCH   1   7
BRANCH   6  22
HETATM   22  N   UNK N   1      34.672  16.083   7.301  0.00  0.00    -0.349 N 
HETATM   23  C   UNK N   1      33.824  16.909   6.619  0.00  0.00     0.275 C 
HETATM   24  O   UNK N   1      34.291  17.551   5.692  0.00  0.00    -0.265 OA
HETATM   25  H   UNK N   1      35.619  16.117   7.030  0.00  0.00     0.163 HD
BRANCH  23  26
HETATM   26  C   UNK N   1      32.376  17.139   6.945  0.00  0.00     0.143 A 
HETATM   27  N   UNK N   1      31.274  16.723   6.252  0.00  0.00    -0.348 N 
HETATM   28  C   UNK N   1      30.094  17.089   6.878  0.00  0.00     0.026 A 
ATOM     29  HN  UNK N   1      31.315  16.203   5.374  1.00  0.00     0.166 HD
HETATM   30  C   UNK N   1      30.252  17.779   8.071  0.00  0.00     0.035 A 
HETATM   31  C   UNK N   1      28.733  16.798   6.329  0.00  0.00     0.088 C 
HETATM   32  S   UNK N   1      31.871  17.938   8.313  0.00  0.00    -0.068 SA
HETATM   33  C   UNK N   1      29.132  18.265   8.930  0.00  0.00     0.320 C 
HETATM   34  N   UNK N   1      27.867  18.333   8.186  0.00  0.00     0.089 N 
HETATM   35  C   UNK N   1      27.812  19.573   7.425  0.00  0.00     0.310 C 
HETATM   36  C   UNK N   1      27.604  17.160   7.327  0.00  0.00     0.278 C 
ENDBRANCH  23  26
ENDBRANCH   6  22
TORSDOF 4
ENDMDL
MODEL 2
REMARK VINA RESULT:      -8.2      9.052     13.258
REMARK  4 active torsions:
REMARK  status: ('A' for Active; 'I' for Inactive)
REMARK    1  A    between atoms: C_10  and  C_11 
REMARK       I    between atoms: C_11  and  N_13 
REMARK    2  A    between atoms: C_14  and  N_13 
REMARK    3  A    between atoms: C_19  and  N_20 
REMARK       I    between atoms: N_20  and  C_21 
REMARK    4  A    between atoms: C_21  and  C_23 
ROOT
HETATM    1  C   UNK N   1      21.567  17.591   4.449  0.00  0.00     0.107 C 
HETATM    2  C   UNK N   1      21.174  19.052   4.156  0.00  0.00     0.027 C 
HETATM    3  C   UNK N   1      21.032  19.352   2.664  0.00  0.00     0.002 C 
HETATM    4  C   UNK N   1      20.154  18.314   1.968  0.00  0.00     0.002 C 
HETATM    5  C   UNK N   1      20.725  16.910   2.172  0.00  0.00     0.027 C 
HETATM    6  C   UNK N   1      20.747  16.552   3.659  0.00  0.00     0.107 C 
ENDROOT
BRANCH   1   7
HETATM    7  N   UNK N   1      22.964  17.266   4.266  0.00  0.00    -0.349 N 
HETATM    8  C   UNK N   1      23.730  16.318   4.850  0.00  0.00     0.268 C 
HETATM    9  O   UNK N   1      23.251  15.318   5.370  0.00  0.00    -0.266 OA
HETATM   10  H   UNK N   1      23.434  17.828   3.608  0.00  0.00     0.163 HD
BRANCH   8  11
HETATM   11  C   UNK N   1      25.162  16.585   4.910  0.00  0.00     0.102 A 
HETATM   12  N   UNK N   1      25.769  16.743   6.112  0.00  0.00    -0.351 N 
HETATM   13  C   UNK N   1      27.057  16.932   5.840  0.00  0.00     0.043 A 
HETATM   14  H   UNK N   1      25.345  16.723   7.001  0.00  0.00     0.166 HD
HETATM   15  C   UNK N   1      28.066  17.146   6.770  0.00  0.00     0.032 A 
HETATM   16  C   UNK N   1      27.286  16.912   4.494  0.00  0.00    -0.005 A 
HETATM   17  C   UNK N   1      29.357  17.384   6.281  0.00  0.00     0.026 A 
HETATM   18  C   UNK N   1      29.601  17.398   4.889  0.00  0.00     0.035 A 
HETATM   19 Cl   UNK N   1      31.203  17.781   4.306  0.00  0.00    -0.084 Cl
HETATM   20  C   UNK N   1      28.555  17.147   3.974  0.00  0.00     0.037 A 
HETATM   21  C   UNK N   1      26.078  16.663   3.863  0.00  0.00     0.049 A 
ENDBRANCH   8  11
ENDBRANCH   1   7
BRANCH   6  22
HETATM   22  N   UNK N   1      19.391  16.469   4.153  0.00  0.00    -0.349 N 
HETATM   23  C   UNK N   1      18.920  15.739   5.209  0.00  0.00     0.275 C 
HETATM   24  O   UNK N   1      17.717  15.750   5.408  0.00  0.00    -0.265 OA
HETATM   25  H   UNK N   1      18.722  17.005   3.668  0.00  0.00     0.163 HD
BRANCH  23  26
HETATM   26  C   UNK N   1      19.765  14.965   6.182  0.00  0.00     0.143 A 
HETATM   27  N   UNK N   1      20.109  15.302   7.461  0.00  0.00    -0.348 N 
HETATM   28  C   UNK N   1      20.872  14.320   8.071  0.00  0.00     0.026 A 
ATOM     29  HN  UNK N   1      19.836  16.175   7.914  1.00  0.00     0.166 HD
HETATM   30  C   UNK N   1      21.123  13.201   7.291  0.00  0.00     0.035 A 
HETATM   31  C   UNK N   1      21.419  14.433   9.459  0.00  0.00     0.088 C 
HETATM   32  S   UNK N   1      20.400  13.468   5.838  0.00  0.00    -0.068 SA
HETATM   33  C   UNK N   1      21.907  12.011   7.734  0.00  0.00     0.320 C 
HETATM   34  N   UNK N   1      22.751  12.319   8.898  0.00  0.00     0.089 N 
HETATM   35  C   UNK N   1      23.982  12.958   8.455  0.00  0.00     0.310 C 
HETATM   36  C   UNK N   1      22.075  13.115   9.944  0.00  0.00     0.278 C 
ENDBRANCH  23  26
ENDBRANCH   6  22
TORSDOF 4
ENDMDL
MODEL 3
REMARK VINA RESULT:      -8.1      7.268     10.915
REMARK  4 active torsions:
REMARK  status: ('A' for Active; 'I' for Inactive)
REMARK    1  A    between atoms: C_10  and  C_11 
REMARK       I    between atoms: C_11  and  N_13 
REMARK    2  A    between atoms: C_14  and  N_13 
REMARK    3  A    between atoms: C_19  and  N_20 
REMARK       I    between atoms: N_20  and  C_21 
REMARK    4  A    between atoms: C_21  and  C_23 
ROOT
HETATM    1  C   UNK N   1      24.425  16.588   4.915  0.00  0.00     0.107 C 
HETATM    2  C   UNK N   1      23.661  15.978   3.724  0.00  0.00     0.027 C 
HETATM    3  C   UNK N   1      22.168  16.309   3.732  0.00  0.00     0.002 C 
HETATM    4  C   UNK N   1      21.931  17.805   3.932  0.00  0.00     0.002 C 
HETATM    5  C   UNK N   1      22.583  18.280   5.231  0.00  0.00     0.027 C 
HETATM    6  C   UNK N   1      24.097  18.071   5.177  0.00  0.00     0.107 C 
ENDROOT
BRANCH   1   7
HETATM    7  N   UNK N   1      24.293  15.889   6.173  0.00  0.00    -0.349 N 
HETATM    8  C   UNK N   1      24.580  14.610   6.505  0.00  0.00     0.268 C 
HETATM    9  O   UNK N   1      25.367  13.929   5.861  0.00  0.00    -0.266 OA
HETATM   10  H   UNK N   1      23.934  16.435   6.911  0.00  0.00     0.163 HD
BRANCH   8  11
HETATM   11  C   UNK N   1      23.836  14.046   7.625  0.00  0.00     0.102 A 
HETATM   12  N   UNK N   1      24.495  13.384   8.608  0.00  0.00    -0.351 N 
HETATM   13  C   UNK N   1      23.562  13.031   9.487  0.00  0.00     0.043 A 
HETATM   14  H   UNK N   1      25.461  13.204   8.660  0.00  0.00     0.166 HD
HETATM   15  C   UNK N   1      23.774  12.321  10.663  0.00  0.00     0.032 A 
HETATM   16  C   UNK N   1      22.322  13.437   9.084  0.00  0.00    -0.005 A 
HETATM   17  C   UNK N   1      22.650  11.991  11.431  0.00  0.00     0.026 A 
HETATM   18  C   UNK N   1      21.358  12.378  11.007  0.00  0.00     0.035 A 
HETATM   19 Cl   UNK N   1      19.968  11.880  11.942  0.00  0.00    -0.084 Cl
HETATM   20  C   UNK N   1      21.184  13.124   9.821  0.00  0.00     0.037 A 
HETATM   21  C   UNK N   1      22.470  14.122   7.889  0.00  0.00     0.049 A 
ENDBRANCH   8  11
ENDBRANCH   1   7
BRANCH   6  22
HETATM   22  N   UNK N   1      24.663  18.921   4.153  0.00  0.00    -0.349 N 
HETATM   23  C   UNK N   1      25.983  19.176   3.902  0.00  0.00     0.275 C 
HETATM   24  O   UNK N   1      26.241  19.994   3.034  0.00  0.00    -0.265 OA
HETATM   25  H   UNK N   1      24.017  19.374   3.563  0.00  0.00     0.163 HD
BRANCH  23  26
HETATM   26  C   UNK N   1      27.146  18.497   4.567  0.00  0.00     0.143 A 
HETATM   27  N   UNK N   1      27.660  18.721   5.814  0.00  0.00    -0.348 N 
HETATM   28  C   UNK N   1      28.717  17.874   6.102  0.00  0.00     0.026 A 
ATOM     29  HN  UNK N   1      27.306  19.430   6.457  1.00  0.00     0.166 HD
HETATM   30  C   UNK N   1      29.036  16.969   5.100  0.00  0.00     0.035 A 
HETATM   31  C   UNK N   1      29.493  17.916   7.380  0.00  0.00     0.088 C 
HETATM   32  S   UNK N   1      27.999  17.259   3.857  0.00  0.00    -0.068 SA
HETATM   33  C   UNK N   1      30.123  15.951   5.185  0.00  0.00     0.320 C 
HETATM   34  N   UNK N   1      31.098  16.283   6.233  0.00  0.00     0.089 N 
HETATM   35  C   UNK N   1      32.056  17.254   5.722  0.00  0.00     0.310 C 
HETATM   36  C   UNK N   1      30.493  16.737   7.502  0.00  0.00     0.278 C 
ENDBRANCH  23  26
ENDBRANCH   6  22
TORSDOF 4
ENDMDL
MODEL 4
REMARK VINA RESULT:      -7.9      7.262     10.051
REMARK  4 active torsions:
REMARK  status: ('A' for Active; 'I' for Inactive)
REMARK    1  A    between atoms: C_10  and  C_11 
REMARK       I    between atoms: C_11  and  N_13 
REMARK    2  A    between atoms: C_14  and  N_13 
REMARK    3  A    between atoms: C_19  and  N_20 
REMARK       I    between atoms: N_20  and  C_21 
REMARK    4  A    between atoms: C_21  and  C_23 
ROOT
HETATM    1  C   UNK N   1      25.869  13.575   4.318  0.00  0.00     0.107 C 
HETATM    2  C   UNK N   1      25.596  12.369   3.399  0.00  0.00     0.027 C 
HETATM    3  C   UNK N   1      24.444  12.603   2.422  0.00  0.00     0.002 C 
HETATM    4  C   UNK N   1      24.601  13.931   1.684  0.00  0.00     0.002 C 
HETATM    5  C   UNK N   1      24.689  15.088   2.682  0.00  0.00     0.027 C 
HETATM    6  C   UNK N   1      25.917  14.927   3.579  0.00  0.00     0.107 C 
ENDROOT
BRANCH   1   7
HETATM    7  N   UNK N   1      24.969  13.729   5.439  0.00  0.00    -0.349 N 
HETATM    8  C   UNK N   1      25.168  14.278   6.659  0.00  0.00     0.268 C 
HETATM    9  O   UNK N   1      26.063  15.084   6.874  0.00  0.00    -0.266 OA
HETATM   10  H   UNK N   1      24.062  13.377   5.289  0.00  0.00     0.163 HD
BRANCH   8  11
HETATM   11  C   UNK N   1      24.314  13.794   7.737  0.00  0.00     0.102 A 
HETATM   12  N   UNK N   1      24.867  13.184   8.814  0.00  0.00    -0.351 N 
HETATM   13  C   UNK N   1      23.852  12.899   9.623  0.00  0.00     0.043 A 
HETATM   14  H   UNK N   1      25.821  12.994   8.965  0.00  0.00     0.166 HD
HETATM   15  C   UNK N   1      23.941  12.259  10.853  0.00  0.00     0.032 A 
HETATM   16  C   UNK N   1      22.662  13.298   9.084  0.00  0.00    -0.005 A 
HETATM   17  C   UNK N   1      22.746  11.994  11.533  0.00  0.00     0.026 A 
HETATM   18  C   UNK N   1      21.506  12.373  10.971  0.00  0.00     0.035 A 
HETATM   19 Cl   UNK N   1      20.027  11.953  11.802  0.00  0.00    -0.084 Cl
HETATM   20  C   UNK N   1      21.456  13.047   9.731  0.00  0.00     0.037 A 
HETATM   21  C   UNK N   1      22.931  13.906   7.870  0.00  0.00     0.049 A 
ENDBRANCH   8  11
ENDBRANCH   1   7
BRANCH   6  22
HETATM   22  N   UNK N   1      27.115  15.044   2.779  0.00  0.00    -0.349 N 
HETATM   23  C   UNK N   1      28.266  15.721   3.076  0.00  0.00     0.275 C 
HETATM   24  O   UNK N   1      29.133  15.757   2.219  0.00  0.00    -0.265 OA
HETATM   25  H   UNK N   1      27.101  14.579   1.911  0.00  0.00     0.163 HD
BRANCH  23  26
HETATM   26  C   UNK N   1      28.578  16.379   4.390  0.00  0.00     0.143 A 
HETATM   27  N   UNK N   1      29.575  16.076   5.274  0.00  0.00    -0.348 N 
HETATM   28  C   UNK N   1      29.580  16.927   6.367  0.00  0.00     0.026 A 
ATOM     29  HN  UNK N   1      30.239  15.312   5.145  1.00  0.00     0.166 HD
HETATM   30  C   UNK N   1      28.603  17.912   6.349  0.00  0.00     0.035 A 
HETATM   31  C   UNK N   1      30.537  16.810   7.511  0.00  0.00     0.088 C 
HETATM   32  S   UNK N   1      27.734  17.688   4.970  0.00  0.00    -0.068 SA
HETATM   33  C   UNK N   1      28.418  18.949   7.406  0.00  0.00     0.320 C 
HETATM   34  N   UNK N   1      29.072  18.565   8.664  0.00  0.00     0.089 N 
HETATM   35  C   UNK N   1      28.209  17.661   9.410  0.00  0.00     0.310 C 
HETATM   36  C   UNK N   1      30.428  18.002   8.496  0.00  0.00     0.278 C 
ENDBRANCH  23  26
ENDBRANCH   6  22
TORSDOF 4
ENDMDL
MODEL 5
REMARK VINA RESULT:      -7.7      6.265      9.916
REMARK  4 active torsions:
REMARK  status: ('A' for Active; 'I' for Inactive)
REMARK    1  A    between atoms: C_10  and  C_11 
REMARK       I    between atoms: C_11  and  N_13 
REMARK    2  A    between atoms: C_14  and  N_13 
REMARK    3  A    between atoms: C_19  and  N_20 
REMARK       I    between atoms: N_20  and  C_21 
REMARK    4  A    between atoms: C_21  and  C_23 
ROOT
HETATM    1  C   UNK N   1      26.289  18.862   5.647  0.00  0.00     0.107 C 
HETATM    2  C   UNK N   1      26.465  20.336   5.235  0.00  0.00     0.027 C 
HETATM    3  C   UNK N   1      26.624  20.527   3.727  0.00  0.00     0.002 C 
HETATM    4  C   UNK N   1      25.536  19.785   2.954  0.00  0.00     0.002 C 
HETATM    5  C   UNK N   1      25.556  18.295   3.302  0.00  0.00     0.027 C 
HETATM    6  C   UNK N   1      25.267  18.090   4.789  0.00  0.00     0.107 C 
ENDROOT
BRANCH   1   7
HETATM    7  N   UNK N   1      27.499  18.071   5.690  0.00  0.00    -0.349 N 
HETATM    8  C   UNK N   1      27.861  17.061   6.512  0.00  0.00     0.268 C 
HETATM    9  O   UNK N   1      27.041  16.396   7.131  0.00  0.00    -0.266 OA
HETATM   10  H   UNK N   1      28.168  18.308   5.007  0.00  0.00     0.163 HD
BRANCH   8  11
HETATM   11  C   UNK N   1      29.293  16.855   6.697  0.00  0.00     0.102 A 
HETATM   12  N   UNK N   1      29.978  17.630   7.573  0.00  0.00    -0.351 N 
HETATM   13  C   UNK N   1      31.229  17.180   7.545  0.00  0.00     0.043 A 
HETATM   14  H   UNK N   1      29.624  18.371   8.116  0.00  0.00     0.166 HD
HETATM   15  C   UNK N   1      32.294  17.681   8.282  0.00  0.00     0.032 A 
HETATM   16  C   UNK N   1      31.363  16.146   6.663  0.00  0.00    -0.005 A 
HETATM   17  C   UNK N   1      33.555  17.108   8.069  0.00  0.00     0.026 A 
HETATM   18  C   UNK N   1      33.712  16.059   7.135  0.00  0.00     0.035 A 
HETATM   19 Cl   UNK N   1      35.311  15.421   6.829  0.00  0.00    -0.084 Cl
HETATM   20  C   UNK N   1      32.601  15.556   6.425  0.00  0.00     0.037 A 
HETATM   21  C   UNK N   1      30.117  15.894   6.115  0.00  0.00     0.049 A 
ENDBRANCH   8  11
ENDBRANCH   1   7
BRANCH   6  22
HETATM   22  N   UNK N   1      23.915  18.513   5.079  0.00  0.00    -0.349 N 
HETATM   23  C   UNK N   1      22.886  17.767   5.583  0.00  0.00     0.275 C 
HETATM   24  O   UNK N   1      21.795  18.305   5.677  0.00  0.00    -0.265 OA
HETATM   25  H   UNK N   1      23.709  19.457   4.887  0.00  0.00     0.163 HD
BRANCH  23  26
HETATM   26  C   UNK N   1      22.995  16.355   6.085  0.00  0.00     0.143 A 
HETATM   27  N   UNK N   1      24.112  15.689   6.506  0.00  0.00    -0.348 N 
HETATM   28  C   UNK N   1      23.822  14.405   6.937  0.00  0.00     0.026 A 
ATOM     29  HN  UNK N   1      25.050  16.090   6.503  1.00  0.00     0.166 HD
HETATM   30  C   UNK N   1      22.481  14.053   6.875  0.00  0.00     0.035 A 
HETATM   31  C   UNK N   1      24.853  13.434   7.419  0.00  0.00     0.088 C 
HETATM   32  S   UNK N   1      21.681  15.353   6.261  0.00  0.00    -0.068 SA
HETATM   33  C   UNK N   1      21.925  12.734   7.295  0.00  0.00     0.320 C 
HETATM   34  N   UNK N   1      22.969  11.701   7.362  0.00  0.00     0.089 N 
HETATM   35  C   UNK N   1      23.216  11.166   6.031  0.00  0.00     0.310 C 
HETATM   36  C   UNK N   1      24.222  12.146   8.007  0.00  0.00     0.278 C 
ENDBRANCH  23  26
ENDBRANCH   6  22
TORSDOF 4
ENDMDL
MODEL 6
REMARK VINA RESULT:      -7.7      6.492     10.317
REMARK  4 active torsions:
REMARK  status: ('A' for Active; 'I' for Inactive)
REMARK    1  A    between atoms: C_10  and  C_11 
REMARK       I    between atoms: C_11  and  N_13 
REMARK    2  A    between atoms: C_14  and  N_13 
REMARK    3  A    between atoms: C_19  and  N_20 
REMARK       I    between atoms: N_20  and  C_21 
REMARK    4  A    between atoms: C_21  and  C_23 
ROOT
HETATM    1  C   UNK N   1      25.392  17.054   4.882  0.00  0.00     0.107 C 
HETATM    2  C   UNK N   1      25.667  17.386   3.404  0.00  0.00     0.027 C 
HETATM    3  C   UNK N   1      26.354  16.249   2.647  0.00  0.00     0.002 C 
HETATM    4  C   UNK N   1      25.637  14.920   2.868  0.00  0.00     0.002 C 
HETATM    5  C   UNK N   1      25.568  14.593   4.361  0.00  0.00     0.027 C 
HETATM    6  C   UNK N   1      24.767  15.662   5.105  0.00  0.00     0.107 C 
ENDROOT
BRANCH   1   7
HETATM    7  N   UNK N   1      26.524  17.165   5.775  0.00  0.00    -0.349 N 
HETATM    8  C   UNK N   1      27.308  18.224   6.075  0.00  0.00     0.268 C 
HETATM    9  O   UNK N   1      26.937  19.379   5.909  0.00  0.00    -0.266 OA
HETATM   10  H   UNK N   1      26.763  16.330   6.240  0.00  0.00     0.163 HD
BRANCH   8  11
HETATM   11  C   UNK N   1      28.662  17.925   6.527  0.00  0.00     0.102 A 
HETATM   12  N   UNK N   1      29.582  17.467   5.643  0.00  0.00    -0.351 N 
HETATM   13  C   UNK N   1      30.707  17.329   6.338  0.00  0.00     0.043 A 
HETATM   14  H   UNK N   1      29.446  17.278   4.686  0.00  0.00     0.166 HD
HETATM   15  C   UNK N   1      31.923  16.875   5.844  0.00  0.00     0.032 A 
HETATM   16  C   UNK N   1      30.525  17.673   7.647  0.00  0.00    -0.005 A 
HETATM   17  C   UNK N   1      32.982  16.742   6.752  0.00  0.00     0.026 A 
HETATM   18  C   UNK N   1      32.796  17.064   8.115  0.00  0.00     0.035 A 
HETATM   19 Cl   UNK N   1      34.109  16.807   9.240  0.00  0.00    -0.084 Cl
HETATM   20  C   UNK N   1      31.553  17.550   8.576  0.00  0.00     0.037 A 
HETATM   21  C   UNK N   1      29.212  18.090   7.796  0.00  0.00     0.049 A 
ENDBRANCH   8  11
ENDBRANCH   1   7
BRANCH   6  22
HETATM   22  N   UNK N   1      23.391  15.629   4.661  0.00  0.00    -0.349 N 
HETATM   23  C   UNK N   1      22.347  14.929   5.199  0.00  0.00     0.275 C 
HETATM   24  O   UNK N   1      21.277  14.981   4.616  0.00  0.00    -0.265 OA
HETATM   25  H   UNK N   1      23.180  16.179   3.872  0.00  0.00     0.163 HD
BRANCH  23  26
HETATM   26  C   UNK N   1      22.389  14.143   6.479  0.00  0.00     0.143 A 
HETATM   27  N   UNK N   1      21.805  14.442   7.678  0.00  0.00    -0.348 N 
HETATM   28  C   UNK N   1      22.029  13.459   8.627  0.00  0.00     0.026 A 
ATOM     29  HN  UNK N   1      21.266  15.290   7.853  1.00  0.00     0.166 HD
HETATM   30  C   UNK N   1      22.775  12.375   8.187  0.00  0.00     0.035 A 
HETATM   31  C   UNK N   1      21.538  13.536  10.038  0.00  0.00     0.088 C 
HETATM   32  S   UNK N   1      23.159  12.676   6.616  0.00  0.00    -0.068 SA
HETATM   33  C   UNK N   1      23.133  11.191   9.021  0.00  0.00     0.320 C 
HETATM   34  N   UNK N   1      23.004  11.479  10.456  0.00  0.00     0.089 N 
HETATM   35  C   UNK N   1      24.199  12.164  10.928  0.00  0.00     0.310 C 
HETATM   36  C   UNK N   1      21.777  12.218  10.819  0.00  0.00     0.278 C 
ENDBRANCH  23  26
ENDBRANCH   6  22
TORSDOF 4
ENDMDL
MODEL 7
REMARK VINA RESULT:      -7.6      3.681      4.765
REMARK  4 active torsions:
REMARK  status: ('A' for Active; 'I' for Inactive)
REMARK    1  A    between atoms: C_10  and  C_11 
REMARK       I    between atoms: C_11  and  N_13 
REMARK    2  A    between atoms: C_14  and  N_13 
REMARK    3  A    between atoms: C_19  and  N_20 
REMARK       I    between atoms: N_20  and  C_21 
REMARK    4  A    between atoms: C_21  and  C_23 
ROOT
HETATM    1  C   UNK N   1      35.526  13.537  11.497  0.00  0.00     0.107 C 
HETATM    2  C   UNK N   1      37.031  13.258  11.674  0.00  0.00     0.027 C 
HETATM    3  C   UNK N   1      37.716  12.799  10.387  0.00  0.00     0.002 C 
HETATM    4  C   UNK N   1      37.382  13.724   9.219  0.00  0.00     0.002 C 
HETATM    5  C   UNK N   1      35.868  13.798   9.013  0.00  0.00     0.027 C 
HETATM    6  C   UNK N   1      35.188  14.381  10.253  0.00  0.00     0.107 C 
ENDROOT
BRANCH   1   7
HETATM    7  N   UNK N   1      34.668  12.373  11.474  0.00  0.00    -0.349 N 
HETATM    8  C   UNK N   1      34.641  11.283  12.272  0.00  0.00     0.268 C 
HETATM    9  O   UNK N   1      35.117  11.287  13.401  0.00  0.00    -0.266 OA
HETATM   10  H   UNK N   1      33.992  12.376  10.757  0.00  0.00     0.163 HD
BRANCH   8  11
HETATM   11  C   UNK N   1      34.094  10.063  11.690  0.00  0.00     0.102 A 
HETATM   12  N   UNK N   1      32.991  10.127  10.904  0.00  0.00    -0.351 N 
HETATM   13  C   UNK N   1      32.766   8.880  10.502  0.00  0.00     0.043 A 
HETATM   14  H   UNK N   1      32.467  10.929  10.676  0.00  0.00     0.166 HD
HETATM   15  C   UNK N   1      31.729   8.460   9.679  0.00  0.00     0.032 A 
HETATM   16  C   UNK N   1      33.689   8.018  11.024  0.00  0.00    -0.005 A 
HETATM   17  C   UNK N   1      31.626   7.088   9.416  0.00  0.00     0.026 A 
HETATM   18  C   UNK N   1      32.555   6.183   9.977  0.00  0.00     0.035 A 
HETATM   19 Cl   UNK N   1      32.352   4.469   9.700  0.00  0.00    -0.084 Cl
HETATM   20  C   UNK N   1      33.614   6.649  10.786  0.00  0.00     0.037 A 
HETATM   21  C   UNK N   1      34.580   8.761  11.780  0.00  0.00     0.049 A 
ENDBRANCH   8  11
ENDBRANCH   1   7
BRANCH   6  22
HETATM   22  N   UNK N   1      35.600  15.756  10.425  0.00  0.00    -0.349 N 
HETATM   23  C   UNK N   1      35.113  16.868   9.796  0.00  0.00     0.275 C 
HETATM   24  O   UNK N   1      35.662  17.932  10.033  0.00  0.00    -0.265 OA
HETATM   25  H   UNK N   1      36.322  15.911  11.077  0.00  0.00     0.163 HD
BRANCH  23  26
HETATM   26  C   UNK N   1      33.924  16.903   8.878  0.00  0.00     0.143 A 
HETATM   27  N   UNK N   1      32.602  17.008   9.207  0.00  0.00    -0.348 N 
HETATM   28  C   UNK N   1      31.787  17.047   8.088  0.00  0.00     0.026 A 
ATOM     29  HN  UNK N   1      32.255  17.052  10.166  1.00  0.00     0.166 HD
HETATM   30  C   UNK N   1      32.455  16.989   6.873  0.00  0.00     0.035 A 
HETATM   31  C   UNK N   1      30.294  17.125   8.145  0.00  0.00     0.088 C 
HETATM   32  S   UNK N   1      34.058  16.869   7.222  0.00  0.00    -0.068 SA
HETATM   33  C   UNK N   1      31.796  17.029   5.535  0.00  0.00     0.320 C 
HETATM   34  N   UNK N   1      30.368  16.693   5.623  0.00  0.00     0.089 N 
HETATM   35  C   UNK N   1      30.205  15.246   5.652  0.00  0.00     0.310 C 
HETATM   36  C   UNK N   1      29.660  17.339   6.747  0.00  0.00     0.278 C 
ENDBRANCH  23  26
ENDBRANCH   6  22
TORSDOF 4
ENDMDL
MODEL 8
REMARK VINA RESULT:      -7.6     10.195     14.043
REMARK  4 active torsions:
REMARK  status: ('A' for Active; 'I' for Inactive)
REMARK    1  A    between atoms: C_10  and  C_11 
REMARK       I    between atoms: C_11  and  N_13 
REMARK    2  A    between atoms: C_14  and  N_13 
REMARK    3  A    between atoms: C_19  and  N_20 
REMARK       I    between atoms: N_20  and  C_21 
REMARK    4  A    between atoms: C_21  and  C_23 
ROOT
HETATM    1  C   UNK N   1      20.694  16.257   3.339  0.00  0.00     0.107 C 
HETATM    2  C   UNK N   1      19.772  17.229   2.580  0.00  0.00     0.027 C 
HETATM    3  C   UNK N   1      19.940  17.158   1.062  0.00  0.00     0.002 C 
HETATM    4  C   UNK N   1      19.880  15.717   0.562  0.00  0.00     0.002 C 
HETATM    5  C   UNK N   1      20.951  14.869   1.250  0.00  0.00     0.027 C 
HETATM    6  C   UNK N   1      20.712  14.829   2.760  0.00  0.00     0.107 C 
ENDROOT
BRANCH   1   7
HETATM    7  N   UNK N   1      22.069  16.678   3.487  0.00  0.00    -0.349 N 
HETATM    8  C   UNK N   1      23.036  16.250   4.329  0.00  0.00     0.268 C 
HETATM    9  O   UNK N   1      22.996  15.149   4.864  0.00  0.00    -0.266 OA
HETATM   10  H   UNK N   1      22.347  17.396   2.872  0.00  0.00     0.163 HD
BRANCH   8  11
HETATM   11  C   UNK N   1      24.093  17.202   4.645  0.00  0.00     0.102 A 
HETATM   12  N   UNK N   1      25.382  16.785   4.701  0.00  0.00    -0.351 N 
HETATM   13  C   UNK N   1      26.098  17.874   4.967  0.00  0.00     0.043 A 
HETATM   14  H   UNK N   1      25.718  15.869   4.572  0.00  0.00     0.166 HD
HETATM   15  C   UNK N   1      27.477  17.927   5.123  0.00  0.00     0.032 A 
HETATM   16  C   UNK N   1      25.298  18.973   5.095  0.00  0.00    -0.005 A 
HETATM   17  C   UNK N   1      28.044  19.163   5.460  0.00  0.00     0.026 A 
HETATM   18  C   UNK N   1      27.223  20.301   5.627  0.00  0.00     0.035 A 
HETATM   19 Cl   UNK N   1      27.947  21.811   6.130  0.00  0.00    -0.084 Cl
HETATM   20  C   UNK N   1      25.827  20.216   5.432  0.00  0.00     0.037 A 
HETATM   21  C   UNK N   1      23.992  18.574   4.866  0.00  0.00     0.049 A 
ENDBRANCH   8  11
ENDBRANCH   1   7
BRANCH   6  22
HETATM   22  N   UNK N   1      19.471  14.138   3.031  0.00  0.00    -0.349 N 
HETATM   23  C   UNK N   1      19.127  13.425   4.147  0.00  0.00     0.275 C 
HETATM   24  O   UNK N   1      18.051  12.851   4.137  0.00  0.00    -0.265 OA
HETATM   25  H   UNK N   1      18.787  14.186   2.324  0.00  0.00     0.163 HD
BRANCH  23  26
HETATM   26  C   UNK N   1      19.938  13.332   5.408  0.00  0.00     0.143 A 
HETATM   27  N   UNK N   1      20.101  14.275   6.384  0.00  0.00    -0.348 N 
HETATM   28  C   UNK N   1      20.894  13.818   7.423  0.00  0.00     0.026 A 
ATOM     29  HN  UNK N   1      19.687  15.207   6.350  1.00  0.00     0.166 HD
HETATM   30  C   UNK N   1      21.350  12.515   7.287  0.00  0.00     0.035 A 
HETATM   31  C   UNK N   1      21.270  14.647   8.611  0.00  0.00     0.088 C 
HETATM   32  S   UNK N   1      20.767  11.961   5.852  0.00  0.00    -0.068 SA
HETATM   33  C   UNK N   1      22.205  11.802   8.280  0.00  0.00     0.320 C 
HETATM   34  N   UNK N   1      22.878  12.740   9.190  0.00  0.00     0.089 N 
HETATM   35  C   UNK N   1      24.073  13.271   8.552  0.00  0.00     0.310 C 
HETATM   36  C   UNK N   1      22.008  13.822   9.696  0.00  0.00     0.278 C 
ENDBRANCH  23  26
ENDBRANCH   6  22
TORSDOF 4
ENDMDL
MODEL 9
REMARK VINA RESULT:      -7.5      5.563     10.011
REMARK  4 active torsions:
REMARK  status: ('A' for Active; 'I' for Inactive)
REMARK    1  A    between atoms: C_10  and  C_11 
REMARK       I    between atoms: C_11  and  N_13 
REMARK    2  A    between atoms: C_14  and  N_13 
REMARK    3  A    between atoms: C_19  and  N_20 
REMARK       I    between atoms: N_20  and  C_21 
REMARK    4  A    between atoms: C_21  and  C_23 
ROOT
HETATM    1  C   UNK N   1      25.960  14.855   4.481  0.00  0.00     0.107 C 
HETATM    2  C   UNK N   1      24.974  15.934   3.994  0.00  0.00     0.027 C 
HETATM    3  C   UNK N   1      24.913  17.155   4.913  0.00  0.00     0.002 C 
HETATM    4  C   UNK N   1      26.310  17.680   5.233  0.00  0.00     0.002 C 
HETATM    5  C   UNK N   1      27.160  16.581   5.874  0.00  0.00     0.027 C 
HETATM    6  C   UNK N   1      27.334  15.409   4.907  0.00  0.00     0.107 C 
ENDROOT
BRANCH   1   7
HETATM    7  N   UNK N   1      25.487  14.007   5.552  0.00  0.00    -0.349 N 
HETATM    8  C   UNK N   1      24.284  13.422   5.747  0.00  0.00     0.268 C 
HETATM    9  O   UNK N   1      23.501  13.216   4.828  0.00  0.00    -0.266 OA
HETATM   10  H   UNK N   1      26.152  13.826   6.256  0.00  0.00     0.163 HD
BRANCH   8  11
HETATM   11  C   UNK N   1      23.920  13.125   7.127  0.00  0.00     0.102 A 
HETATM   12  N   UNK N   1      22.613  13.063   7.482  0.00  0.00    -0.351 N 
HETATM   13  C   UNK N   1      22.608  12.741   8.772  0.00  0.00     0.043 A 
HETATM   14  H   UNK N   1      21.831  13.222   6.905  0.00  0.00     0.166 HD
HETATM   15  C   UNK N   1      21.483  12.573   9.569  0.00  0.00     0.032 A 
HETATM   16  C   UNK N   1      23.880  12.610   9.254  0.00  0.00    -0.005 A 
HETATM   17  C   UNK N   1      21.687  12.292  10.926  0.00  0.00     0.026 A 
HETATM   18  C   UNK N   1      22.998  12.186  11.443  0.00  0.00     0.035 A 
HETATM   19 Cl   UNK N   1      23.221  11.918  13.156  0.00  0.00    -0.084 Cl
HETATM   20  C   UNK N   1      24.118  12.334  10.597  0.00  0.00     0.037 A 
HETATM   21  C   UNK N   1      24.755  12.828   8.203  0.00  0.00     0.049 A 
ENDBRANCH   8  11
ENDBRANCH   1   7
BRANCH   6  22
HETATM   22  N   UNK N   1      28.102  15.841   3.761  0.00  0.00    -0.349 N 
HETATM   23  C   UNK N   1      29.417  16.213   3.718  0.00  0.00     0.275 C 
HETATM   24  O   UNK N   1      29.850  16.623   2.653  0.00  0.00    -0.265 OA
HETATM   25  H   UNK N   1      27.617  15.873   2.904  0.00  0.00     0.163 HD
BRANCH  23  26
HETATM   26  C   UNK N   1      30.392  16.110   4.856  0.00  0.00     0.143 A 
HETATM   27  N   UNK N   1      30.943  17.119   5.595  0.00  0.00    -0.348 N 
HETATM   28  C   UNK N   1      31.776  16.640   6.592  0.00  0.00     0.026 A 
ATOM     29  HN  UNK N   1      30.761  18.109   5.431  1.00  0.00     0.166 HD
HETATM   30  C   UNK N   1      31.880  15.258   6.659  0.00  0.00     0.035 A 
HETATM   31  C   UNK N   1      32.541  17.518   7.532  0.00  0.00     0.088 C 
HETATM   32  S   UNK N   1      30.938  14.657   5.452  0.00  0.00    -0.068 SA
HETATM   33  C   UNK N   1      32.703  14.512   7.655  0.00  0.00     0.320 C 
HETATM   34  N   UNK N   1      33.728  15.371   8.265  0.00  0.00     0.089 N 
HETATM   35  C   UNK N   1      34.883  15.458   7.384  0.00  0.00     0.310 C 
HETATM   36  C   UNK N   1      33.243  16.711   8.654  0.00  0.00     0.278 C 
ENDBRANCH  23  26
ENDBRANCH   6  22
TORSDOF 4
ENDMDL
