MODEL 1
REMARK VINA RESULT:      -8.2      0.000      0.000
REMARK  4 active torsions:
REMARK  status: ('A' for Active; 'I' for Inactive)
REMARK    1  A    between atoms: C_10  and  C_11 
REMARK       I    between atoms: C_11  and  N_13 
REMARK    2  A    between atoms: C_14  and  N_13 
REMARK    3  A    between atoms: C_19  and  N_20 
REMARK       I    between atoms: N_20  and  C_21 
REMARK    4  A    between atoms: C_21  and  C_23 
ROOT
HETATM    1  C   UNK N   1      24.000  18.086   4.280  0.00  0.00     0.107 C 
HETATM    2  C   UNK N   1      22.689  18.851   4.071  0.00  0.00     0.027 C 
HETATM    3  C   UNK N   1      22.847  19.830   2.902  0.00  0.00     0.002 C 
HETATM    4  C   UNK N   1      24.030  20.781   3.117  0.00  0.00     0.002 C 
HETATM    5  C   UNK N   1      25.325  20.013   3.399  0.00  0.00     0.027 C 
HETATM    6  C   UNK N   1      25.128  19.100   4.606  0.00  0.00     0.107 C 
ENDROOT
BRANCH   1   7
HETATM    7  N   UNK N   1      23.966  17.078   5.319  0.00  0.00    -0.349 N 
HETATM    8  C   UNK N   1      23.961  15.723   5.272  0.00  0.00     0.268 C 
HETATM    9  O   UNK N   1      24.031  15.116   4.216  0.00  0.00    -0.266 OA
HETATM   10  H   UNK N   1      23.944  17.446   6.232  0.00  0.00     0.163 HD
BRANCH   8  11
HETATM   11  C   UNK N   1      23.763  15.017   6.548  0.00  0.00     0.102 A 
HETATM   12  N   UNK N   1      24.730  14.385   7.260  0.00  0.00    -0.351 N 
HETATM   13  C   UNK N   1      24.079  13.811   8.290  0.00  0.00     0.043 A 
HETATM   14  H   UNK N   1      25.695  14.354   7.067  0.00  0.00     0.166 HD
HETATM   15  C   UNK N   1      24.623  13.027   9.306  0.00  0.00     0.032 A 
HETATM   16  C   UNK N   1      22.739  14.073   8.232  0.00  0.00    -0.005 A 
HETATM   17  C   UNK N   1      23.740  12.505  10.274  0.00  0.00     0.026 A 
HETATM   18  C   UNK N   1      22.353  12.780  10.204  0.00  0.00     0.035 A 
HETATM   19 Cl   UNK N   1      21.263  12.119  11.403  0.00  0.00    -0.084 Cl
HETATM   20  C   UNK N   1      21.841  13.576   9.168  0.00  0.00     0.037 A 
HETATM   21  C   UNK N   1      22.508  14.843   7.128  0.00  0.00     0.049 A 
ENDBRANCH   8  11
ENDBRANCH   1   7
BRANCH   6  22
HETATM   22  N   UNK N   1      26.372  18.424   4.964  0.00  0.00    -0.349 N 
HETATM   23  C   UNK N   1      27.204  18.941   5.916  0.00  0.00     0.275 C 
HETATM   24  O   UNK N   1      26.954  20.025   6.427  0.00  0.00    -0.265 OA
HETATM   25  H   UNK N   1      26.614  17.583   4.513  0.00  0.00     0.163 HD
BRANCH  23  26
HETATM   26  C   UNK N   1      28.410  18.229   6.363  0.00  0.00     0.143 A 
HETATM   27  N   UNK N   1      29.381  17.709   5.561  0.00  0.00    -0.348 N 
HETATM   28  C   UNK N   1      30.391  17.129   6.307  0.00  0.00     0.026 A 
ATOM     29  HN  UNK N   1      29.366  17.744   4.542  1.00  0.00     0.166 HD
HETATM   30  C   UNK N   1      30.212  17.180   7.688  0.00  0.00     0.035 A 
HETATM   31  C   UNK N   1      31.627  16.521   5.714  0.00  0.00     0.088 C 
HETATM   32  S   UNK N   1      28.799  17.963   7.955  0.00  0.00    -0.068 SA
HETATM   33  C   UNK N   1      31.204  16.660   8.668  0.00  0.00     0.320 C 
HETATM   34  N   UNK N   1      32.529  16.665   8.042  0.00  0.00     0.089 N 
HETATM   35  C   UNK N   1      33.441  16.022   8.969  0.00  0.00     0.310 C 
HETATM   36  C   UNK N   1      32.504  15.866   6.808  0.00  0.00     0.278 C 
ENDBRANCH  23  26
ENDBRANCH   6  22
TORSDOF 4
ENDMDL
MODEL 2
REMARK VINA RESULT:      -8.1      1.186      1.574
REMARK  4 active torsions:
REMARK  status: ('A' for Active; 'I' for Inactive)
REMARK    1  A    between atoms: C_10  and  C_11 
REMARK       I    between atoms: C_11  and  N_13 
REMARK    2  A    between atoms: C_14  and  N_13 
REMARK    3  A    between atoms: C_19  and  N_20 
REMARK       I    between atoms: N_20  and  C_21 
REMARK    4  A    between atoms: C_21  and  C_23 
ROOT
HETATM    1  C   UNK N   1      22.807  17.858   4.332  0.00  0.00     0.107 C 
HETATM    2  C   UNK N   1      21.448  18.533   4.120  0.00  0.00     0.027 C 
HETATM    3  C   UNK N   1      21.510  19.433   2.880  0.00  0.00     0.002 C 
HETATM    4  C   UNK N   1      22.643  20.461   2.984  0.00  0.00     0.002 C 
HETATM    5  C   UNK N   1      23.989  19.788   3.270  0.00  0.00     0.027 C 
HETATM    6  C   UNK N   1      23.885  18.953   4.544  0.00  0.00     0.107 C 
ENDROOT
BRANCH   1   7
HETATM    7  N   UNK N   1      22.866  16.927   5.439  0.00  0.00    -0.349 N 
HETATM    8  C   UNK N   1      23.462  15.717   5.580  0.00  0.00     0.268 C 
HETATM    9  O   UNK N   1      24.137  15.225   4.690  0.00  0.00    -0.266 OA
HETATM   10  H   UNK N   1      22.383  17.230   6.242  0.00  0.00     0.163 HD
BRANCH   8  11
HETATM   11  C   UNK N   1      23.173  14.977   6.818  0.00  0.00     0.102 A 
HETATM   12  N   UNK N   1      24.036  14.154   7.467  0.00  0.00    -0.351 N 
HETATM   13  C   UNK N   1      23.318  13.632   8.480  0.00  0.00     0.043 A 
HETATM   14  H   UNK N   1      24.979  13.979   7.246  0.00  0.00     0.166 HD
HETATM   15  C   UNK N   1      23.743  12.710   9.434  0.00  0.00     0.032 A 
HETATM   16  C   UNK N   1      22.038  14.111   8.473  0.00  0.00    -0.005 A 
HETATM   17  C   UNK N   1      22.804  12.281  10.395  0.00  0.00     0.026 A 
HETATM   18  C   UNK N   1      21.479  12.781  10.378  0.00  0.00     0.035 A 
HETATM   19 Cl   UNK N   1      20.317  12.235  11.566  0.00  0.00    -0.084 Cl
HETATM   20  C   UNK N   1      21.087  13.711   9.403  0.00  0.00     0.037 A 
HETATM   21  C   UNK N   1      21.917  14.974   7.422  0.00  0.00     0.049 A 
ENDBRANCH   8  11
ENDBRANCH   1   7
BRANCH   6  22
HETATM   22  N   UNK N   1      25.177  18.374   4.902  0.00  0.00    -0.349 N 
HETATM   23  C   UNK N   1      26.150  19.134   5.488  0.00  0.00     0.275 C 
HETATM   24  O   UNK N   1      25.978  20.335   5.648  0.00  0.00    -0.265 OA
HETATM   25  H   UNK N   1      25.349  17.423   4.719  0.00  0.00     0.163 HD
BRANCH  23  26
HETATM   26  C   UNK N   1      27.419  18.551   5.945  0.00  0.00     0.143 A 
HETATM   27  N   UNK N   1      27.841  18.453   7.237  0.00  0.00    -0.348 N 
HETATM   28  C   UNK N   1      29.070  17.826   7.319  0.00  0.00     0.026 A 
ATOM     29  HN  UNK N   1      27.315  18.797   8.042  1.00  0.00     0.166 HD
HETATM   30  C   UNK N   1      29.622  17.443   6.098  0.00  0.00     0.035 A 
HETATM   31  C   UNK N   1      29.771  17.519   8.608  0.00  0.00     0.088 C 
HETATM   32  S   UNK N   1      28.555  17.882   4.936  0.00  0.00    -0.068 SA
HETATM   33  C   UNK N   1      30.911  16.710   5.968  0.00  0.00     0.320 C 
HETATM   34  N   UNK N   1      31.163  15.979   7.213  0.00  0.00     0.089 N 
HETATM   35  C   UNK N   1      32.487  15.397   7.107  0.00  0.00     0.310 C 
HETATM   36  C   UNK N   1      31.171  16.912   8.350  0.00  0.00     0.278 C 
ENDBRANCH  23  26
ENDBRANCH   6  22
TORSDOF 4
ENDMDL
MODEL 3
REMARK VINA RESULT:      -8.1      3.210      7.328
REMARK  4 active torsions:
REMARK  status: ('A' for Active; 'I' for Inactive)
REMARK    1  A    between atoms: C_10  and  C_11 
REMARK       I    between atoms: C_11  and  N_13 
REMARK    2  A    between atoms: C_14  and  N_13 
REMARK    3  A    between atoms: C_19  and  N_20 
REMARK       I    between atoms: N_20  and  C_21 
REMARK    4  A    between atoms: C_21  and  C_23 
ROOT
HETATM    1  C   UNK N   1      23.588  19.323   4.398  0.00  0.00     0.107 C 
HETATM    2  C   UNK N   1      23.602  20.086   3.069  0.00  0.00     0.027 C 
HETATM    3  C   UNK N   1      22.177  20.528   2.716  0.00  0.00     0.002 C 
HETATM    4  C   UNK N   1      21.210  19.338   2.676  0.00  0.00     0.002 C 
HETATM    5  C   UNK N   1      21.253  18.535   3.980  0.00  0.00     0.027 C 
HETATM    6  C   UNK N   1      22.682  18.073   4.251  0.00  0.00     0.107 C 
ENDROOT
BRANCH   1   7
HETATM    7  N   UNK N   1      24.886  18.903   4.881  0.00  0.00    -0.349 N 
HETATM    8  C   UNK N   1      25.964  19.601   5.320  0.00  0.00     0.268 C 
HETATM    9  O   UNK N   1      25.949  20.818   5.406  0.00  0.00    -0.266 OA
HETATM   10  H   UNK N   1      25.011  17.926   4.895  0.00  0.00     0.163 HD
BRANCH   8  11
HETATM   11  C   UNK N   1      27.187  18.829   5.591  0.00  0.00     0.102 A 
HETATM   12  N   UNK N   1      27.556  18.331   6.798  0.00  0.00    -0.351 N 
HETATM   13  C   UNK N   1      28.771  17.789   6.590  0.00  0.00     0.043 A 
HETATM   14  H   UNK N   1      27.047  18.359   7.640  0.00  0.00     0.166 HD
HETATM   15  C   UNK N   1      29.592  17.161   7.525  0.00  0.00     0.032 A 
HETATM   16  C   UNK N   1      29.160  17.939   5.288  0.00  0.00    -0.005 A 
HETATM   17  C   UNK N   1      30.845  16.687   7.083  0.00  0.00     0.026 A 
HETATM   18  C   UNK N   1      31.239  16.850   5.733  0.00  0.00     0.035 A 
HETATM   19 Cl   UNK N   1      32.801  16.270   5.196  0.00  0.00    -0.084 Cl
HETATM   20  C   UNK N   1      30.386  17.486   4.818  0.00  0.00     0.037 A 
HETATM   21  C   UNK N   1      28.165  18.600   4.625  0.00  0.00     0.049 A 
ENDBRANCH   8  11
ENDBRANCH   1   7
BRANCH   6  22
HETATM   22  N   UNK N   1      22.745  17.221   5.435  0.00  0.00    -0.349 N 
HETATM   23  C   UNK N   1      22.703  15.859   5.325  0.00  0.00     0.275 C 
HETATM   24  O   UNK N   1      22.531  15.337   4.232  0.00  0.00    -0.265 OA
HETATM   25  H   UNK N   1      22.820  17.633   6.326  0.00  0.00     0.163 HD
BRANCH  23  26
HETATM   26  C   UNK N   1      22.863  14.981   6.493  0.00  0.00     0.143 A 
HETATM   27  N   UNK N   1      24.039  14.494   6.979  0.00  0.00    -0.348 N 
HETATM   28  C   UNK N   1      23.835  13.720   8.106  0.00  0.00     0.026 A 
ATOM     29  HN  UNK N   1      24.953  14.678   6.564  1.00  0.00     0.166 HD
HETATM   30  C   UNK N   1      22.505  13.587   8.502  0.00  0.00     0.035 A 
HETATM   31  C   UNK N   1      24.940  13.093   8.903  0.00  0.00     0.088 C 
HETATM   32  S   UNK N   1      21.606  14.452   7.440  0.00  0.00    -0.068 SA
HETATM   33  C   UNK N   1      22.076  12.841   9.715  0.00  0.00     0.320 C 
HETATM   34  N   UNK N   1      23.190  12.813  10.668  0.00  0.00     0.089 N 
HETATM   35  C   UNK N   1      22.788  11.960  11.770  0.00  0.00     0.310 C 
HETATM   36  C   UNK N   1      24.373  12.207  10.038  0.00  0.00     0.278 C 
ENDBRANCH  23  26
ENDBRANCH   6  22
TORSDOF 4
ENDMDL
MODEL 4
REMARK VINA RESULT:      -8.0      8.933     11.558
REMARK  4 active torsions:
REMARK  status: ('A' for Active; 'I' for Inactive)
REMARK    1  A    between atoms: C_10  and  C_11 
REMARK       I    between atoms: C_11  and  N_13 
REMARK    2  A    between atoms: C_14  and  N_13 
REMARK    3  A    between atoms: C_19  and  N_20 
REMARK       I    between atoms: N_20  and  C_21 
REMARK    4  A    between atoms: C_21  and  C_23 
ROOT
HETATM    1  C   UNK N   1      33.848  16.298   9.145  0.00  0.00     0.107 C 
HETATM    2  C   UNK N   1      34.531  17.627   8.808  0.00  0.00     0.027 C 
HETATM    3  C   UNK N   1      33.946  18.190   7.507  0.00  0.00     0.002 C 
HETATM    4  C   UNK N   1      34.062  17.185   6.355  0.00  0.00     0.002 C 
HETATM    5  C   UNK N   1      33.443  15.833   6.722  0.00  0.00     0.027 C 
HETATM    6  C   UNK N   1      34.101  15.295   7.989  0.00  0.00     0.107 C 
ENDROOT
BRANCH   1   7
HETATM    7  N   UNK N   1      34.265  15.688  10.390  0.00  0.00    -0.349 N 
HETATM    8  C   UNK N   1      35.448  15.692  11.053  0.00  0.00     0.268 C 
HETATM    9  O   UNK N   1      36.412  16.320  10.646  0.00  0.00    -0.266 OA
HETATM   10  H   UNK N   1      33.555  15.176  10.841  0.00  0.00     0.163 HD
BRANCH   8  11
HETATM   11  C   UNK N   1      35.547  14.819  12.234  0.00  0.00     0.102 A 
HETATM   12  N   UNK N   1      36.392  14.999  13.281  0.00  0.00    -0.351 N 
HETATM   13  C   UNK N   1      36.200  13.922  14.067  0.00  0.00     0.043 A 
HETATM   14  H   UNK N   1      37.008  15.751  13.433  0.00  0.00     0.166 HD
HETATM   15  C   UNK N   1      36.846  13.619  15.264  0.00  0.00     0.032 A 
HETATM   16  C   UNK N   1      35.260  13.085  13.533  0.00  0.00    -0.005 A 
HETATM   17  C   UNK N   1      36.499  12.413  15.908  0.00  0.00     0.026 A 
HETATM   18  C   UNK N   1      35.527  11.552  15.346  0.00  0.00     0.035 A 
HETATM   19 Cl   UNK N   1      35.112  10.052  16.146  0.00  0.00    -0.084 Cl
HETATM   20  C   UNK N   1      34.895  11.890  14.139  0.00  0.00     0.037 A 
HETATM   21  C   UNK N   1      34.824  13.634  12.361  0.00  0.00     0.049 A 
ENDBRANCH   8  11
ENDBRANCH   1   7
BRANCH   6  22
HETATM   22  N   UNK N   1      33.604  13.961   8.316  0.00  0.00    -0.349 N 
HETATM   23  C   UNK N   1      34.458  12.966   8.701  0.00  0.00     0.275 C 
HETATM   24  O   UNK N   1      35.666  13.161   8.701  0.00  0.00    -0.265 OA
HETATM   25  H   UNK N   1      32.639  13.776   8.258  0.00  0.00     0.163 HD
BRANCH  23  26
HETATM   26  C   UNK N   1      33.971  11.648   9.129  0.00  0.00     0.143 A 
HETATM   27  N   UNK N   1      32.795  11.066   8.762  0.00  0.00    -0.348 N 
HETATM   28  C   UNK N   1      32.659   9.809   9.323  0.00  0.00     0.026 A 
ATOM     29  HN  UNK N   1      32.104  11.500   8.150  1.00  0.00     0.166 HD
HETATM   30  C   UNK N   1      33.716   9.406  10.138  0.00  0.00     0.035 A 
HETATM   31  C   UNK N   1      31.500   8.895   9.061  0.00  0.00     0.088 C 
HETATM   32  S   UNK N   1      34.810  10.625  10.132  0.00  0.00    -0.068 SA
HETATM   33  C   UNK N   1      33.790   8.073  10.794  0.00  0.00     0.320 C 
HETATM   34  N   UNK N   1      32.981   7.125  10.023  0.00  0.00     0.089 N 
HETATM   35  C   UNK N   1      32.959   5.879  10.766  0.00  0.00     0.310 C 
HETATM   36  C   UNK N   1      31.597   7.612   9.921  0.00  0.00     0.278 C 
ENDBRANCH  23  26
ENDBRANCH   6  22
TORSDOF 4
ENDMDL
MODEL 5
REMARK VINA RESULT:      -7.8     10.014     14.115
REMARK  4 active torsions:
REMARK  status: ('A' for Active; 'I' for Inactive)
REMARK    1  A    between atoms: C_10  and  C_11 
REMARK       I    between atoms: C_11  and  N_13 
REMARK    2  A    between atoms: C_14  and  N_13 
REMARK    3  A    between atoms: C_19  and  N_20 
REMARK       I    between atoms: N_20  and  C_21 
REMARK    4  A    between atoms: C_21  and  C_23 
ROOT
HETATM    1  C   UNK N   1      35.582  12.676  16.245  0.00  0.00     0.107 C 
HETATM    2  C   UNK N   1      35.090  13.509  17.434  0.00  0.00     0.027 C 
HETATM    3  C   UNK N   1      35.527  12.842  18.743  0.00  0.00     0.002 C 
HETATM    4  C   UNK N   1      35.038  11.391  18.828  0.00  0.00     0.002 C 
HETATM    5  C   UNK N   1      35.469  10.580  17.601  0.00  0.00     0.027 C 
HETATM    6  C   UNK N   1      34.960  11.258  16.333  0.00  0.00     0.107 C 
ENDROOT
BRANCH   1   7
HETATM    7  N   UNK N   1      35.290  13.232  14.940  0.00  0.00    -0.349 N 
HETATM    8  C   UNK N   1      35.980  13.225  13.773  0.00  0.00     0.268 C 
HETATM    9  O   UNK N   1      37.046  12.640  13.660  0.00  0.00    -0.266 OA
HETATM   10  H   UNK N   1      34.428  13.705  14.891  0.00  0.00     0.163 HD
BRANCH   8  11
HETATM   11  C   UNK N   1      35.434  14.039  12.676  0.00  0.00     0.102 A 
HETATM   12  N   UNK N   1      34.450  13.658  11.823  0.00  0.00    -0.351 N 
HETATM   13  C   UNK N   1      34.347  14.671  10.941  0.00  0.00     0.043 A 
HETATM   14  H   UNK N   1      33.925  12.826  11.845  0.00  0.00     0.166 HD
HETATM   15  C   UNK N   1      33.488  14.761   9.848  0.00  0.00     0.032 A 
HETATM   16  C   UNK N   1      35.242  15.665  11.227  0.00  0.00    -0.005 A 
HETATM   17  C   UNK N   1      33.574  15.914   9.040  0.00  0.00     0.026 A 
HETATM   18  C   UNK N   1      34.506  16.936   9.343  0.00  0.00     0.035 A 
HETATM   19 Cl   UNK N   1      34.615  18.358   8.329  0.00  0.00    -0.084 Cl
HETATM   20  C   UNK N   1      35.354  16.812  10.454  0.00  0.00     0.037 A 
HETATM   21  C   UNK N   1      35.950  15.288  12.333  0.00  0.00     0.049 A 
ENDBRANCH   8  11
ENDBRANCH   1   7
BRANCH   6  22
HETATM   22  N   UNK N   1      35.268  10.461  15.149  0.00  0.00    -0.349 N 
HETATM   23  C   UNK N   1      34.351  10.304  14.148  0.00  0.00     0.275 C 
HETATM   24  O   UNK N   1      33.225  10.767  14.269  0.00  0.00    -0.265 OA
HETATM   25  H   UNK N   1      36.150  10.031  15.070  0.00  0.00     0.163 HD
BRANCH  23  26
HETATM   26  C   UNK N   1      34.674   9.590  12.905  0.00  0.00     0.143 A 
HETATM   27  N   UNK N   1      35.709   8.724  12.719  0.00  0.00    -0.348 N 
HETATM   28  C   UNK N   1      35.708   8.207  11.437  0.00  0.00     0.026 A 
ATOM     29  HN  UNK N   1      36.396   8.486  13.435  1.00  0.00     0.166 HD
HETATM   30  C   UNK N   1      34.686   8.671  10.611  0.00  0.00     0.035 A 
HETATM   31  C   UNK N   1      36.688   7.183  10.945  0.00  0.00     0.088 C 
HETATM   32  S   UNK N   1      33.790   9.711  11.504  0.00  0.00    -0.068 SA
HETATM   33  C   UNK N   1      34.475   8.202   9.215  0.00  0.00     0.320 C 
HETATM   34  N   UNK N   1      35.056   6.863   9.077  0.00  0.00     0.089 N 
HETATM   35  C   UNK N   1      34.962   6.499   7.676  0.00  0.00     0.310 C 
HETATM   36  C   UNK N   1      36.481   6.894   9.439  0.00  0.00     0.278 C 
ENDBRANCH  23  26
ENDBRANCH   6  22
TORSDOF 4
ENDMDL
MODEL 6
REMARK VINA RESULT:      -7.7      8.618     13.081
REMARK  4 active torsions:
REMARK  status: ('A' for Active; 'I' for Inactive)
REMARK    1  A    between atoms: C_10  and  C_11 
REMARK       I    between atoms: C_11  and  N_13 
REMARK    2  A    between atoms: C_14  and  N_13 
REMARK    3  A    between atoms: C_19  and  N_20 
REMARK       I    between atoms: N_20  and  C_21 
REMARK    4  A    between atoms: C_21  and  C_23 
ROOT
HETATM    1  C   UNK N   1      35.803  13.207  13.911  0.00  0.00     0.107 C 
HETATM    2  C   UNK N   1      34.726  12.773  14.912  0.00  0.00     0.027 C 
HETATM    3  C   UNK N   1      35.394  12.205  16.170  0.00  0.00     0.002 C 
HETATM    4  C   UNK N   1      36.350  11.055  15.832  0.00  0.00     0.002 C 
HETATM    5  C   UNK N   1      37.379  11.471  14.776  0.00  0.00     0.027 C 
HETATM    6  C   UNK N   1      36.660  11.973  13.527  0.00  0.00     0.107 C 
ENDROOT
BRANCH   1   7
HETATM    7  N   UNK N   1      35.305  13.824  12.700  0.00  0.00    -0.349 N 
HETATM    8  C   UNK N   1      35.544  15.030  12.128  0.00  0.00     0.268 C 
HETATM    9  O   UNK N   1      36.338  15.824  12.608  0.00  0.00    -0.266 OA
HETATM   10  H   UNK N   1      34.675  13.261  12.195  0.00  0.00     0.163 HD
BRANCH   8  11
HETATM   11  C   UNK N   1      34.727  15.381  10.956  0.00  0.00     0.102 A 
HETATM   12  N   UNK N   1      33.507  14.866  10.661  0.00  0.00    -0.351 N 
HETATM   13  C   UNK N   1      33.188  15.400   9.466  0.00  0.00     0.043 A 
HETATM   14  H   UNK N   1      32.972  14.241  11.201  0.00  0.00     0.166 HD
HETATM   15  C   UNK N   1      32.036  15.172   8.715  0.00  0.00     0.032 A 
HETATM   16  C   UNK N   1      34.178  16.229   9.018  0.00  0.00    -0.005 A 
HETATM   17  C   UNK N   1      31.926  15.826   7.470  0.00  0.00     0.026 A 
HETATM   18  C   UNK N   1      32.958  16.681   7.013  0.00  0.00     0.035 A 
HETATM   19 Cl   UNK N   1      32.819  17.477   5.462  0.00  0.00    -0.084 Cl
HETATM   20  C   UNK N   1      34.103  16.888   7.798  0.00  0.00     0.037 A 
HETATM   21  C   UNK N   1      35.175  16.237   9.951  0.00  0.00     0.049 A 
ENDBRANCH   8  11
ENDBRANCH   1   7
BRANCH   6  22
HETATM   22  N   UNK N   1      37.609  12.288  12.463  0.00  0.00    -0.349 N 
HETATM   23  C   UNK N   1      37.337  11.970  11.162  0.00  0.00     0.275 C 
HETATM   24  O   UNK N   1      36.325  11.342  10.882  0.00  0.00    -0.265 OA
HETATM   25  H   UNK N   1      38.456  12.736  12.685  0.00  0.00     0.163 HD
BRANCH  23  26
HETATM   26  C   UNK N   1      38.231  12.364  10.064  0.00  0.00     0.143 A 
HETATM   27  N   UNK N   1      39.345  11.695   9.653  0.00  0.00    -0.348 N 
HETATM   28  C   UNK N   1      39.940  12.325   8.575  0.00  0.00     0.026 A 
ATOM     29  HN  UNK N   1      39.694  10.839  10.084  1.00  0.00     0.166 HD
HETATM   30  C   UNK N   1      39.307  13.490   8.145  0.00  0.00     0.035 A 
HETATM   31  C   UNK N   1      41.150  11.801   7.860  0.00  0.00     0.088 C 
HETATM   32  S   UNK N   1      38.003  13.706   9.113  0.00  0.00    -0.068 SA
HETATM   33  C   UNK N   1      39.754  14.288   6.972  0.00  0.00     0.320 C 
HETATM   34  N   UNK N   1      40.495  13.410   6.062  0.00  0.00     0.089 N 
HETATM   35  C   UNK N   1      41.037  14.247   5.008  0.00  0.00     0.310 C 
HETATM   36  C   UNK N   1      41.625  12.791   6.771  0.00  0.00     0.278 C 
ENDBRANCH  23  26
ENDBRANCH   6  22
TORSDOF 4
ENDMDL
MODEL 7
REMARK VINA RESULT:      -7.5      8.881     14.129
REMARK  4 active torsions:
REMARK  status: ('A' for Active; 'I' for Inactive)
REMARK    1  A    between atoms: C_10  and  C_11 
REMARK       I    between atoms: C_11  and  N_13 
REMARK    2  A    between atoms: C_14  and  N_13 
REMARK    3  A    between atoms: C_19  and  N_20 
REMARK       I    between atoms: N_20  and  C_21 
REMARK    4  A    between atoms: C_21  and  C_23 
ROOT
HETATM    1  C   UNK N   1      36.814  11.919  13.129  0.00  0.00     0.107 C 
HETATM    2  C   UNK N   1      37.691  11.576  14.339  0.00  0.00     0.027 C 
HETATM    3  C   UNK N   1      36.802  11.151  15.513  0.00  0.00     0.002 C 
HETATM    4  C   UNK N   1      35.763  12.226  15.853  0.00  0.00     0.002 C 
HETATM    5  C   UNK N   1      34.937  12.619  14.624  0.00  0.00     0.027 C 
HETATM    6  C   UNK N   1      35.868  13.088  13.509  0.00  0.00     0.107 C 
ENDROOT
BRANCH   1   7
HETATM    7  N   UNK N   1      37.536  12.276  11.926  0.00  0.00    -0.349 N 
HETATM    8  C   UNK N   1      37.286  12.049  10.613  0.00  0.00     0.268 C 
HETATM    9  O   UNK N   1      36.274  11.477  10.241  0.00  0.00    -0.266 OA
HETATM   10  H   UNK N   1      38.366  12.781  12.093  0.00  0.00     0.163 HD
BRANCH   8  11
HETATM   11  C   UNK N   1      38.340  12.434   9.662  0.00  0.00     0.102 A 
HETATM   12  N   UNK N   1      38.294  13.494   8.817  0.00  0.00    -0.351 N 
HETATM   13  C   UNK N   1      39.419  13.399   8.082  0.00  0.00     0.043 A 
HETATM   14  H   UNK N   1      37.593  14.182   8.755  0.00  0.00     0.166 HD
HETATM   15  C   UNK N   1      39.835  14.243   7.054  0.00  0.00     0.032 A 
HETATM   16  C   UNK N   1      40.156  12.309   8.452  0.00  0.00    -0.005 A 
HETATM   17  C   UNK N   1      41.047  13.932   6.402  0.00  0.00     0.026 A 
HETATM   18  C   UNK N   1      41.803  12.800   6.791  0.00  0.00     0.035 A 
HETATM   19 Cl   UNK N   1      43.299  12.415   5.969  0.00  0.00    -0.084 Cl
HETATM   20  C   UNK N   1      41.353  11.973   7.832  0.00  0.00     0.037 A 
HETATM   21  C   UNK N   1      39.491  11.674   9.461  0.00  0.00     0.049 A 
ENDBRANCH   8  11
ENDBRANCH   1   7
BRANCH   6  22
HETATM   22  N   UNK N   1      35.111  13.563  12.355  0.00  0.00    -0.349 N 
HETATM   23  C   UNK N   1      35.285  14.830  11.872  0.00  0.00     0.275 C 
HETATM   24  O   UNK N   1      36.025  15.612  12.453  0.00  0.00    -0.265 OA
HETATM   25  H   UNK N   1      34.465  12.962  11.918  0.00  0.00     0.163 HD
BRANCH  23  26
HETATM   26  C   UNK N   1      34.608  15.296  10.654  0.00  0.00     0.143 A 
HETATM   27  N   UNK N   1      34.511  16.587  10.231  0.00  0.00    -0.348 N 
HETATM   28  C   UNK N   1      33.830  16.673   9.030  0.00  0.00     0.026 A 
ATOM     29  HN  UNK N   1      34.893  17.388  10.734  1.00  0.00     0.166 HD
HETATM   30  C   UNK N   1      33.381  15.458   8.515  0.00  0.00     0.035 A 
HETATM   31  C   UNK N   1      33.611  17.953   8.280  0.00  0.00     0.088 C 
HETATM   32  S   UNK N   1      33.856  14.294   9.564  0.00  0.00    -0.068 SA
HETATM   33  C   UNK N   1      32.675  15.325   7.212  0.00  0.00     0.320 C 
HETATM   34  N   UNK N   1      33.047  16.456   6.358  0.00  0.00     0.089 N 
HETATM   35  C   UNK N   1      32.235  16.372   5.159  0.00  0.00     0.310 C 
HETATM   36  C   UNK N   1      32.725  17.722   7.032  0.00  0.00     0.278 C 
ENDBRANCH  23  26
ENDBRANCH   6  22
TORSDOF 4
ENDMDL
MODEL 8
REMARK VINA RESULT:      -7.5     13.685     16.312
REMARK  4 active torsions:
REMARK  status: ('A' for Active; 'I' for Inactive)
REMARK    1  A    between atoms: C_10  and  C_11 
REMARK       I    between atoms: C_11  and  N_13 
REMARK    2  A    between atoms: C_14  and  N_13 
REMARK    3  A    between atoms: C_19  and  N_20 
REMARK       I    between atoms: N_20  and  C_21 
REMARK    4  A    between atoms: C_21  and  C_23 
ROOT
HETATM    1  C   UNK N   1      27.171  24.359  -9.509  0.00  0.00     0.107 C 
HETATM    2  C   UNK N   1      26.506  23.309 -10.405  0.00  0.00     0.027 C 
HETATM    3  C   UNK N   1      25.912  23.992 -11.642  0.00  0.00     0.002 C 
HETATM    4  C   UNK N   1      24.934  25.108 -11.256  0.00  0.00     0.002 C 
HETATM    5  C   UNK N   1      25.581  26.117 -10.301  0.00  0.00     0.027 C 
HETATM    6  C   UNK N   1      26.102  25.390  -9.064  0.00  0.00     0.107 C 
ENDROOT
BRANCH   1   7
HETATM    7  N   UNK N   1      27.830  23.835  -8.331  0.00  0.00    -0.349 N 
HETATM    8  C   UNK N   1      27.423  22.973  -7.367  0.00  0.00     0.268 C 
HETATM    9  O   UNK N   1      26.326  22.439  -7.404  0.00  0.00    -0.266 OA
HETATM   10  H   UNK N   1      28.749  24.167  -8.207  0.00  0.00     0.163 HD
BRANCH   8  11
HETATM   11  C   UNK N   1      28.325  22.788  -6.219  0.00  0.00     0.102 A 
HETATM   12  N   UNK N   1      28.313  23.523  -5.079  0.00  0.00    -0.351 N 
HETATM   13  C   UNK N   1      29.359  23.066  -4.364  0.00  0.00     0.043 A 
HETATM   14  H   UNK N   1      27.678  24.233  -4.828  0.00  0.00     0.166 HD
HETATM   15  C   UNK N   1      29.793  23.509  -3.116  0.00  0.00     0.032 A 
HETATM   16  C   UNK N   1      30.015  22.071  -5.034  0.00  0.00    -0.005 A 
HETATM   17  C   UNK N   1      30.937  22.896  -2.564  0.00  0.00     0.026 A 
HETATM   18  C   UNK N   1      31.610  21.868  -3.266  0.00  0.00     0.035 A 
HETATM   19 Cl   UNK N   1      33.037  21.121  -2.581  0.00  0.00    -0.084 Cl
HETATM   20  C   UNK N   1      31.144  21.446  -4.521  0.00  0.00     0.037 A 
HETATM   21  C   UNK N   1      29.374  21.871  -6.223  0.00  0.00     0.049 A 
ENDBRANCH   8  11
ENDBRANCH   1   7
BRANCH   6  22
HETATM   22  N   UNK N   1      26.638  26.333  -8.087  0.00  0.00    -0.349 N 
HETATM   23  C   UNK N   1      26.156  26.371  -6.808  0.00  0.00     0.275 C 
HETATM   24  O   UNK N   1      25.209  25.665  -6.488  0.00  0.00    -0.265 OA
HETATM   25  H   UNK N   1      27.357  26.950  -8.351  0.00  0.00     0.163 HD
BRANCH  23  26
HETATM   26  C   UNK N   1      26.746  27.242  -5.782  0.00  0.00     0.143 A 
HETATM   27  N   UNK N   1      26.136  28.296  -5.172  0.00  0.00    -0.348 N 
HETATM   28  C   UNK N   1      26.965  28.883  -4.234  0.00  0.00     0.026 A 
ATOM     29  HN  UNK N   1      25.188  28.611  -5.379  1.00  0.00     0.166 HD
HETATM   30  C   UNK N   1      28.227  28.304  -4.113  0.00  0.00     0.035 A 
HETATM   31  C   UNK N   1      26.559  30.030  -3.356  0.00  0.00     0.088 C 
HETATM   32  S   UNK N   1      28.280  27.056  -5.173  0.00  0.00    -0.068 SA
HETATM   33  C   UNK N   1      29.249  28.750  -3.128  0.00  0.00     0.320 C 
HETATM   34  N   UNK N   1      28.567  29.400  -2.005  0.00  0.00     0.089 N 
HETATM   35  C   UNK N   1      29.595  29.948  -1.140  0.00  0.00     0.310 C 
HETATM   36  C   UNK N   1      27.748  30.519  -2.495  0.00  0.00     0.278 C 
ENDBRANCH  23  26
ENDBRANCH   6  22
TORSDOF 4
ENDMDL
MODEL 9
REMARK VINA RESULT:      -7.1     10.676     14.772
REMARK  4 active torsions:
REMARK  status: ('A' for Active; 'I' for Inactive)
REMARK    1  A    between atoms: C_10  and  C_11 
REMARK       I    between atoms: C_11  and  N_13 
REMARK    2  A    between atoms: C_14  and  N_13 
REMARK    3  A    between atoms: C_19  and  N_20 
REMARK       I    between atoms: N_20  and  C_21 
REMARK    4  A    between atoms: C_21  and  C_23 
ROOT
HETATM    1  C   UNK N   1      35.278  10.927  17.080  0.00  0.00     0.107 C 
HETATM    2  C   UNK N   1      35.856  10.394  18.395  0.00  0.00     0.027 C 
HETATM    3  C   UNK N   1      35.243  11.159  19.574  0.00  0.00     0.002 C 
HETATM    4  C   UNK N   1      35.452  12.672  19.435  0.00  0.00     0.002 C 
HETATM    5  C   UNK N   1      34.939  13.189  18.087  0.00  0.00     0.027 C 
HETATM    6  C   UNK N   1      35.624  12.433  16.952  0.00  0.00     0.107 C 
ENDROOT
BRANCH   1   7
HETATM    7  N   UNK N   1      35.728  10.243  15.886  0.00  0.00    -0.349 N 
HETATM    8  C   UNK N   1      35.103   9.937  14.722  0.00  0.00     0.268 C 
HETATM    9  O   UNK N   1      33.954  10.281  14.500  0.00  0.00    -0.266 OA
HETATM   10  H   UNK N   1      36.665   9.944  15.928  0.00  0.00     0.163 HD
BRANCH   8  11
HETATM   11  C   UNK N   1      35.843   9.084  13.779  0.00  0.00     0.102 A 
HETATM   12  N   UNK N   1      35.297   8.135  12.976  0.00  0.00    -0.351 N 
HETATM   13  C   UNK N   1      36.347   7.554  12.367  0.00  0.00     0.043 A 
HETATM   14  H   UNK N   1      34.342   7.921  12.863  0.00  0.00     0.166 HD
HETATM   15  C   UNK N   1      36.323   6.502  11.453  0.00  0.00     0.032 A 
HETATM   16  C   UNK N   1      37.525   8.117  12.772  0.00  0.00    -0.005 A 
HETATM   17  C   UNK N   1      37.559   6.034  10.960  0.00  0.00     0.026 A 
HETATM   18  C   UNK N   1      38.773   6.623  11.387  0.00  0.00     0.035 A 
HETATM   19 Cl   UNK N   1      40.302   6.027  10.780  0.00  0.00    -0.084 Cl
HETATM   20  C   UNK N   1      38.759   7.682  12.308  0.00  0.00     0.037 A 
HETATM   21  C   UNK N   1      37.232   9.100  13.674  0.00  0.00     0.049 A 
ENDBRANCH   8  11
ENDBRANCH   1   7
BRANCH   6  22
HETATM   22  N   UNK N   1      35.232  12.967  15.651  0.00  0.00    -0.349 N 
HETATM   23  C   UNK N   1      36.156  13.520  14.810  0.00  0.00     0.275 C 
HETATM   24  O   UNK N   1      37.318  13.647  15.172  0.00  0.00    -0.265 OA
HETATM   25  H   UNK N   1      34.288  12.928  15.375  0.00  0.00     0.163 HD
BRANCH  23  26
HETATM   26  C   UNK N   1      35.801  13.973  13.458  0.00  0.00     0.143 A 
HETATM   27  N   UNK N   1      36.020  15.215  12.941  0.00  0.00    -0.348 N 
HETATM   28  C   UNK N   1      35.589  15.297  11.630  0.00  0.00     0.026 A 
ATOM     29  HN  UNK N   1      36.448  15.985  13.456  1.00  0.00     0.166 HD
HETATM   30  C   UNK N   1      35.023  14.131  11.117  0.00  0.00     0.035 A 
HETATM   31  C   UNK N   1      35.745  16.516  10.771  0.00  0.00     0.088 C 
HETATM   32  S   UNK N   1      35.083  13.011  12.311  0.00  0.00    -0.068 SA
HETATM   33  C   UNK N   1      34.545  13.992   9.715  0.00  0.00     0.320 C 
HETATM   34  N   UNK N   1      35.264  14.956   8.877  0.00  0.00     0.089 N 
HETATM   35  C   UNK N   1      34.675  14.894   7.553  0.00  0.00     0.310 C 
HETATM   36  C   UNK N   1      35.066  16.318   9.395  0.00  0.00     0.278 C 
ENDBRANCH  23  26
ENDBRANCH   6  22
TORSDOF 4
ENDMDL
