REMARK  4 active torsions:
REMARK  status: ('A' for Active; 'I' for Inactive)
REMARK    1  A    between atoms: C_10  and  C_11 
REMARK       I    between atoms: C_11  and  N_13 
REMARK    2  A    between atoms: C_14  and  N_13 
REMARK    3  A    between atoms: C_19  and  N_20 
REMARK       I    between atoms: N_20  and  C_21 
REMARK    4  A    between atoms: C_21  and  C_23 
ROOT
HETATM    1  C   UNK N   1      -1.339  -0.795   0.541  0.00  0.00     0.107 C 
HETATM    2  C   UNK N   1      -2.797  -0.929   0.088  0.00  0.00     0.027 C 
HETATM    3  C   UNK N   1      -3.243  -2.390   0.220  0.00  0.00     0.002 C 
HETATM    4  C   UNK N   1      -2.319  -3.335  -0.557  0.00  0.00     0.002 C 
HETATM    5  C   UNK N   1      -0.853  -3.146  -0.154  0.00  0.00     0.027 C 
HETATM    6  C   UNK N   1      -0.448  -1.689  -0.360  0.00  0.00     0.107 C 
ENDROOT
BRANCH   1   7
HETATM    7  N   UNK N   1      -0.811   0.553   0.527  0.00  0.00    -0.349 N 
HETATM    8  C   UNK N   1      -1.312   1.722   0.056  0.00  0.00     0.268 C 
HETATM    9  O   UNK N   1      -2.425   1.791  -0.440  0.00  0.00    -0.266 OA
HETATM   10  H   UNK N   1       0.080   0.637   0.938  0.00  0.00     0.163 HD
BRANCH   8  11
HETATM   11  C   UNK N   1      -0.411   2.885   0.078  0.00  0.00     0.102 A 
HETATM   12  N   UNK N   1      -0.678   4.102  -0.460  0.00  0.00    -0.351 N 
HETATM   13  C   UNK N   1       0.454   4.811  -0.286  0.00  0.00     0.043 A 
HETATM   14  H   UNK N   1      -1.515   4.401  -0.883  0.00  0.00     0.166 HD
HETATM   15  C   UNK N   1       0.703   6.123  -0.684  0.00  0.00     0.032 A 
HETATM   16  C   UNK N   1       1.410   4.064   0.344  0.00  0.00    -0.005 A 
HETATM   17  C   UNK N   1       1.981   6.657  -0.417  0.00  0.00     0.026 A 
HETATM   18  C   UNK N   1       2.965   5.875   0.234  0.00  0.00     0.035 A 
HETATM   19 Cl   UNK N   1       4.552   6.541   0.550  0.00  0.00    -0.084 Cl
HETATM   20  C   UNK N   1       2.678   4.557   0.622  0.00  0.00     0.037 A 
HETATM   21  C   UNK N   1       0.884   2.828   0.590  0.00  0.00     0.049 A 
ENDBRANCH   8  11
ENDBRANCH   1   7
BRANCH   6  22
HETATM   22  N   UNK N   1       0.971  -1.492  -0.078  0.00  0.00    -0.349 N 
HETATM   23  C   UNK N   1       1.651  -0.428  -0.601  0.00  0.00     0.275 C 
HETATM   24  O   UNK N   1       1.094   0.333  -1.381  0.00  0.00    -0.265 OA
HETATM   25  H   UNK N   1       1.445  -2.134   0.498  0.00  0.00     0.163 HD
BRANCH  23  26
HETATM   26  C   UNK N   1       3.052  -0.155  -0.252  0.00  0.00     0.143 A 
HETATM   27  N   UNK N   1       3.864  -0.949   0.501  0.00  0.00    -0.348 N 
HETATM   28  C   UNK N   1       5.132  -0.409   0.613  0.00  0.00     0.026 A 
ATOM     29  HN  UNK N   1       3.574  -1.830   0.926  1.00  0.00     0.166 HD
HETATM   30  C   UNK N   1       5.317   0.810  -0.037  0.00  0.00     0.035 A 
HETATM   31  C   UNK N   1       6.267  -1.076   1.331  0.00  0.00     0.088 C 
HETATM   32  S   UNK N   1       3.893   1.186  -0.754  0.00  0.00    -0.068 SA
HETATM   33  C   UNK N   1       6.617   1.532  -0.083  0.00  0.00     0.320 C 
HETATM   34  N   UNK N   1       7.700   0.561   0.098  0.00  0.00     0.089 N 
HETATM   35  C   UNK N   1       8.937   1.313   0.192  0.00  0.00     0.310 C 
HETATM   36  C   UNK N   1       7.517  -0.165   1.364  0.00  0.00     0.278 C 
ENDBRANCH  23  26
ENDBRANCH   6  22
TORSDOF 4
