REMARK  13 active torsions:
REMARK  status: ('A' for Active; 'I' for Inactive)
REMARK    1  A    between atoms: C_2  and  C_3 
REMARK    2  A    between atoms: C_3  and  C_4 
REMARK    3  A    between atoms: C_4  and  C_5 
REMARK    4  A    between atoms: C_5  and  C_6 
REMARK    5  A    between atoms: C_6  and  C_7 
REMARK    6  A    between atoms: C_7  and  C_8 
REMARK    7  A    between atoms: C_8  and  C_9 
REMARK    8  A    between atoms: C_9  and  C_10 
REMARK    9  A    between atoms: C_10  and  C_11 
REMARK   10  A    between atoms: C_11  and  C_12 
REMARK   11  A    between atoms: C_12  and  N_13 
REMARK   12  A    between atoms: N_13  and  C_16 
REMARK   13  A    between atoms: C_16  and  C_17 
ROOT
HETATM    1  C   UNK N   1       1.377  -1.176   0.395  0.00  0.00     0.002 C 
ENDROOT
BRANCH   1   2
HETATM    2  C   UNK N   1       0.665  -0.164  -0.473  0.00  0.00     0.000 C 
BRANCH   2   3
HETATM    3  C   UNK N   1      -0.279   0.634   0.400  0.00  0.00     0.000 C 
BRANCH   3   4
HETATM    4  C   UNK N   1      -1.533   1.005  -0.372  0.00  0.00     0.000 C 
BRANCH   4   5
HETATM    5  C   UNK N   1      -2.379  -0.222  -0.684  0.00  0.00     0.000 C 
BRANCH   5   6
HETATM    6  C   UNK N   1      -2.845  -0.903   0.595  0.00  0.00     0.000 C 
BRANCH   6   7
HETATM    7  C   UNK N   1      -4.233  -1.473   0.391  0.00  0.00     0.000 C 
BRANCH   7   8
HETATM    8  C   UNK N   1      -5.245  -0.348   0.471  0.00  0.00    -0.000 C 
BRANCH   8   9
HETATM    9  C   UNK N   1      -6.300  -0.536  -0.595  0.00  0.00    -0.005 C 
HETATM   10  C   UNK N   1      -7.195   0.684  -0.625  0.00  0.00     0.005 C 
ENDBRANCH   8   9
ENDBRANCH   7   8
ENDBRANCH   6   7
ENDBRANCH   5   6
ENDBRANCH   4   5
ENDBRANCH   3   4
ENDBRANCH   2   3
ENDBRANCH   1   2
BRANCH   1  11
HETATM   11  C   UNK N   1       2.721  -1.513  -0.213  0.00  0.00     0.028 C 
BRANCH  11  12
HETATM   12  C   UNK N   1       3.848  -0.812   0.552  0.00  0.00     0.237 C 
BRANCH  12  13
HETATM   13  N   UNK N   1       4.189   0.531   0.055  0.00  0.00    -0.065 N 
HETATM   14  C   UNK N   1       4.347   0.561  -1.397  0.00  0.00     0.272 C 
HETATM   15  C   UNK N   1       3.147   1.478   0.418  0.00  0.00     0.272 C 
BRANCH  13  16
HETATM   16  C   UNK N   1       5.414   0.992   0.720  0.00  0.00     0.349 C 
BRANCH  16  17
HETATM   17  C   UNK N   1       6.660   0.254   0.303  0.00  0.00     0.199 C 
HETATM   18  O   UNK N   1       7.695   0.938  -0.218  0.00  0.00    -0.647 OA
HETATM   19  O   UNK N   1       6.745  -0.955   0.451  0.00  0.00    -0.647 OA
ENDBRANCH  16  17
ENDBRANCH  13  16
ENDBRANCH  12  13
ENDBRANCH  11  12
ENDBRANCH   1  11
TORSDOF 13
