MODEL 1
REMARK VINA RESULT:      -4.5      0.000      0.000
REMARK  13 active torsions:
REMARK  status: ('A' for Active; 'I' for Inactive)
REMARK    1  A    between atoms: C_2  and  C_3 
REMARK    2  A    between atoms: C_3  and  C_4 
REMARK    3  A    between atoms: C_4  and  C_5 
REMARK    4  A    between atoms: C_5  and  C_6 
REMARK    5  A    between atoms: C_6  and  C_7 
REMARK    6  A    between atoms: C_7  and  C_8 
REMARK    7  A    between atoms: C_8  and  C_9 
REMARK    8  A    between atoms: C_9  and  C_10 
REMARK    9  A    between atoms: C_10  and  C_11 
REMARK   10  A    between atoms: C_11  and  C_12 
REMARK   11  A    between atoms: C_12  and  N_13 
REMARK   12  A    between atoms: N_13  and  C_16 
REMARK   13  A    between atoms: C_16  and  C_17 
ROOT
HETATM    1  C   UNK N   1      28.927  25.176  -4.355  0.00  0.00     0.002 C 
ENDROOT
BRANCH   1   2
HETATM    2  C   UNK N   1      27.881  24.440  -3.550  0.00  0.00     0.000 C 
BRANCH   2   3
HETATM    3  C   UNK N   1      26.586  25.219  -3.625  0.00  0.00     0.000 C 
BRANCH   3   4
HETATM    4  C   UNK N   1      26.865  26.702  -3.792  0.00  0.00     0.000 C 
BRANCH   4   5
HETATM    5  C   UNK N   1      25.584  27.486  -4.040  0.00  0.00     0.000 C 
BRANCH   5   6
HETATM    6  C   UNK N   1      25.003  27.162  -5.410  0.00  0.00     0.000 C 
BRANCH   6   7
HETATM    7  C   UNK N   1      26.073  27.325  -6.468  0.00  0.00     0.000 C 
BRANCH   7   8
HETATM    8  C   UNK N   1      25.830  26.320  -7.575  0.00  0.00    -0.000 C 
BRANCH   8   9
HETATM    9  C   UNK N   1      26.844  25.203  -7.480  0.00  0.00    -0.005 C 
HETATM   10  C   UNK N   1      26.146  23.939  -7.029  0.00  0.00     0.005 C 
ENDBRANCH   8   9
ENDBRANCH   7   8
ENDBRANCH   6   7
ENDBRANCH   5   6
ENDBRANCH   4   5
ENDBRANCH   3   4
ENDBRANCH   2   3
ENDBRANCH   1   2
BRANCH   1  11
HETATM   11  C   UNK N   1      29.577  24.226  -5.337  0.00  0.00     0.028 C 
BRANCH  11  12
HETATM   12  C   UNK N   1      29.296  22.772  -4.944  0.00  0.00     0.237 C 
BRANCH  12  13
HETATM   13  N   UNK N   1      30.479  21.896  -4.932  0.00  0.00    -0.065 N 
HETATM   14  C   UNK N   1      30.468  20.935  -6.033  0.00  0.00     0.272 C 
HETATM   15  C   UNK N   1      31.691  22.692  -5.036  0.00  0.00     0.272 C 
BRANCH  13  16
HETATM   16  C   UNK N   1      30.550  21.204  -3.640  0.00  0.00     0.349 C 
BRANCH  16  17
HETATM   17  C   UNK N   1      31.320  21.949  -2.580  0.00  0.00     0.199 C 
HETATM   18  O   UNK N   1      30.751  22.999  -1.960  0.00  0.00    -0.647 OA
HETATM   19  O   UNK N   1      32.446  21.597  -2.267  0.00  0.00    -0.647 OA
ENDBRANCH  16  17
ENDBRANCH  13  16
ENDBRANCH  12  13
ENDBRANCH  11  12
ENDBRANCH   1  11
TORSDOF 13
ENDMDL
MODEL 2
REMARK VINA RESULT:      -4.4     18.262     22.265
REMARK  13 active torsions:
REMARK  status: ('A' for Active; 'I' for Inactive)
REMARK    1  A    between atoms: C_2  and  C_3 
REMARK    2  A    between atoms: C_3  and  C_4 
REMARK    3  A    between atoms: C_4  and  C_5 
REMARK    4  A    between atoms: C_5  and  C_6 
REMARK    5  A    between atoms: C_6  and  C_7 
REMARK    6  A    between atoms: C_7  and  C_8 
REMARK    7  A    between atoms: C_8  and  C_9 
REMARK    8  A    between atoms: C_9  and  C_10 
REMARK    9  A    between atoms: C_10  and  C_11 
REMARK   10  A    between atoms: C_11  and  C_12 
REMARK   11  A    between atoms: C_12  and  N_13 
REMARK   12  A    between atoms: N_13  and  C_16 
REMARK   13  A    between atoms: C_16  and  C_17 
ROOT
HETATM    1  C   UNK N   1      36.219  13.239  12.958  0.00  0.00     0.002 C 
ENDROOT
BRANCH   1   2
HETATM    2  C   UNK N   1      36.461  14.200  14.099  0.00  0.00     0.000 C 
BRANCH   2   3
HETATM    3  C   UNK N   1      36.839  13.400  15.326  0.00  0.00     0.000 C 
BRANCH   3   4
HETATM    4  C   UNK N   1      35.963  13.786  16.505  0.00  0.00     0.000 C 
BRANCH   4   5
HETATM    5  C   UNK N   1      34.935  12.705  16.812  0.00  0.00     0.000 C 
BRANCH   5   6
HETATM    6  C   UNK N   1      35.595  11.338  16.918  0.00  0.00     0.000 C 
BRANCH   6   7
HETATM    7  C   UNK N   1      34.674  10.282  16.343  0.00  0.00     0.000 C 
BRANCH   7   8
HETATM    8  C   UNK N   1      34.938  10.154  14.857  0.00  0.00    -0.000 C 
BRANCH   8   9
HETATM    9  C   UNK N   1      33.728  10.623  14.082  0.00  0.00    -0.005 C 
HETATM   10  C   UNK N   1      33.849  10.157  12.648  0.00  0.00     0.005 C 
ENDBRANCH   8   9
ENDBRANCH   7   8
ENDBRANCH   6   7
ENDBRANCH   5   6
ENDBRANCH   4   5
ENDBRANCH   3   4
ENDBRANCH   2   3
ENDBRANCH   1   2
BRANCH   1  11
HETATM   11  C   UNK N   1      34.985  13.659  12.190  0.00  0.00     0.028 C 
BRANCH  11  12
HETATM   12  C   UNK N   1      35.053  13.155  10.745  0.00  0.00     0.237 C 
BRANCH  12  13
HETATM   13  N   UNK N   1      34.974  14.208   9.719  0.00  0.00    -0.065 N 
HETATM   14  C   UNK N   1      36.290  14.588   9.212  0.00  0.00     0.272 C 
HETATM   15  C   UNK N   1      34.168  13.754   8.597  0.00  0.00     0.272 C 
BRANCH  13  16
HETATM   16  C   UNK N   1      34.279  15.373  10.281  0.00  0.00     0.349 C 
BRANCH  16  17
HETATM   17  C   UNK N   1      34.715  16.694   9.700  0.00  0.00     0.199 C 
HETATM   18  O   UNK N   1      35.640  17.429  10.343  0.00  0.00    -0.647 OA
HETATM   19  O   UNK N   1      34.250  17.092   8.644  0.00  0.00    -0.647 OA
ENDBRANCH  16  17
ENDBRANCH  13  16
ENDBRANCH  12  13
ENDBRANCH  11  12
ENDBRANCH   1  11
TORSDOF 13
ENDMDL
MODEL 3
REMARK VINA RESULT:      -4.4     10.962     13.463
REMARK  13 active torsions:
REMARK  status: ('A' for Active; 'I' for Inactive)
REMARK    1  A    between atoms: C_2  and  C_3 
REMARK    2  A    between atoms: C_3  and  C_4 
REMARK    3  A    between atoms: C_4  and  C_5 
REMARK    4  A    between atoms: C_5  and  C_6 
REMARK    5  A    between atoms: C_6  and  C_7 
REMARK    6  A    between atoms: C_7  and  C_8 
REMARK    7  A    between atoms: C_8  and  C_9 
REMARK    8  A    between atoms: C_9  and  C_10 
REMARK    9  A    between atoms: C_10  and  C_11 
REMARK   10  A    between atoms: C_11  and  C_12 
REMARK   11  A    between atoms: C_12  and  N_13 
REMARK   12  A    between atoms: N_13  and  C_16 
REMARK   13  A    between atoms: C_16  and  C_17 
ROOT
HETATM    1  C   UNK N   1      29.042  18.579   7.808  0.00  0.00     0.002 C 
ENDROOT
BRANCH   1   2
HETATM    2  C   UNK N   1      28.243  17.299   7.726  0.00  0.00     0.000 C 
BRANCH   2   3
HETATM    3  C   UNK N   1      28.387  16.735   6.328  0.00  0.00     0.000 C 
BRANCH   3   4
HETATM    4  C   UNK N   1      28.874  17.808   5.369  0.00  0.00     0.000 C 
BRANCH   4   5
HETATM    5  C   UNK N   1      27.781  18.219   4.392  0.00  0.00     0.000 C 
BRANCH   5   6
HETATM    6  C   UNK N   1      27.978  19.654   3.925  0.00  0.00     0.000 C 
BRANCH   6   7
HETATM    7  C   UNK N   1      26.630  20.318   3.739  0.00  0.00     0.000 C 
BRANCH   7   8
HETATM    8  C   UNK N   1      25.973  20.488   5.094  0.00  0.00    -0.000 C 
BRANCH   8   9
HETATM    9  C   UNK N   1      26.867  21.310   5.993  0.00  0.00    -0.005 C 
HETATM   10  C   UNK N   1      26.336  21.245   7.409  0.00  0.00     0.005 C 
ENDBRANCH   8   9
ENDBRANCH   7   8
ENDBRANCH   6   7
ENDBRANCH   5   6
ENDBRANCH   4   5
ENDBRANCH   3   4
ENDBRANCH   2   3
ENDBRANCH   1   2
BRANCH   1  11
HETATM   11  C   UNK N   1      30.123  18.439   8.857  0.00  0.00     0.028 C 
BRANCH  11  12
HETATM   12  C   UNK N   1      30.664  17.006   8.883  0.00  0.00     0.237 C 
BRANCH  12  13
HETATM   13  N   UNK N   1      32.018  16.847   8.325  0.00  0.00    -0.065 N 
HETATM   14  C   UNK N   1      32.809  15.864   9.062  0.00  0.00     0.272 C 
HETATM   15  C   UNK N   1      31.940  16.419   6.938  0.00  0.00     0.272 C 
BRANCH  13  16
HETATM   16  C   UNK N   1      32.689  18.153   8.316  0.00  0.00     0.349 C 
BRANCH  16  17
HETATM   17  C   UNK N   1      34.151  18.094   7.956  0.00  0.00     0.199 C 
HETATM   18  O   UNK N   1      35.079  18.188   8.926  0.00  0.00    -0.647 OA
HETATM   19  O   UNK N   1      34.500  17.945   6.795  0.00  0.00    -0.647 OA
ENDBRANCH  16  17
ENDBRANCH  13  16
ENDBRANCH  12  13
ENDBRANCH  11  12
ENDBRANCH   1  11
TORSDOF 13
ENDMDL
MODEL 4
REMARK VINA RESULT:      -4.3      1.254      2.481
REMARK  13 active torsions:
REMARK  status: ('A' for Active; 'I' for Inactive)
REMARK    1  A    between atoms: C_2  and  C_3 
REMARK    2  A    between atoms: C_3  and  C_4 
REMARK    3  A    between atoms: C_4  and  C_5 
REMARK    4  A    between atoms: C_5  and  C_6 
REMARK    5  A    between atoms: C_6  and  C_7 
REMARK    6  A    between atoms: C_7  and  C_8 
REMARK    7  A    between atoms: C_8  and  C_9 
REMARK    8  A    between atoms: C_9  and  C_10 
REMARK    9  A    between atoms: C_10  and  C_11 
REMARK   10  A    between atoms: C_11  and  C_12 
REMARK   11  A    between atoms: C_12  and  N_13 
REMARK   12  A    between atoms: N_13  and  C_16 
REMARK   13  A    between atoms: C_16  and  C_17 
ROOT
HETATM    1  C   UNK N   1      27.766  24.504  -6.356  0.00  0.00     0.002 C 
ENDROOT
BRANCH   1   2
HETATM    2  C   UNK N   1      26.972  23.923  -5.208  0.00  0.00     0.000 C 
BRANCH   2   3
HETATM    3  C   UNK N   1      25.653  24.659  -5.119  0.00  0.00     0.000 C 
BRANCH   3   4
HETATM    4  C   UNK N   1      25.533  25.674  -6.241  0.00  0.00     0.000 C 
BRANCH   4   5
HETATM    5  C   UNK N   1      24.835  26.944  -5.773  0.00  0.00     0.000 C 
BRANCH   5   6
HETATM    6  C   UNK N   1      25.841  27.951  -5.232  0.00  0.00     0.000 C 
BRANCH   6   7
HETATM    7  C   UNK N   1      25.819  27.929  -3.718  0.00  0.00     0.000 C 
BRANCH   7   8
HETATM    8  C   UNK N   1      27.237  28.078  -3.203  0.00  0.00    -0.000 C 
BRANCH   8   9
HETATM    9  C   UNK N   1      28.215  27.872  -4.337  0.00  0.00    -0.005 C 
HETATM   10  C   UNK N   1      29.266  26.872  -3.907  0.00  0.00     0.005 C 
ENDBRANCH   8   9
ENDBRANCH   7   8
ENDBRANCH   6   7
ENDBRANCH   5   6
ENDBRANCH   4   5
ENDBRANCH   3   4
ENDBRANCH   2   3
ENDBRANCH   1   2
BRANCH   1  11
HETATM   11  C   UNK N   1      29.175  23.954  -6.331  0.00  0.00     0.028 C 
BRANCH  11  12
HETATM   12  C   UNK N   1      29.407  23.125  -5.063  0.00  0.00     0.237 C 
BRANCH  12  13
HETATM   13  N   UNK N   1      30.670  22.370  -5.041  0.00  0.00    -0.065 N 
HETATM   14  C   UNK N   1      30.473  20.969  -4.677  0.00  0.00     0.272 C 
HETATM   15  C   UNK N   1      31.302  22.414  -6.350  0.00  0.00     0.272 C 
BRANCH  13  16
HETATM   16  C   UNK N   1      31.602  23.022  -4.113  0.00  0.00     0.349 C 
BRANCH  16  17
HETATM   17  C   UNK N   1      31.440  22.599  -2.675  0.00  0.00     0.199 C 
HETATM   18  O   UNK N   1      30.513  23.198  -1.906  0.00  0.00    -0.647 OA
HETATM   19  O   UNK N   1      32.130  21.706  -2.209  0.00  0.00    -0.647 OA
ENDBRANCH  16  17
ENDBRANCH  13  16
ENDBRANCH  12  13
ENDBRANCH  11  12
ENDBRANCH   1  11
TORSDOF 13
ENDMDL
MODEL 5
REMARK VINA RESULT:      -4.3     18.096     22.236
REMARK  13 active torsions:
REMARK  status: ('A' for Active; 'I' for Inactive)
REMARK    1  A    between atoms: C_2  and  C_3 
REMARK    2  A    between atoms: C_3  and  C_4 
REMARK    3  A    between atoms: C_4  and  C_5 
REMARK    4  A    between atoms: C_5  and  C_6 
REMARK    5  A    between atoms: C_6  and  C_7 
REMARK    6  A    between atoms: C_7  and  C_8 
REMARK    7  A    between atoms: C_8  and  C_9 
REMARK    8  A    between atoms: C_9  and  C_10 
REMARK    9  A    between atoms: C_10  and  C_11 
REMARK   10  A    between atoms: C_11  and  C_12 
REMARK   11  A    between atoms: C_12  and  N_13 
REMARK   12  A    between atoms: N_13  and  C_16 
REMARK   13  A    between atoms: C_16  and  C_17 
ROOT
HETATM    1  C   UNK N   1      36.017  14.804  12.609  0.00  0.00     0.002 C 
ENDROOT
BRANCH   1   2
HETATM    2  C   UNK N   1      36.236  13.522  13.378  0.00  0.00     0.000 C 
BRANCH   2   3
HETATM    3  C   UNK N   1      34.943  12.736  13.375  0.00  0.00     0.000 C 
BRANCH   3   4
HETATM    4  C   UNK N   1      34.515  12.408  14.795  0.00  0.00     0.000 C 
BRANCH   4   5
HETATM    5  C   UNK N   1      34.097  10.950  14.928  0.00  0.00     0.000 C 
BRANCH   5   6
HETATM    6  C   UNK N   1      35.068  10.182  15.814  0.00  0.00     0.000 C 
BRANCH   6   7
HETATM    7  C   UNK N   1      35.697  11.127  16.816  0.00  0.00     0.000 C 
BRANCH   7   8
HETATM    8  C   UNK N   1      35.121  10.846  18.189  0.00  0.00    -0.000 C 
BRANCH   8   9
HETATM    9  C   UNK N   1      35.348  12.039  19.090  0.00  0.00    -0.005 C 
HETATM   10  C   UNK N   1      35.142  13.307  18.291  0.00  0.00     0.005 C 
ENDBRANCH   8   9
ENDBRANCH   7   8
ENDBRANCH   6   7
ENDBRANCH   5   6
ENDBRANCH   4   5
ENDBRANCH   3   4
ENDBRANCH   2   3
ENDBRANCH   1   2
BRANCH   1  11
HETATM   11  C   UNK N   1      35.822  14.490  11.141  0.00  0.00     0.028 C 
BRANCH  11  12
HETATM   12  C   UNK N   1      35.534  15.771  10.351  0.00  0.00     0.237 C 
BRANCH  12  13
HETATM   13  N   UNK N   1      34.544  15.621   9.272  0.00  0.00    -0.065 N 
HETATM   14  C   UNK N   1      35.156  15.206   8.013  0.00  0.00     0.272 C 
HETATM   15  C   UNK N   1      33.548  14.628   9.642  0.00  0.00     0.272 C 
BRANCH  13  16
HETATM   16  C   UNK N   1      33.820  16.887   9.105  0.00  0.00     0.349 C 
BRANCH  16  17
HETATM   17  C   UNK N   1      34.620  17.973   8.434  0.00  0.00     0.199 C 
HETATM   18  O   UNK N   1      35.494  18.699   9.156  0.00  0.00    -0.647 OA
HETATM   19  O   UNK N   1      34.496  18.188   7.238  0.00  0.00    -0.647 OA
ENDBRANCH  16  17
ENDBRANCH  13  16
ENDBRANCH  12  13
ENDBRANCH  11  12
ENDBRANCH   1  11
TORSDOF 13
ENDMDL
MODEL 6
REMARK VINA RESULT:      -4.2      1.607      2.895
REMARK  13 active torsions:
REMARK  status: ('A' for Active; 'I' for Inactive)
REMARK    1  A    between atoms: C_2  and  C_3 
REMARK    2  A    between atoms: C_3  and  C_4 
REMARK    3  A    between atoms: C_4  and  C_5 
REMARK    4  A    between atoms: C_5  and  C_6 
REMARK    5  A    between atoms: C_6  and  C_7 
REMARK    6  A    between atoms: C_7  and  C_8 
REMARK    7  A    between atoms: C_8  and  C_9 
REMARK    8  A    between atoms: C_9  and  C_10 
REMARK    9  A    between atoms: C_10  and  C_11 
REMARK   10  A    between atoms: C_11  and  C_12 
REMARK   11  A    between atoms: C_12  and  N_13 
REMARK   12  A    between atoms: N_13  and  C_16 
REMARK   13  A    between atoms: C_16  and  C_17 
ROOT
HETATM    1  C   UNK N   1      27.754  24.086  -7.088  0.00  0.00     0.002 C 
ENDROOT
BRANCH   1   2
HETATM    2  C   UNK N   1      26.909  25.336  -7.167  0.00  0.00     0.000 C 
BRANCH   2   3
HETATM    3  C   UNK N   1      26.438  25.684  -5.772  0.00  0.00     0.000 C 
BRANCH   3   4
HETATM    4  C   UNK N   1      25.085  26.371  -5.823  0.00  0.00     0.000 C 
BRANCH   4   5
HETATM    5  C   UNK N   1      25.060  27.618  -4.948  0.00  0.00     0.000 C 
BRANCH   5   6
HETATM    6  C   UNK N   1      25.907  27.425  -3.699  0.00  0.00     0.000 C 
BRANCH   6   7
HETATM    7  C   UNK N   1      26.804  28.629  -3.502  0.00  0.00     0.000 C 
BRANCH   7   8
HETATM    8  C   UNK N   1      26.871  29.411  -4.797  0.00  0.00    -0.000 C 
BRANCH   8   9
HETATM    9  C   UNK N   1      28.237  29.244  -5.423  0.00  0.00    -0.005 C 
HETATM   10  C   UNK N   1      28.072  28.911  -6.889  0.00  0.00     0.005 C 
ENDBRANCH   8   9
ENDBRANCH   7   8
ENDBRANCH   6   7
ENDBRANCH   5   6
ENDBRANCH   4   5
ENDBRANCH   3   4
ENDBRANCH   2   3
ENDBRANCH   1   2
BRANCH   1  11
HETATM   11  C   UNK N   1      28.299  23.927  -5.685  0.00  0.00     0.028 C 
BRANCH  11  12
HETATM   12  C   UNK N   1      29.045  22.596  -5.546  0.00  0.00     0.237 C 
BRANCH  12  13
HETATM   13  N   UNK N   1      30.218  22.636  -4.657  0.00  0.00    -0.065 N 
HETATM   14  C   UNK N   1      30.473  21.348  -4.017  0.00  0.00     0.272 C 
HETATM   15  C   UNK N   1      31.403  23.012  -5.410  0.00  0.00     0.272 C 
BRANCH  13  16
HETATM   16  C   UNK N   1      30.020  23.686  -3.649  0.00  0.00     0.349 C 
BRANCH  16  17
HETATM   17  C   UNK N   1      29.615  23.172  -2.292  0.00  0.00     0.199 C 
HETATM   18  O   UNK N   1      30.554  22.971  -1.349  0.00  0.00    -0.647 OA
HETATM   19  O   UNK N   1      28.441  22.955  -2.034  0.00  0.00    -0.647 OA
ENDBRANCH  16  17
ENDBRANCH  13  16
ENDBRANCH  12  13
ENDBRANCH  11  12
ENDBRANCH   1  11
TORSDOF 13
ENDMDL
MODEL 7
REMARK VINA RESULT:      -4.2      1.612      2.363
REMARK  13 active torsions:
REMARK  status: ('A' for Active; 'I' for Inactive)
REMARK    1  A    between atoms: C_2  and  C_3 
REMARK    2  A    between atoms: C_3  and  C_4 
REMARK    3  A    between atoms: C_4  and  C_5 
REMARK    4  A    between atoms: C_5  and  C_6 
REMARK    5  A    between atoms: C_6  and  C_7 
REMARK    6  A    between atoms: C_7  and  C_8 
REMARK    7  A    between atoms: C_8  and  C_9 
REMARK    8  A    between atoms: C_9  and  C_10 
REMARK    9  A    between atoms: C_10  and  C_11 
REMARK   10  A    between atoms: C_11  and  C_12 
REMARK   11  A    between atoms: C_12  and  N_13 
REMARK   12  A    between atoms: N_13  and  C_16 
REMARK   13  A    between atoms: C_16  and  C_17 
ROOT
HETATM    1  C   UNK N   1      30.253  27.586  -3.797  0.00  0.00     0.002 C 
ENDROOT
BRANCH   1   2
HETATM    2  C   UNK N   1      29.114  28.545  -4.054  0.00  0.00     0.000 C 
BRANCH   2   3
HETATM    3  C   UNK N   1      27.889  28.039  -3.323  0.00  0.00     0.000 C 
BRANCH   3   4
HETATM    4  C   UNK N   1      26.726  28.997  -3.506  0.00  0.00     0.000 C 
BRANCH   4   5
HETATM    5  C   UNK N   1      25.540  28.314  -4.173  0.00  0.00     0.000 C 
BRANCH   5   6
HETATM    6  C   UNK N   1      25.883  26.883  -4.563  0.00  0.00     0.000 C 
BRANCH   6   7
HETATM    7  C   UNK N   1      24.998  26.443  -5.711  0.00  0.00     0.000 C 
BRANCH   7   8
HETATM    8  C   UNK N   1      25.767  26.586  -7.009  0.00  0.00    -0.000 C 
BRANCH   8   9
HETATM    9  C   UNK N   1      27.247  26.682  -6.716  0.00  0.00    -0.005 C 
HETATM   10  C   UNK N   1      27.807  27.911  -7.400  0.00  0.00     0.005 C 
ENDBRANCH   8   9
ENDBRANCH   7   8
ENDBRANCH   6   7
ENDBRANCH   5   6
ENDBRANCH   4   5
ENDBRANCH   3   4
ENDBRANCH   2   3
ENDBRANCH   1   2
BRANCH   1  11
HETATM   11  C   UNK N   1      29.771  26.163  -3.977  0.00  0.00     0.028 C 
BRANCH  11  12
HETATM   12  C   UNK N   1      30.881  25.170  -3.618  0.00  0.00     0.237 C 
BRANCH  12  13
HETATM   13  N   UNK N   1      31.015  24.033  -4.542  0.00  0.00    -0.065 N 
HETATM   14  C   UNK N   1      30.364  24.282  -5.826  0.00  0.00     0.272 C 
HETATM   15  C   UNK N   1      32.420  23.754  -4.793  0.00  0.00     0.272 C 
BRANCH  13  16
HETATM   16  C   UNK N   1      30.464  22.830  -3.906  0.00  0.00     0.349 C 
BRANCH  16  17
HETATM   17  C   UNK N   1      30.973  22.579  -2.510  0.00  0.00     0.199 C 
HETATM   18  O   UNK N   1      30.296  23.072  -1.457  0.00  0.00    -0.647 OA
HETATM   19  O   UNK N   1      31.983  21.918  -2.326  0.00  0.00    -0.647 OA
ENDBRANCH  16  17
ENDBRANCH  13  16
ENDBRANCH  12  13
ENDBRANCH  11  12
ENDBRANCH   1  11
TORSDOF 13
ENDMDL
MODEL 8
REMARK VINA RESULT:      -4.1     19.811     23.850
REMARK  13 active torsions:
REMARK  status: ('A' for Active; 'I' for Inactive)
REMARK    1  A    between atoms: C_2  and  C_3 
REMARK    2  A    between atoms: C_3  and  C_4 
REMARK    3  A    between atoms: C_4  and  C_5 
REMARK    4  A    between atoms: C_5  and  C_6 
REMARK    5  A    between atoms: C_6  and  C_7 
REMARK    6  A    between atoms: C_7  and  C_8 
REMARK    7  A    between atoms: C_8  and  C_9 
REMARK    8  A    between atoms: C_9  and  C_10 
REMARK    9  A    between atoms: C_10  and  C_11 
REMARK   10  A    between atoms: C_11  and  C_12 
REMARK   11  A    between atoms: C_12  and  N_13 
REMARK   12  A    between atoms: N_13  and  C_16 
REMARK   13  A    between atoms: C_16  and  C_17 
ROOT
HETATM    1  C   UNK N   1      36.294  13.323  14.813  0.00  0.00     0.002 C 
ENDROOT
BRANCH   1   2
HETATM    2  C   UNK N   1      34.906  12.754  15.000  0.00  0.00     0.000 C 
BRANCH   2   3
HETATM    3  C   UNK N   1      34.407  13.154  16.372  0.00  0.00     0.000 C 
BRANCH   3   4
HETATM    4  C   UNK N   1      35.546  13.145  17.376  0.00  0.00     0.000 C 
BRANCH   4   5
HETATM    5  C   UNK N   1      35.196  12.321  18.609  0.00  0.00     0.000 C 
BRANCH   5   6
HETATM    6  C   UNK N   1      35.125  10.839  18.272  0.00  0.00     0.000 C 
BRANCH   6   7
HETATM    7  C   UNK N   1      36.362  10.139  18.794  0.00  0.00     0.000 C 
BRANCH   7   8
HETATM    8  C   UNK N   1      36.932   9.261  17.698  0.00  0.00    -0.000 C 
BRANCH   8   9
HETATM    9  C   UNK N   1      36.311   9.636  16.372  0.00  0.00    -0.005 C 
HETATM   10  C   UNK N   1      37.411   9.834  15.351  0.00  0.00     0.005 C 
ENDBRANCH   8   9
ENDBRANCH   7   8
ENDBRANCH   6   7
ENDBRANCH   5   6
ENDBRANCH   4   5
ENDBRANCH   3   4
ENDBRANCH   2   3
ENDBRANCH   1   2
BRANCH   1  11
HETATM   11  C   UNK N   1      36.617  13.402  13.337  0.00  0.00     0.028 C 
BRANCH  11  12
HETATM   12  C   UNK N   1      35.855  14.557  12.680  0.00  0.00     0.237 C 
BRANCH  12  13
HETATM   13  N   UNK N   1      35.546  14.362  11.254  0.00  0.00    -0.065 N 
HETATM   14  C   UNK N   1      36.736  14.456  10.412  0.00  0.00     0.272 C 
HETATM   15  C   UNK N   1      34.946  13.054  11.047  0.00  0.00     0.272 C 
BRANCH  13  16
HETATM   16  C   UNK N   1      34.539  15.347  10.842  0.00  0.00     0.349 C 
BRANCH  16  17
HETATM   17  C   UNK N   1      35.060  16.415   9.916  0.00  0.00     0.199 C 
HETATM   18  O   UNK N   1      34.991  16.233   8.584  0.00  0.00    -0.647 OA
HETATM   19  O   UNK N   1      35.527  17.451  10.363  0.00  0.00    -0.647 OA
ENDBRANCH  16  17
ENDBRANCH  13  16
ENDBRANCH  12  13
ENDBRANCH  11  12
ENDBRANCH   1  11
TORSDOF 13
ENDMDL
MODEL 9
REMARK VINA RESULT:      -4.1      1.454      3.286
REMARK  13 active torsions:
REMARK  status: ('A' for Active; 'I' for Inactive)
REMARK    1  A    between atoms: C_2  and  C_3 
REMARK    2  A    between atoms: C_3  and  C_4 
REMARK    3  A    between atoms: C_4  and  C_5 
REMARK    4  A    between atoms: C_5  and  C_6 
REMARK    5  A    between atoms: C_6  and  C_7 
REMARK    6  A    between atoms: C_7  and  C_8 
REMARK    7  A    between atoms: C_8  and  C_9 
REMARK    8  A    between atoms: C_9  and  C_10 
REMARK    9  A    between atoms: C_10  and  C_11 
REMARK   10  A    between atoms: C_11  and  C_12 
REMARK   11  A    between atoms: C_12  and  N_13 
REMARK   12  A    between atoms: N_13  and  C_16 
REMARK   13  A    between atoms: C_16  and  C_17 
ROOT
HETATM    1  C   UNK N   1      28.391  22.038  -6.819  0.00  0.00     0.002 C 
ENDROOT
BRANCH   1   2
HETATM    2  C   UNK N   1      27.579  23.243  -7.234  0.00  0.00     0.000 C 
BRANCH   2   3
HETATM    3  C   UNK N   1      26.187  23.104  -6.656  0.00  0.00     0.000 C 
BRANCH   3   4
HETATM    4  C   UNK N   1      25.750  24.403  -6.002  0.00  0.00     0.000 C 
BRANCH   4   5
HETATM    5  C   UNK N   1      25.824  25.571  -6.977  0.00  0.00     0.000 C 
BRANCH   5   6
HETATM    6  C   UNK N   1      25.419  26.873  -6.301  0.00  0.00     0.000 C 
BRANCH   6   7
HETATM    7  C   UNK N   1      25.568  26.734  -4.800  0.00  0.00     0.000 C 
BRANCH   7   8
HETATM    8  C   UNK N   1      25.563  28.114  -4.174  0.00  0.00    -0.000 C 
BRANCH   8   9
HETATM    9  C   UNK N   1      26.685  28.941  -4.758  0.00  0.00    -0.005 C 
HETATM   10  C   UNK N   1      27.560  29.452  -3.634  0.00  0.00     0.005 C 
ENDBRANCH   8   9
ENDBRANCH   7   8
ENDBRANCH   6   7
ENDBRANCH   5   6
ENDBRANCH   4   5
ENDBRANCH   3   4
ENDBRANCH   2   3
ENDBRANCH   1   2
BRANCH   1  11
HETATM   11  C   UNK N   1      29.723  22.488  -6.261  0.00  0.00     0.028 C 
BRANCH  11  12
HETATM   12  C   UNK N   1      29.609  23.894  -5.665  0.00  0.00     0.237 C 
BRANCH  12  13
HETATM   13  N   UNK N   1      29.718  23.954  -4.198  0.00  0.00    -0.065 N 
HETATM   14  C   UNK N   1      30.750  24.889  -3.757  0.00  0.00     0.272 C 
HETATM   15  C   UNK N   1      28.451  24.369  -3.619  0.00  0.00     0.272 C 
BRANCH  13  16
HETATM   16  C   UNK N   1      29.985  22.605  -3.682  0.00  0.00     0.349 C 
BRANCH  16  17
HETATM   17  C   UNK N   1      30.776  22.579  -2.400  0.00  0.00     0.199 C 
HETATM   18  O   UNK N   1      30.221  23.046  -1.266  0.00  0.00    -0.647 OA
HETATM   19  O   UNK N   1      31.907  22.120  -2.377  0.00  0.00    -0.647 OA
ENDBRANCH  16  17
ENDBRANCH  13  16
ENDBRANCH  12  13
ENDBRANCH  11  12
ENDBRANCH   1  11
TORSDOF 13
ENDMDL
