MODEL 1
REMARK VINA RESULT:      -6.1      0.000      0.000
REMARK  3 active torsions:
REMARK  status: ('A' for Active; 'I' for Inactive)
REMARK    1  A    between atoms: S_2  and  N_4 
REMARK    2  A    between atoms: S_2  and  C_5 
REMARK    3  A    between atoms: C_11  and  C_12 
ROOT
HETATM    1  C   UNK N   1      35.539  14.793  12.018  0.00  0.00     0.207 A 
HETATM    2  S   UNK N   1      35.193  13.240  12.510  0.00  0.00    -0.037 SA
HETATM    3  N   UNK N   1      36.432  15.313  12.916  0.00  0.00    -0.282 N 
ATOM      4  HN  UNK N   1      36.836  16.244  12.818  1.00  0.00     0.188 HD
HETATM    5  N   UNK N   1      36.731  14.489  13.945  0.00  0.00    -0.291 N 
ATOM      6  HN  UNK N   1      37.358  14.753  14.704  1.00  0.00     0.187 HD
HETATM    7  C   UNK N   1      36.120  13.276  13.877  0.00  0.00     0.103 A 
ENDROOT
BRANCH   7   8
HETATM    8  C   UNK N   1      36.320  12.144  14.817  0.00  0.00     0.021 A 
HETATM    9  C   UNK N   1      37.217  11.130  14.444  0.00  0.00     0.016 A 
HETATM   10  C   UNK N   1      37.476  10.053  15.291  0.00  0.00     0.001 A 
HETATM   11  C   UNK N   1      36.846   9.977  16.532  0.00  0.00     0.002 A 
HETATM   12  C   UNK N   1      35.953  10.974  16.922  0.00  0.00     0.025 A 
HETATM   13  C   UNK N   1      35.678  12.057  16.079  0.00  0.00     0.047 A 
HETATM   14 Cl   UNK N   1      34.554  13.274  16.671  0.00  0.00    -0.083 Cl
ENDBRANCH   7   8
BRANCH   1  15
HETATM   15  S   UNK N   1      35.182  15.543  10.366  0.00  0.00     0.280 S 
HETATM   16  O   UNK N   1      34.199  16.518   9.703  0.00  0.00    -0.199 OA
HETATM   17  O   UNK N   1      35.291  16.765  11.291  0.00  0.00    -0.199 OA
BRANCH  15  18
HETATM   18  N   UNK N   1      33.591  14.971  10.880  0.00  0.00    -0.323 N 
HETATM   19  H   UNK N   1      32.623  15.288  10.828  0.00  0.00     0.169 HD
HETATM   20  H   UNK N   1      33.660  14.075  11.362  0.00  0.00     0.169 HD
ENDBRANCH  15  18
ENDBRANCH   1  15
TORSDOF 3
ENDMDL
MODEL 2
REMARK VINA RESULT:      -6.1      2.100      2.748
REMARK  3 active torsions:
REMARK  status: ('A' for Active; 'I' for Inactive)
REMARK    1  A    between atoms: S_2  and  N_4 
REMARK    2  A    between atoms: S_2  and  C_5 
REMARK    3  A    between atoms: C_11  and  C_12 
ROOT
HETATM    1  C   UNK N   1      35.952  14.074  12.754  0.00  0.00     0.207 A 
HETATM    2  S   UNK N   1      35.192  12.959  13.729  0.00  0.00    -0.037 SA
HETATM    3  N   UNK N   1      36.858  14.743  13.534  0.00  0.00    -0.282 N 
ATOM      4  HN  UNK N   1      37.486  15.457  13.165  1.00  0.00     0.188 HD
HETATM    5  N   UNK N   1      36.849  14.378  14.836  0.00  0.00    -0.291 N 
ATOM      6  HN  UNK N   1      37.448  14.811  15.538  1.00  0.00     0.187 HD
HETATM    7  C   UNK N   1      35.968  13.384  15.124  0.00  0.00     0.103 A 
ENDROOT
BRANCH   7   8
HETATM    8  C   UNK N   1      35.796  12.726  16.445  0.00  0.00     0.021 A 
HETATM    9  C   UNK N   1      35.266  13.491  17.497  0.00  0.00     0.016 A 
HETATM   10  C   UNK N   1      35.049  12.930  18.754  0.00  0.00     0.001 A 
HETATM   11  C   UNK N   1      35.353  11.589  18.980  0.00  0.00     0.002 A 
HETATM   12  C   UNK N   1      35.880  10.811  17.949  0.00  0.00     0.025 A 
HETATM   13  C   UNK N   1      36.109  11.363  16.683  0.00  0.00     0.047 A 
HETATM   14 Cl   UNK N   1      36.756  10.295  15.443  0.00  0.00    -0.083 Cl
ENDBRANCH   7   8
BRANCH   1  15
HETATM   15  S   UNK N   1      35.946  14.127  10.906  0.00  0.00     0.280 S 
HETATM   16  O   UNK N   1      36.851  14.539   9.737  0.00  0.00    -0.199 OA
HETATM   17  O   UNK N   1      37.237  13.359  11.232  0.00  0.00    -0.199 OA
BRANCH  15  18
HETATM   18  N   UNK N   1      36.496  15.750  11.335  0.00  0.00    -0.323 N 
HETATM   19  H   UNK N   1      36.088  16.677  11.456  0.00  0.00     0.169 HD
HETATM   20  H   UNK N   1      37.501  15.765  11.510  0.00  0.00     0.169 HD
ENDBRANCH  15  18
ENDBRANCH   1  15
TORSDOF 3
ENDMDL
MODEL 3
REMARK VINA RESULT:      -6.1      1.353      1.849
REMARK  3 active torsions:
REMARK  status: ('A' for Active; 'I' for Inactive)
REMARK    1  A    between atoms: S_2  and  N_4 
REMARK    2  A    between atoms: S_2  and  C_5 
REMARK    3  A    between atoms: C_11  and  C_12 
ROOT
HETATM    1  C   UNK N   1      35.520  14.797  12.008  0.00  0.00     0.207 A 
HETATM    2  S   UNK N   1      35.000  13.396  12.744  0.00  0.00    -0.037 SA
HETATM    3  N   UNK N   1      36.485  15.344  12.812  0.00  0.00    -0.282 N 
ATOM      4  HN  UNK N   1      36.995  16.191  12.565  1.00  0.00     0.188 HD
HETATM    5  N   UNK N   1      36.702  14.666  13.961  0.00  0.00    -0.291 N 
ATOM      6  HN  UNK N   1      37.369  14.971  14.668  1.00  0.00     0.187 HD
HETATM    7  C   UNK N   1      35.949  13.541  14.089  0.00  0.00     0.103 A 
ENDROOT
BRANCH   7   8
HETATM    8  C   UNK N   1      36.029  12.559  15.200  0.00  0.00     0.021 A 
HETATM    9  C   UNK N   1      35.257  12.799  16.348  0.00  0.00     0.016 A 
HETATM   10  C   UNK N   1      35.260  11.904  17.417  0.00  0.00     0.001 A 
HETATM   11  C   UNK N   1      36.034  10.747  17.352  0.00  0.00     0.002 A 
HETATM   12  C   UNK N   1      36.808  10.488  16.221  0.00  0.00     0.025 A 
HETATM   13  C   UNK N   1      36.819  11.382  15.144  0.00  0.00     0.047 A 
HETATM   14 Cl   UNK N   1      37.811  10.956  13.754  0.00  0.00    -0.083 Cl
ENDBRANCH   7   8
BRANCH   1  15
HETATM   15  S   UNK N   1      35.227  15.309  10.255  0.00  0.00     0.280 S 
HETATM   16  O   UNK N   1      34.335  16.255   9.439  0.00  0.00    -0.199 OA
HETATM   17  O   UNK N   1      35.453  16.645  10.979  0.00  0.00    -0.199 OA
BRANCH  15  18
HETATM   18  N   UNK N   1      33.592  14.975  10.838  0.00  0.00    -0.323 N 
HETATM   19  H   UNK N   1      32.692  14.700  10.443  0.00  0.00     0.169 HD
HETATM   20  H   UNK N   1      33.531  15.087  11.849  0.00  0.00     0.169 HD
ENDBRANCH  15  18
ENDBRANCH   1  15
TORSDOF 3
ENDMDL
MODEL 4
REMARK VINA RESULT:      -6.0     24.422     25.339
REMARK  3 active torsions:
REMARK  status: ('A' for Active; 'I' for Inactive)
REMARK    1  A    between atoms: S_2  and  N_4 
REMARK    2  A    between atoms: S_2  and  C_5 
REMARK    3  A    between atoms: C_11  and  C_12 
ROOT
HETATM    1  C   UNK N   1      26.177  22.767  -7.965  0.00  0.00     0.207 A 
HETATM    2  S   UNK N   1      26.712  24.295  -7.576  0.00  0.00    -0.037 SA
HETATM    3  N   UNK N   1      25.301  22.382  -6.985  0.00  0.00    -0.282 N 
ATOM      4  HN  UNK N   1      24.798  21.495  -7.010  1.00  0.00     0.188 HD
HETATM    5  N   UNK N   1      25.159  23.278  -5.983  0.00  0.00    -0.291 N 
ATOM      6  HN  UNK N   1      24.563  23.114  -5.172  1.00  0.00     0.187 HD
HETATM    7  C   UNK N   1      25.884  24.415  -6.152  0.00  0.00     0.103 A 
ENDROOT
BRANCH   7   8
HETATM    8  C   UNK N   1      25.865  25.602  -5.259  0.00  0.00     0.021 A 
HETATM    9  C   UNK N   1      25.248  26.772  -5.732  0.00  0.00     0.016 A 
HETATM   10  C   UNK N   1      25.168  27.914  -4.936  0.00  0.00     0.001 A 
HETATM   11  C   UNK N   1      25.698  27.902  -3.647  0.00  0.00     0.002 A 
HETATM   12  C   UNK N   1      26.314  26.751  -3.157  0.00  0.00     0.025 A 
HETATM   13  C   UNK N   1      26.408  25.599  -3.948  0.00  0.00     0.047 A 
HETATM   14 Cl   UNK N   1      27.184  24.192  -3.233  0.00  0.00    -0.083 Cl
ENDBRANCH   7   8
BRANCH   1  15
HETATM   15  S   UNK N   1      26.340  21.912  -9.597  0.00  0.00     0.280 S 
HETATM   16  O   UNK N   1      25.463  21.313 -10.705  0.00  0.00    -0.199 OA
HETATM   17  O   UNK N   1      25.396  23.084  -9.907  0.00  0.00    -0.199 OA
BRANCH  15  18
HETATM   18  N   UNK N   1      25.194  20.880  -8.734  0.00  0.00    -0.323 N 
HETATM   19  H   UNK N   1      24.873  20.747  -7.774  0.00  0.00     0.169 HD
HETATM   20  H   UNK N   1      24.724  20.238  -9.371  0.00  0.00     0.169 HD
ENDBRANCH  15  18
ENDBRANCH   1  15
TORSDOF 3
ENDMDL
MODEL 5
REMARK VINA RESULT:      -6.0      2.049      2.617
REMARK  3 active torsions:
REMARK  status: ('A' for Active; 'I' for Inactive)
REMARK    1  A    between atoms: S_2  and  N_4 
REMARK    2  A    between atoms: S_2  and  C_5 
REMARK    3  A    between atoms: C_11  and  C_12 
ROOT
HETATM    1  C   UNK N   1      35.894  13.922  13.178  0.00  0.00     0.207 A 
HETATM    2  S   UNK N   1      35.079  12.829  14.134  0.00  0.00    -0.037 SA
HETATM    3  N   UNK N   1      36.804  14.561  13.978  0.00  0.00    -0.282 N 
ATOM      4  HN  UNK N   1      37.461  15.255  13.623  1.00  0.00     0.188 HD
HETATM    5  N   UNK N   1      36.756  14.194  15.278  0.00  0.00    -0.291 N 
ATOM      6  HN  UNK N   1      37.354  14.607  15.993  1.00  0.00     0.187 HD
HETATM    7  C   UNK N   1      35.839  13.227  15.546  0.00  0.00     0.103 A 
ENDROOT
BRANCH   7   8
HETATM    8  C   UNK N   1      35.620  12.573  16.861  0.00  0.00     0.021 A 
HETATM    9  C   UNK N   1      35.702  11.173  16.922  0.00  0.00     0.016 A 
HETATM   10  C   UNK N   1      35.537  10.495  18.129  0.00  0.00     0.001 A 
HETATM   11  C   UNK N   1      35.293  11.209  19.300  0.00  0.00     0.002 A 
HETATM   12  C   UNK N   1      35.208  12.601  19.263  0.00  0.00     0.025 A 
HETATM   13  C   UNK N   1      35.366  13.294  18.056  0.00  0.00     0.047 A 
HETATM   14 Cl   UNK N   1      35.263  15.050  18.116  0.00  0.00    -0.083 Cl
ENDBRANCH   7   8
BRANCH   1  15
HETATM   15  S   UNK N   1      35.928  13.977  11.330  0.00  0.00     0.280 S 
HETATM   16  O   UNK N   1      36.847  14.416  10.182  0.00  0.00    -0.199 OA
HETATM   17  O   UNK N   1      37.231  13.245  11.683  0.00  0.00    -0.199 OA
BRANCH  15  18
HETATM   18  N   UNK N   1      36.424  15.614  11.773  0.00  0.00    -0.323 N 
HETATM   19  H   UNK N   1      35.990  16.532  11.879  0.00  0.00     0.169 HD
HETATM   20  H   UNK N   1      37.422  15.654  11.981  0.00  0.00     0.169 HD
ENDBRANCH  15  18
ENDBRANCH   1  15
TORSDOF 3
ENDMDL
MODEL 6
REMARK VINA RESULT:      -6.0      5.710      8.794
REMARK  3 active torsions:
REMARK  status: ('A' for Active; 'I' for Inactive)
REMARK    1  A    between atoms: S_2  and  N_4 
REMARK    2  A    between atoms: S_2  and  C_5 
REMARK    3  A    between atoms: C_11  and  C_12 
ROOT
HETATM    1  C   UNK N   1      34.945  15.569   9.918  0.00  0.00     0.207 A 
HETATM    2  S   UNK N   1      34.381  15.185   8.399  0.00  0.00    -0.037 SA
HETATM    3  N   UNK N   1      34.535  16.847  10.192  0.00  0.00    -0.282 N 
ATOM      4  HN  UNK N   1      34.718  17.307  11.083  1.00  0.00     0.188 HD
HETATM    5  N   UNK N   1      33.867  17.446   9.180  0.00  0.00    -0.291 N 
ATOM      6  HN  UNK N   1      33.528  18.406   9.231  1.00  0.00     0.187 HD
HETATM    7  C   UNK N   1      33.691  16.654   8.090  0.00  0.00     0.103 A 
ENDROOT
BRANCH   7   8
HETATM    8  C   UNK N   1      32.929  17.012   6.866  0.00  0.00     0.021 A 
HETATM    9  C   UNK N   1      33.653  17.250   5.686  0.00  0.00     0.016 A 
HETATM   10  C   UNK N   1      33.001  17.561   4.494  0.00  0.00     0.001 A 
HETATM   11  C   UNK N   1      31.610  17.631   4.459  0.00  0.00     0.002 A 
HETATM   12  C   UNK N   1      30.871  17.397   5.619  0.00  0.00     0.025 A 
HETATM   13  C   UNK N   1      31.513  17.091   6.825  0.00  0.00     0.047 A 
HETATM   14 Cl   UNK N   1      30.493  16.791   8.227  0.00  0.00    -0.083 Cl
ENDBRANCH   7   8
BRANCH   1  15
HETATM   15  S   UNK N   1      35.592  14.398  11.194  0.00  0.00     0.280 S 
HETATM   16  O   UNK N   1      35.819  14.316  12.710  0.00  0.00    -0.199 OA
HETATM   17  O   UNK N   1      34.202  14.770  11.732  0.00  0.00    -0.199 OA
BRANCH  15  18
HETATM   18  N   UNK N   1      36.433  15.901  11.589  0.00  0.00    -0.323 N 
HETATM   19  H   UNK N   1      37.389  16.258  11.573  0.00  0.00     0.169 HD
HETATM   20  H   UNK N   1      35.782  16.610  11.928  0.00  0.00     0.169 HD
ENDBRANCH  15  18
ENDBRANCH   1  15
TORSDOF 3
ENDMDL
MODEL 7
REMARK VINA RESULT:      -5.9      2.623      3.390
REMARK  3 active torsions:
REMARK  status: ('A' for Active; 'I' for Inactive)
REMARK    1  A    between atoms: S_2  and  N_4 
REMARK    2  A    between atoms: S_2  and  C_5 
REMARK    3  A    between atoms: C_11  and  C_12 
ROOT
HETATM    1  C   UNK N   1      34.772  15.866   9.693  0.00  0.00     0.207 A 
HETATM    2  S   UNK N   1      36.163  15.349  10.450  0.00  0.00    -0.037 SA
HETATM    3  N   UNK N   1      33.715  15.309  10.362  0.00  0.00    -0.282 N 
ATOM      4  HN  UNK N   1      32.744  15.503  10.119  1.00  0.00     0.188 HD
HETATM    5  N   UNK N   1      34.068  14.481  11.370  0.00  0.00    -0.291 N 
ATOM      6  HN  UNK N   1      33.388  13.974  11.936  1.00  0.00     0.187 HD
HETATM    7  C   UNK N   1      35.410  14.385  11.561  0.00  0.00     0.103 A 
ENDROOT
BRANCH   7   8
HETATM    8  C   UNK N   1      36.085  13.618  12.639  0.00  0.00     0.021 A 
HETATM    9  C   UNK N   1      36.152  14.198  13.916  0.00  0.00     0.016 A 
HETATM   10  C   UNK N   1      36.744  13.522  14.982  0.00  0.00     0.001 A 
HETATM   11  C   UNK N   1      37.274  12.248  14.790  0.00  0.00     0.002 A 
HETATM   12  C   UNK N   1      37.218  11.653  13.529  0.00  0.00     0.025 A 
HETATM   13  C   UNK N   1      36.632  12.323  12.449  0.00  0.00     0.047 A 
HETATM   14 Cl   UNK N   1      36.591  11.480  10.905  0.00  0.00    -0.083 Cl
ENDBRANCH   7   8
BRANCH   1  15
HETATM   15  S   UNK N   1      34.612  17.262   8.490  0.00  0.00     0.280 S 
HETATM   16  O   UNK N   1      34.082  18.701   8.420  0.00  0.00    -0.199 OA
HETATM   17  O   UNK N   1      35.324  17.910   9.688  0.00  0.00    -0.199 OA
BRANCH  15  18
HETATM   18  N   UNK N   1      32.989  17.160   9.180  0.00  0.00    -0.323 N 
HETATM   19  H   UNK N   1      32.353  17.761   9.706  0.00  0.00     0.169 HD
HETATM   20  H   UNK N   1      32.570  16.247   9.003  0.00  0.00     0.169 HD
ENDBRANCH  15  18
ENDBRANCH   1  15
TORSDOF 3
ENDMDL
MODEL 8
REMARK VINA RESULT:      -5.9      6.594      9.146
REMARK  3 active torsions:
REMARK  status: ('A' for Active; 'I' for Inactive)
REMARK    1  A    between atoms: S_2  and  N_4 
REMARK    2  A    between atoms: S_2  and  C_5 
REMARK    3  A    between atoms: C_11  and  C_12 
ROOT
HETATM    1  C   UNK N   1      34.008  16.680   9.366  0.00  0.00     0.207 A 
HETATM    2  S   UNK N   1      32.538  15.959   9.065  0.00  0.00    -0.037 SA
HETATM    3  N   UNK N   1      33.986  17.912   8.767  0.00  0.00    -0.282 N 
ATOM      4  HN  UNK N   1      34.757  18.575   8.837  1.00  0.00     0.188 HD
HETATM    5  N   UNK N   1      32.854  18.174   8.075  0.00  0.00    -0.291 N 
ATOM      6  HN  UNK N   1      32.709  19.039   7.556  1.00  0.00     0.187 HD
HETATM    7  C   UNK N   1      31.928  17.181   8.134  0.00  0.00     0.103 A 
ENDROOT
BRANCH   7   8
HETATM    8  C   UNK N   1      30.567  17.221   7.543  0.00  0.00     0.021 A 
HETATM    9  C   UNK N   1      30.373  16.610   6.293  0.00  0.00     0.016 A 
HETATM   10  C   UNK N   1      29.115  16.584   5.694  0.00  0.00     0.001 A 
HETATM   11  C   UNK N   1      28.024  17.163   6.339  0.00  0.00     0.002 A 
HETATM   12  C   UNK N   1      28.194  17.775   7.581  0.00  0.00     0.025 A 
HETATM   13  C   UNK N   1      29.453  17.814   8.192  0.00  0.00     0.047 A 
HETATM   14 Cl   UNK N   1      29.560  18.589   9.768  0.00  0.00    -0.083 Cl
ENDBRANCH   7   8
BRANCH   1  15
HETATM   15  S   UNK N   1      35.265  16.167  10.621  0.00  0.00     0.280 S 
HETATM   16  O   UNK N   1      36.786  16.055  10.787  0.00  0.00    -0.199 OA
HETATM   17  O   UNK N   1      35.721  17.579  10.225  0.00  0.00    -0.199 OA
BRANCH  15  18
HETATM   18  N   UNK N   1      35.796  15.308   9.172  0.00  0.00    -0.323 N 
HETATM   19  H   UNK N   1      35.368  14.846   8.369  0.00  0.00     0.169 HD
HETATM   20  H   UNK N   1      36.814  15.259   9.125  0.00  0.00     0.169 HD
ENDBRANCH  15  18
ENDBRANCH   1  15
TORSDOF 3
ENDMDL
MODEL 9
REMARK VINA RESULT:      -5.8     20.930     23.192
REMARK  3 active torsions:
REMARK  status: ('A' for Active; 'I' for Inactive)
REMARK    1  A    between atoms: S_2  and  N_4 
REMARK    2  A    between atoms: S_2  and  C_5 
REMARK    3  A    between atoms: C_11  and  C_12 
ROOT
HETATM    1  C   UNK N   1      30.045  23.556  -3.621  0.00  0.00     0.207 A 
HETATM    2  S   UNK N   1      28.439  23.693  -4.040  0.00  0.00    -0.037 SA
HETATM    3  N   UNK N   1      30.552  24.825  -3.534  0.00  0.00    -0.282 N 
ATOM      4  HN  UNK N   1      31.512  25.019  -3.251  1.00  0.00     0.188 HD
HETATM    5  N   UNK N   1      29.671  25.799  -3.854  0.00  0.00    -0.291 N 
ATOM      6  HN  UNK N   1      29.916  26.789  -3.862  1.00  0.00     0.187 HD
HETATM    7  C   UNK N   1      28.430  25.341  -4.167  0.00  0.00     0.103 A 
ENDROOT
BRANCH   7   8
HETATM    8  C   UNK N   1      27.244  26.177  -4.479  0.00  0.00     0.021 A 
HETATM    9  C   UNK N   1      26.734  27.002  -3.463  0.00  0.00     0.016 A 
HETATM   10  C   UNK N   1      25.641  27.837  -3.695  0.00  0.00     0.001 A 
HETATM   11  C   UNK N   1      25.043  27.865  -4.953  0.00  0.00     0.002 A 
HETATM   12  C   UNK N   1      25.534  27.055  -5.977  0.00  0.00     0.025 A 
HETATM   13  C   UNK N   1      26.626  26.208  -5.756  0.00  0.00     0.047 A 
HETATM   14 Cl   UNK N   1      27.184  25.241  -7.116  0.00  0.00    -0.083 Cl
ENDBRANCH   7   8
BRANCH   1  15
HETATM   15  S   UNK N   1      30.898  22.057  -2.952  0.00  0.00     0.280 S 
HETATM   16  O   UNK N   1      32.173  21.669  -2.192  0.00  0.00    -0.199 OA
HETATM   17  O   UNK N   1      30.826  22.993  -1.736  0.00  0.00    -0.199 OA
BRANCH  15  18
HETATM   18  N   UNK N   1      32.193  22.876  -3.832  0.00  0.00    -0.323 N 
HETATM   19  H   UNK N   1      32.286  23.651  -4.489  0.00  0.00     0.169 HD
HETATM   20  H   UNK N   1      33.100  22.459  -3.626  0.00  0.00     0.169 HD
ENDBRANCH  15  18
ENDBRANCH   1  15
TORSDOF 3
ENDMDL
