MODEL 1
REMARK VINA RESULT:      -6.6      0.000      0.000
REMARK  16 active torsions:
REMARK  status: ('A' for Active; 'I' for Inactive)
REMARK    1  A    between atoms: C_1  and  C_2 
REMARK    2  A    between atoms: C_1  and  C_28 
REMARK    3  A    between atoms: C_2  and  C_3 
REMARK    4  A    between atoms: C_3  and  C_4 
REMARK    5  A    between atoms: C_4  and  C_5 
REMARK    6  A    between atoms: C_5  and  C_6 
REMARK    7  A    between atoms: C_6  and  O_7 
REMARK    8  A    between atoms: C_8  and  O_7 
REMARK    9  A    between atoms: C_10  and  C_11 
REMARK   10  A    between atoms: C_11  and  O_12 
REMARK   11  A    between atoms: C_13  and  O_14 
REMARK   12  A    between atoms: C_16  and  O_17 
REMARK   13  A    between atoms: C_18  and  O_17 
REMARK   14  A    between atoms: C_22  and  O_23 
REMARK   15  A    between atoms: C_24  and  O_25 
REMARK   16  A    between atoms: C_26  and  O_27 
ROOT
HETATM    1  C   UNK N   1      22.619  19.608   3.677  0.00  0.00     0.289 C 
HETATM    2  O   UNK N   1      22.179  20.008   2.393  0.00  0.00    -0.349 OA
HETATM    3  C   UNK N   1      20.760  19.864   2.228  0.00  0.00     0.177 C 
HETATM    4  C   UNK N   1      20.087  18.895   3.254  0.00  0.00     0.151 C 
HETATM    5  C   UNK N   1      20.984  17.679   3.415  0.00  0.00     0.071 C 
HETATM    6  C   UNK N   1      22.400  18.085   3.923  0.00  0.00     0.182 C 
ENDROOT
BRANCH   6   7
HETATM    7  O   UNK N   1      22.631  17.865   5.308  0.00  0.00    -0.348 OA
BRANCH   7   8
HETATM    8  C   UNK N   1      21.661  17.055   5.941  0.00  0.00     0.292 C 
HETATM    9  O   UNK N   1      21.137  17.773   7.051  0.00  0.00    -0.351 OA
HETATM   10  C   UNK N   1      20.147  17.019   7.726  0.00  0.00     0.152 C 
HETATM   11  C   UNK N   1      19.546  17.895   8.811  0.00  0.00     0.042 C 
HETATM   12  C   UNK N   1      20.779  15.763   8.352  0.00  0.00     0.178 C 
HETATM   13  C   UNK N   1      21.389  14.917   7.229  0.00  0.00     0.183 C 
HETATM   14  C   UNK N   1      22.374  15.781   6.434  0.00  0.00     0.204 C 
BRANCH  12  15
HETATM   15  O   UNK N   1      19.816  15.019   9.038  0.00  0.00    -0.390 OA
HETATM   16  H   UNK N   1      19.315  15.339   9.806  0.00  0.00     0.210 HD
ENDBRANCH  12  15
BRANCH  13  17
HETATM   17  O   UNK N   1      22.048  13.806   7.766  0.00  0.00    -0.390 OA
HETATM   18  H   UNK N   1      21.592  12.988   8.018  0.00  0.00     0.210 HD
ENDBRANCH  13  17
BRANCH  14  19
HETATM   19  O   UNK N   1      22.880  15.060   5.350  0.00  0.00    -0.388 OA
HETATM   20  H   UNK N   1      22.523  15.090   4.448  0.00  0.00     0.210 HD
ENDBRANCH  14  19
ENDBRANCH   7   8
ENDBRANCH   6   7
BRANCH   1  21
HETATM   21  O   UNK N   1      23.945  20.034   3.924  0.00  0.00    -0.359 OA
BRANCH  21  22
HETATM   22  C   UNK N   1      24.481  20.653   2.786  0.00  0.00     0.171 C 
BRANCH  22  23
HETATM   23  C   UNK N   1      25.998  20.660   2.898  0.00  0.00     0.026 C 
BRANCH  23  24
HETATM   24  C   UNK N   1      26.465  19.479   3.742  0.00  0.00     0.002 C 
BRANCH  24  25
HETATM   25  C   UNK N   1      27.724  19.802   4.532  0.00  0.00     0.000 C 
BRANCH  25  26
HETATM   26  C   UNK N   1      27.482  20.903   5.552  0.00  0.00     0.000 C 
BRANCH  26  27
HETATM   27  C   UNK N   1      27.286  20.291   6.930  0.00  0.00    -0.000 C 
BRANCH  27  28
HETATM   28  C   UNK N   1      28.051  18.983   7.068  0.00  0.00    -0.005 C 
HETATM   29  C   UNK N   1      28.326  18.656   8.525  0.00  0.00     0.005 C 
ENDBRANCH  27  28
ENDBRANCH  26  27
ENDBRANCH  25  26
ENDBRANCH  24  25
ENDBRANCH  23  24
ENDBRANCH  22  23
ENDBRANCH  21  22
ENDBRANCH   1  21
BRANCH   4  30
HETATM   30  O   UNK N   1      18.800  18.514   2.863  0.00  0.00    -0.393 OA
HETATM   31  H   UNK N   1      18.121  19.149   2.589  0.00  0.00     0.210 HD
ENDBRANCH   4  30
BRANCH   3  32
HETATM   32  C   UNK N   1      20.546  19.389   0.790  0.00  0.00     0.198 C 
BRANCH  32  33
HETATM   33  O   UNK N   1      20.555  20.467  -0.098  0.00  0.00    -0.398 OA
HETATM   34  H   UNK N   1      21.010  21.290   0.142  0.00  0.00     0.209 HD
ENDBRANCH  32  33
ENDBRANCH   3  32
TORSDOF 16
ENDMDL
MODEL 2
REMARK VINA RESULT:      -6.6      4.293      7.960
REMARK  16 active torsions:
REMARK  status: ('A' for Active; 'I' for Inactive)
REMARK    1  A    between atoms: C_1  and  C_2 
REMARK    2  A    between atoms: C_1  and  C_28 
REMARK    3  A    between atoms: C_2  and  C_3 
REMARK    4  A    between atoms: C_3  and  C_4 
REMARK    5  A    between atoms: C_4  and  C_5 
REMARK    6  A    between atoms: C_5  and  C_6 
REMARK    7  A    between atoms: C_6  and  O_7 
REMARK    8  A    between atoms: C_8  and  O_7 
REMARK    9  A    between atoms: C_10  and  C_11 
REMARK   10  A    between atoms: C_11  and  O_12 
REMARK   11  A    between atoms: C_13  and  O_14 
REMARK   12  A    between atoms: C_16  and  O_17 
REMARK   13  A    between atoms: C_18  and  O_17 
REMARK   14  A    between atoms: C_22  and  O_23 
REMARK   15  A    between atoms: C_24  and  O_25 
REMARK   16  A    between atoms: C_26  and  O_27 
ROOT
HETATM    1  C   UNK N   1      29.392  17.326   5.975  0.00  0.00     0.289 C 
HETATM    2  O   UNK N   1      30.228  17.530   7.099  0.00  0.00    -0.349 OA
HETATM    3  C   UNK N   1      29.490  17.611   8.328  0.00  0.00     0.177 C 
HETATM    4  C   UNK N   1      27.970  17.933   8.146  0.00  0.00     0.151 C 
HETATM    5  C   UNK N   1      27.838  19.009   7.081  0.00  0.00     0.071 C 
HETATM    6  C   UNK N   1      28.443  18.537   5.725  0.00  0.00     0.182 C 
ENDROOT
BRANCH   6   7
HETATM    7  O   UNK N   1      27.496  18.110   4.755  0.00  0.00    -0.348 OA
BRANCH   7   8
HETATM    8  C   UNK N   1      26.263  18.802   4.799  0.00  0.00     0.292 C 
HETATM    9  O   UNK N   1      25.220  17.846   4.937  0.00  0.00    -0.351 OA
HETATM   10  C   UNK N   1      23.954  18.477   4.998  0.00  0.00     0.152 C 
HETATM   11  C   UNK N   1      22.910  17.411   5.275  0.00  0.00     0.042 C 
HETATM   12  C   UNK N   1      23.651  19.178   3.662  0.00  0.00     0.178 C 
HETATM   13  C   UNK N   1      24.736  20.231   3.409  0.00  0.00     0.183 C 
HETATM   14  C   UNK N   1      26.109  19.553   3.462  0.00  0.00     0.204 C 
BRANCH  12  15
HETATM   15  O   UNK N   1      22.395  19.788   3.701  0.00  0.00    -0.390 OA
HETATM   16  H   UNK N   1      22.229  20.691   4.016  0.00  0.00     0.210 HD
ENDBRANCH  12  15
BRANCH  13  17
HETATM   17  O   UNK N   1      24.543  20.832   2.162  0.00  0.00    -0.390 OA
HETATM   18  H   UNK N   1      24.300  21.765   2.053  0.00  0.00     0.210 HD
ENDBRANCH  13  17
BRANCH  14  19
HETATM   19  O   UNK N   1      27.121  20.506   3.323  0.00  0.00    -0.388 OA
HETATM   20  H   UNK N   1      27.165  21.170   2.617  0.00  0.00     0.210 HD
ENDBRANCH  14  19
ENDBRANCH   7   8
ENDBRANCH   6   7
BRANCH   1  21
HETATM   21  O   UNK N   1      30.140  16.951   4.836  0.00  0.00    -0.359 OA
BRANCH  21  22
HETATM   22  C   UNK N   1      31.150  16.045   5.190  0.00  0.00     0.171 C 
BRANCH  22  23
HETATM   23  C   UNK N   1      32.413  16.389   4.414  0.00  0.00     0.026 C 
BRANCH  23  24
HETATM   24  C   UNK N   1      33.104  17.592   5.046  0.00  0.00     0.002 C 
BRANCH  24  25
HETATM   25  C   UNK N   1      33.925  17.203   6.267  0.00  0.00     0.000 C 
BRANCH  25  26
HETATM   26  C   UNK N   1      33.584  18.063   7.473  0.00  0.00     0.000 C 
BRANCH  26  27
HETATM   27  C   UNK N   1      33.652  17.223   8.738  0.00  0.00    -0.000 C 
BRANCH  27  28
HETATM   28  C   UNK N   1      33.533  15.739   8.424  0.00  0.00    -0.005 C 
HETATM   29  C   UNK N   1      32.231  15.165   8.953  0.00  0.00     0.005 C 
ENDBRANCH  27  28
ENDBRANCH  26  27
ENDBRANCH  25  26
ENDBRANCH  24  25
ENDBRANCH  23  24
ENDBRANCH  22  23
ENDBRANCH  21  22
ENDBRANCH   1  21
BRANCH   4  30
HETATM   30  O   UNK N   1      27.365  18.339   9.339  0.00  0.00    -0.393 OA
HETATM   31  H   UNK N   1      27.157  19.265   9.537  0.00  0.00     0.210 HD
ENDBRANCH   4  30
BRANCH   3  32
HETATM   32  C   UNK N   1      30.188  18.678   9.172  0.00  0.00     0.198 C 
BRANCH  32  33
HETATM   33  O   UNK N   1      29.787  18.597  10.509  0.00  0.00    -0.398 OA
HETATM   34  H   UNK N   1      29.693  17.731  10.936  0.00  0.00     0.209 HD
ENDBRANCH  32  33
ENDBRANCH   3  32
TORSDOF 16
ENDMDL
MODEL 3
REMARK VINA RESULT:      -6.5      8.042     11.874
REMARK  16 active torsions:
REMARK  status: ('A' for Active; 'I' for Inactive)
REMARK    1  A    between atoms: C_1  and  C_2 
REMARK    2  A    between atoms: C_1  and  C_28 
REMARK    3  A    between atoms: C_2  and  C_3 
REMARK    4  A    between atoms: C_3  and  C_4 
REMARK    5  A    between atoms: C_4  and  C_5 
REMARK    6  A    between atoms: C_5  and  C_6 
REMARK    7  A    between atoms: C_6  and  O_7 
REMARK    8  A    between atoms: C_8  and  O_7 
REMARK    9  A    between atoms: C_10  and  C_11 
REMARK   10  A    between atoms: C_11  and  O_12 
REMARK   11  A    between atoms: C_13  and  O_14 
REMARK   12  A    between atoms: C_16  and  O_17 
REMARK   13  A    between atoms: C_18  and  O_17 
REMARK   14  A    between atoms: C_22  and  O_23 
REMARK   15  A    between atoms: C_24  and  O_25 
REMARK   16  A    between atoms: C_26  and  O_27 
ROOT
HETATM    1  C   UNK N   1      32.099  16.453   7.303  0.00  0.00     0.289 C 
HETATM    2  O   UNK N   1      31.814  17.344   6.241  0.00  0.00    -0.349 OA
HETATM    3  C   UNK N   1      31.742  16.681   4.970  0.00  0.00     0.177 C 
HETATM    4  C   UNK N   1      32.435  15.279   4.934  0.00  0.00     0.151 C 
HETATM    5  C   UNK N   1      33.748  15.381   5.692  0.00  0.00     0.071 C 
HETATM    6  C   UNK N   1      33.515  15.817   7.170  0.00  0.00     0.182 C 
ENDROOT
BRANCH   6   7
HETATM    7  O   UNK N   1      33.576  14.768   8.126  0.00  0.00    -0.348 OA
BRANCH   7   8
HETATM    8  C   UNK N   1      34.518  14.974   9.160  0.00  0.00     0.292 C 
HETATM    9  O   UNK N   1      35.726  14.315   8.801  0.00  0.00    -0.351 OA
HETATM   10  C   UNK N   1      36.719  14.492   9.794  0.00  0.00     0.152 C 
HETATM   11  C   UNK N   1      38.010  13.876   9.283  0.00  0.00     0.042 C 
HETATM   12  C   UNK N   1      36.286  13.804  11.100  0.00  0.00     0.178 C 
HETATM   13  C   UNK N   1      34.973  14.439  11.571  0.00  0.00     0.183 C 
HETATM   14  C   UNK N   1      33.941  14.343  10.442  0.00  0.00     0.204 C 
BRANCH  12  15
HETATM   15  O   UNK N   1      37.267  13.954  12.083  0.00  0.00    -0.390 OA
HETATM   16  H   UNK N   1      37.724  14.786  12.285  0.00  0.00     0.210 HD
ENDBRANCH  12  15
BRANCH  13  17
HETATM   17  O   UNK N   1      34.502  13.783  12.712  0.00  0.00    -0.390 OA
HETATM   18  H   UNK N   1      33.571  13.793  12.985  0.00  0.00     0.210 HD
ENDBRANCH  13  17
BRANCH  14  19
HETATM   19  O   UNK N   1      32.762  14.994  10.813  0.00  0.00    -0.388 OA
HETATM   20  H   UNK N   1      32.286  14.850  11.646  0.00  0.00     0.210 HD
ENDBRANCH  14  19
ENDBRANCH   7   8
ENDBRANCH   6   7
BRANCH   1  21
HETATM   21  O   UNK N   1      31.868  17.057   8.560  0.00  0.00    -0.359 OA
BRANCH  21  22
HETATM   22  C   UNK N   1      30.509  16.983   8.898  0.00  0.00     0.171 C 
BRANCH  22  23
HETATM   23  C   UNK N   1      30.041  18.357   9.356  0.00  0.00     0.026 C 
BRANCH  23  24
HETATM   24  C   UNK N   1      28.694  18.687   8.721  0.00  0.00     0.002 C 
BRANCH  24  25
HETATM   25  C   UNK N   1      28.369  17.764   7.557  0.00  0.00     0.000 C 
BRANCH  25  26
HETATM   26  C   UNK N   1      27.870  18.539   6.347  0.00  0.00     0.000 C 
BRANCH  26  27
HETATM   27  C   UNK N   1      27.660  19.997   6.722  0.00  0.00    -0.000 C 
BRANCH  27  28
HETATM   28  C   UNK N   1      27.379  20.850   5.494  0.00  0.00    -0.005 C 
HETATM   29  C   UNK N   1      27.415  20.017   4.224  0.00  0.00     0.005 C 
ENDBRANCH  27  28
ENDBRANCH  26  27
ENDBRANCH  25  26
ENDBRANCH  24  25
ENDBRANCH  23  24
ENDBRANCH  22  23
ENDBRANCH  21  22
ENDBRANCH   1  21
BRANCH   4  30
HETATM   30  O   UNK N   1      32.648  14.823   3.631  0.00  0.00    -0.393 OA
HETATM   31  H   UNK N   1      32.314  13.973   3.307  0.00  0.00     0.210 HD
ENDBRANCH   4  30
BRANCH   3  32
HETATM   32  C   UNK N   1      32.371  17.638   3.956  0.00  0.00     0.198 C 
BRANCH  32  33
HETATM   33  O   UNK N   1      31.829  17.443   2.683  0.00  0.00    -0.398 OA
HETATM   34  H   UNK N   1      32.131  16.701   2.135  0.00  0.00     0.209 HD
ENDBRANCH  32  33
ENDBRANCH   3  32
TORSDOF 16
ENDMDL
MODEL 4
REMARK VINA RESULT:      -6.2      1.839      2.225
REMARK  16 active torsions:
REMARK  status: ('A' for Active; 'I' for Inactive)
REMARK    1  A    between atoms: C_1  and  C_2 
REMARK    2  A    between atoms: C_1  and  C_28 
REMARK    3  A    between atoms: C_2  and  C_3 
REMARK    4  A    between atoms: C_3  and  C_4 
REMARK    5  A    between atoms: C_4  and  C_5 
REMARK    6  A    between atoms: C_5  and  C_6 
REMARK    7  A    between atoms: C_6  and  O_7 
REMARK    8  A    between atoms: C_8  and  O_7 
REMARK    9  A    between atoms: C_10  and  C_11 
REMARK   10  A    between atoms: C_11  and  O_12 
REMARK   11  A    between atoms: C_13  and  O_14 
REMARK   12  A    between atoms: C_16  and  O_17 
REMARK   13  A    between atoms: C_18  and  O_17 
REMARK   14  A    between atoms: C_22  and  O_23 
REMARK   15  A    between atoms: C_24  and  O_25 
REMARK   16  A    between atoms: C_26  and  O_27 
ROOT
HETATM    1  C   UNK N   1      22.081  19.055   3.782  0.00  0.00     0.289 C 
HETATM    2  O   UNK N   1      21.911  19.771   2.573  0.00  0.00    -0.349 OA
HETATM    3  C   UNK N   1      20.531  19.897   2.197  0.00  0.00     0.177 C 
HETATM    4  C   UNK N   1      19.579  18.865   2.885  0.00  0.00     0.151 C 
HETATM    5  C   UNK N   1      20.269  17.512   2.886  0.00  0.00     0.071 C 
HETATM    6  C   UNK N   1      21.625  17.571   3.652  0.00  0.00     0.182 C 
ENDROOT
BRANCH   6   7
HETATM    7  O   UNK N   1      21.599  17.042   4.971  0.00  0.00    -0.348 OA
BRANCH   7   8
HETATM    8  C   UNK N   1      22.218  15.779   5.107  0.00  0.00     0.292 C 
HETATM    9  O   UNK N   1      21.245  14.853   5.574  0.00  0.00    -0.351 OA
HETATM   10  C   UNK N   1      21.801  13.559   5.722  0.00  0.00     0.152 C 
HETATM   11  C   UNK N   1      20.680  12.606   6.096  0.00  0.00     0.042 C 
HETATM   12  C   UNK N   1      22.874  13.571   6.825  0.00  0.00     0.178 C 
HETATM   13  C   UNK N   1      23.975  14.557   6.421  0.00  0.00     0.183 C 
HETATM   14  C   UNK N   1      23.342  15.926   6.151  0.00  0.00     0.204 C 
BRANCH  12  15
HETATM   15  O   UNK N   1      23.416  12.294   6.995  0.00  0.00    -0.390 OA
HETATM   16  H   UNK N   1      24.254  12.106   7.448  0.00  0.00     0.210 HD
ENDBRANCH  12  15
BRANCH  13  17
HETATM   17  O   UNK N   1      24.929  14.659   7.438  0.00  0.00    -0.390 OA
HETATM   18  H   UNK N   1      25.523  15.419   7.535  0.00  0.00     0.210 HD
ENDBRANCH  13  17
BRANCH  14  19
HETATM   19  O   UNK N   1      24.312  16.822   5.694  0.00  0.00    -0.388 OA
HETATM   20  H   UNK N   1      24.578  16.927   4.767  0.00  0.00     0.210 HD
ENDBRANCH  14  19
ENDBRANCH   7   8
ENDBRANCH   6   7
BRANCH   1  21
HETATM   21  O   UNK N   1      23.394  19.200   4.287  0.00  0.00    -0.359 OA
BRANCH  21  22
HETATM   22  C   UNK N   1      24.189  19.921   3.385  0.00  0.00     0.171 C 
BRANCH  22  23
HETATM   23  C   UNK N   1      25.581  19.306   3.357  0.00  0.00     0.026 C 
BRANCH  23  24
HETATM   24  C   UNK N   1      26.638  20.403   3.412  0.00  0.00     0.002 C 
BRANCH  24  25
HETATM   25  C   UNK N   1      27.618  20.197   4.557  0.00  0.00     0.000 C 
BRANCH  25  26
HETATM   26  C   UNK N   1      26.963  20.431   5.908  0.00  0.00     0.000 C 
BRANCH  26  27
HETATM   27  C   UNK N   1      27.775  19.748   6.998  0.00  0.00    -0.000 C 
BRANCH  27  28
HETATM   28  C   UNK N   1      28.015  18.281   6.671  0.00  0.00    -0.005 C 
HETATM   29  C   UNK N   1      29.147  17.708   7.505  0.00  0.00     0.005 C 
ENDBRANCH  27  28
ENDBRANCH  26  27
ENDBRANCH  25  26
ENDBRANCH  24  25
ENDBRANCH  23  24
ENDBRANCH  22  23
ENDBRANCH  21  22
ENDBRANCH   1  21
BRANCH   4  30
HETATM   30  O   UNK N   1      18.334  18.786   2.255  0.00  0.00    -0.393 OA
HETATM   31  H   UNK N   1      18.004  19.466   1.648  0.00  0.00     0.210 HD
ENDBRANCH   4  30
BRANCH   3  32
HETATM   32  C   UNK N   1      20.492  19.761   0.674  0.00  0.00     0.198 C 
BRANCH  32  33
HETATM   33  O   UNK N   1      20.774  20.983   0.057  0.00  0.00    -0.398 OA
HETATM   34  H   UNK N   1      20.611  21.814   0.529  0.00  0.00     0.209 HD
ENDBRANCH  32  33
ENDBRANCH   3  32
TORSDOF 16
ENDMDL
MODEL 5
REMARK VINA RESULT:      -6.1      5.120      9.373
REMARK  16 active torsions:
REMARK  status: ('A' for Active; 'I' for Inactive)
REMARK    1  A    between atoms: C_1  and  C_2 
REMARK    2  A    between atoms: C_1  and  C_28 
REMARK    3  A    between atoms: C_2  and  C_3 
REMARK    4  A    between atoms: C_3  and  C_4 
REMARK    5  A    between atoms: C_4  and  C_5 
REMARK    6  A    between atoms: C_5  and  C_6 
REMARK    7  A    between atoms: C_6  and  O_7 
REMARK    8  A    between atoms: C_8  and  O_7 
REMARK    9  A    between atoms: C_10  and  C_11 
REMARK   10  A    between atoms: C_11  and  O_12 
REMARK   11  A    between atoms: C_13  and  O_14 
REMARK   12  A    between atoms: C_16  and  O_17 
REMARK   13  A    between atoms: C_18  and  O_17 
REMARK   14  A    between atoms: C_22  and  O_23 
REMARK   15  A    between atoms: C_24  and  O_25 
REMARK   16  A    between atoms: C_26  and  O_27 
ROOT
HETATM    1  C   UNK N   1      27.098  16.437   6.086  0.00  0.00     0.289 C 
HETATM    2  O   UNK N   1      25.994  17.142   5.551  0.00  0.00    -0.349 OA
HETATM    3  C   UNK N   1      26.382  18.094   4.548  0.00  0.00     0.177 C 
HETATM    4  C   UNK N   1      27.893  18.494   4.590  0.00  0.00     0.151 C 
HETATM    5  C   UNK N   1      28.293  18.682   6.045  0.00  0.00     0.071 C 
HETATM    6  C   UNK N   1      28.070  17.374   6.863  0.00  0.00     0.182 C 
ENDROOT
BRANCH   6   7
HETATM    7  O   UNK N   1      29.243  16.614   7.119  0.00  0.00    -0.348 OA
BRANCH   7   8
HETATM    8  C   UNK N   1      30.451  17.333   6.970  0.00  0.00     0.292 C 
HETATM    9  O   UNK N   1      31.173  16.771   5.881  0.00  0.00    -0.351 OA
HETATM   10  C   UNK N   1      32.393  17.456   5.670  0.00  0.00     0.152 C 
HETATM   11  C   UNK N   1      33.042  16.888   4.420  0.00  0.00     0.042 C 
HETATM   12  C   UNK N   1      33.322  17.262   6.881  0.00  0.00     0.178 C 
HETATM   13  C   UNK N   1      32.625  17.829   8.123  0.00  0.00     0.183 C 
HETATM   14  C   UNK N   1      31.254  17.161   8.273  0.00  0.00     0.204 C 
BRANCH  12  15
HETATM   15  O   UNK N   1      34.539  17.917   6.677  0.00  0.00    -0.390 OA
HETATM   16  H   UNK N   1      35.025  18.407   7.360  0.00  0.00     0.210 HD
ENDBRANCH  12  15
BRANCH  13  17
HETATM   17  O   UNK N   1      33.402  17.596   9.261  0.00  0.00    -0.390 OA
HETATM   18  H   UNK N   1      33.174  16.937   9.935  0.00  0.00     0.210 HD
ENDBRANCH  13  17
BRANCH  14  19
HETATM   19  O   UNK N   1      30.560  17.724   9.347  0.00  0.00    -0.388 OA
HETATM   20  H   UNK N   1      29.671  18.108   9.293  0.00  0.00     0.210 HD
ENDBRANCH  14  19
ENDBRANCH   7   8
ENDBRANCH   6   7
BRANCH   1  21
HETATM   21  O   UNK N   1      26.679  15.313   6.835  0.00  0.00    -0.359 OA
BRANCH  21  22
HETATM   22  C   UNK N   1      25.414  14.885   6.410  0.00  0.00     0.171 C 
BRANCH  22  23
HETATM   23  C   UNK N   1      25.066  13.590   7.128  0.00  0.00     0.026 C 
BRANCH  23  24
HETATM   24  C   UNK N   1      23.800  13.775   7.957  0.00  0.00     0.002 C 
BRANCH  24  25
HETATM   25  C   UNK N   1      22.880  12.566   7.875  0.00  0.00     0.000 C 
BRANCH  25  26
HETATM   26  C   UNK N   1      21.847  12.568   8.990  0.00  0.00     0.000 C 
BRANCH  26  27
HETATM   27  C   UNK N   1      22.506  12.972  10.300  0.00  0.00    -0.000 C 
BRANCH  27  28
HETATM   28  C   UNK N   1      23.125  11.772  11.001  0.00  0.00    -0.005 C 
HETATM   29  C   UNK N   1      23.014  11.897  12.510  0.00  0.00     0.005 C 
ENDBRANCH  27  28
ENDBRANCH  26  27
ENDBRANCH  25  26
ENDBRANCH  24  25
ENDBRANCH  23  24
ENDBRANCH  22  23
ENDBRANCH  21  22
ENDBRANCH   1  21
BRANCH   4  30
HETATM   30  O   UNK N   1      28.159  19.650   3.851  0.00  0.00    -0.393 OA
HETATM   31  H   UNK N   1      27.930  19.742   2.913  0.00  0.00     0.210 HD
ENDBRANCH   4  30
BRANCH   3  32
HETATM   32  C   UNK N   1      25.478  19.312   4.748  0.00  0.00     0.198 C 
BRANCH  32  33
HETATM   33  O   UNK N   1      25.304  20.005   3.547  0.00  0.00    -0.398 OA
HETATM   34  H   UNK N   1      25.258  20.975   3.549  0.00  0.00     0.209 HD
ENDBRANCH  32  33
ENDBRANCH   3  32
TORSDOF 16
ENDMDL
MODEL 6
REMARK VINA RESULT:      -6.0      2.957      7.035
REMARK  16 active torsions:
REMARK  status: ('A' for Active; 'I' for Inactive)
REMARK    1  A    between atoms: C_1  and  C_2 
REMARK    2  A    between atoms: C_1  and  C_28 
REMARK    3  A    between atoms: C_2  and  C_3 
REMARK    4  A    between atoms: C_3  and  C_4 
REMARK    5  A    between atoms: C_4  and  C_5 
REMARK    6  A    between atoms: C_5  and  C_6 
REMARK    7  A    between atoms: C_6  and  O_7 
REMARK    8  A    between atoms: C_8  and  O_7 
REMARK    9  A    between atoms: C_10  and  C_11 
REMARK   10  A    between atoms: C_11  and  O_12 
REMARK   11  A    between atoms: C_13  and  O_14 
REMARK   12  A    between atoms: C_16  and  O_17 
REMARK   13  A    between atoms: C_18  and  O_17 
REMARK   14  A    between atoms: C_22  and  O_23 
REMARK   15  A    between atoms: C_24  and  O_25 
REMARK   16  A    between atoms: C_26  and  O_27 
ROOT
HETATM    1  C   UNK N   1      24.631  16.665   5.214  0.00  0.00     0.289 C 
HETATM    2  O   UNK N   1      25.979  16.566   4.794  0.00  0.00    -0.349 OA
HETATM    3  C   UNK N   1      26.683  17.813   4.903  0.00  0.00     0.177 C 
HETATM    4  C   UNK N   1      25.757  19.070   4.988  0.00  0.00     0.151 C 
HETATM    5  C   UNK N   1      24.626  18.893   3.989  0.00  0.00     0.071 C 
HETATM    6  C   UNK N   1      23.799  17.608   4.293  0.00  0.00     0.182 C 
ENDROOT
BRANCH   6   7
HETATM    7  O   UNK N   1      22.562  17.827   4.956  0.00  0.00    -0.348 OA
BRANCH   7   8
HETATM    8  C   UNK N   1      21.420  17.574   4.162  0.00  0.00     0.292 C 
HETATM    9  O   UNK N   1      21.753  16.575   3.206  0.00  0.00    -0.351 OA
HETATM   10  C   UNK N   1      20.644  16.267   2.382  0.00  0.00     0.152 C 
HETATM   11  C   UNK N   1      21.035  15.109   1.481  0.00  0.00     0.042 C 
HETATM   12  C   UNK N   1      20.263  17.492   1.533  0.00  0.00     0.178 C 
HETATM   13  C   UNK N   1      19.894  18.642   2.477  0.00  0.00     0.183 C 
HETATM   14  C   UNK N   1      21.061  18.887   3.440  0.00  0.00     0.204 C 
BRANCH  12  15
HETATM   15  O   UNK N   1      19.182  17.194   0.700  0.00  0.00    -0.390 OA
HETATM   16  H   UNK N   1      19.259  16.828  -0.196  0.00  0.00     0.210 HD
ENDBRANCH  12  15
BRANCH  13  17
HETATM   17  O   UNK N   1      19.623  19.800   1.743  0.00  0.00    -0.390 OA
HETATM   18  H   UNK N   1      19.765  20.695   2.090  0.00  0.00     0.210 HD
ENDBRANCH  13  17
BRANCH  14  19
HETATM   19  O   UNK N   1      20.717  19.872   4.370  0.00  0.00    -0.388 OA
HETATM   20  H   UNK N   1      21.288  20.176   5.093  0.00  0.00     0.210 HD
ENDBRANCH  14  19
ENDBRANCH   7   8
ENDBRANCH   6   7
BRANCH   1  21
HETATM   21  O   UNK N   1      24.049  15.388   5.387  0.00  0.00    -0.359 OA
BRANCH  21  22
HETATM   22  C   UNK N   1      23.964  15.069   6.749  0.00  0.00     0.171 C 
BRANCH  22  23
HETATM   23  C   UNK N   1      24.846  13.861   7.027  0.00  0.00     0.026 C 
BRANCH  23  24
HETATM   24  C   UNK N   1      24.756  13.475   8.500  0.00  0.00     0.002 C 
BRANCH  24  25
HETATM   25  C   UNK N   1      23.526  12.628   8.794  0.00  0.00     0.000 C 
BRANCH  25  26
HETATM   26  C   UNK N   1      22.516  13.380   9.646  0.00  0.00     0.000 C 
BRANCH  26  27
HETATM   27  C   UNK N   1      22.017  12.479  10.765  0.00  0.00    -0.000 C 
BRANCH  27  28
HETATM   28  C   UNK N   1      23.156  11.680  11.381  0.00  0.00    -0.005 C 
HETATM   29  C   UNK N   1      23.264  11.935  12.874  0.00  0.00     0.005 C 
ENDBRANCH  27  28
ENDBRANCH  26  27
ENDBRANCH  25  26
ENDBRANCH  24  25
ENDBRANCH  23  24
ENDBRANCH  22  23
ENDBRANCH  21  22
ENDBRANCH   1  21
BRANCH   4  30
HETATM   30  O   UNK N   1      26.449  20.259   4.748  0.00  0.00    -0.393 OA
HETATM   31  H   UNK N   1      27.378  20.389   4.992  0.00  0.00     0.210 HD
ENDBRANCH   4  30
BRANCH   3  32
HETATM   32  C   UNK N   1      27.608  17.885   3.687  0.00  0.00     0.198 C 
BRANCH  32  33
HETATM   33  O   UNK N   1      28.791  18.560   4.000  0.00  0.00    -0.398 OA
HETATM   34  H   UNK N   1      29.529  18.563   3.370  0.00  0.00     0.209 HD
ENDBRANCH  32  33
ENDBRANCH   3  32
TORSDOF 16
ENDMDL
MODEL 7
REMARK VINA RESULT:      -6.0     12.279     15.059
REMARK  16 active torsions:
REMARK  status: ('A' for Active; 'I' for Inactive)
REMARK    1  A    between atoms: C_1  and  C_2 
REMARK    2  A    between atoms: C_1  and  C_28 
REMARK    3  A    between atoms: C_2  and  C_3 
REMARK    4  A    between atoms: C_3  and  C_4 
REMARK    5  A    between atoms: C_4  and  C_5 
REMARK    6  A    between atoms: C_5  and  C_6 
REMARK    7  A    between atoms: C_6  and  O_7 
REMARK    8  A    between atoms: C_8  and  O_7 
REMARK    9  A    between atoms: C_10  and  C_11 
REMARK   10  A    between atoms: C_11  and  O_12 
REMARK   11  A    between atoms: C_13  and  O_14 
REMARK   12  A    between atoms: C_16  and  O_17 
REMARK   13  A    between atoms: C_18  and  O_17 
REMARK   14  A    between atoms: C_22  and  O_23 
REMARK   15  A    between atoms: C_24  and  O_25 
REMARK   16  A    between atoms: C_26  and  O_27 
ROOT
HETATM    1  C   UNK N   1      29.408  24.336  -4.953  0.00  0.00     0.289 C 
HETATM    2  O   UNK N   1      30.156  24.083  -3.779  0.00  0.00    -0.349 OA
HETATM    3  C   UNK N   1      31.317  23.274  -4.028  0.00  0.00     0.177 C 
HETATM    4  C   UNK N   1      31.265  22.470  -5.369  0.00  0.00     0.151 C 
HETATM    5  C   UNK N   1      29.865  21.900  -5.525  0.00  0.00     0.071 C 
HETATM    6  C   UNK N   1      28.795  23.033  -5.548  0.00  0.00     0.182 C 
ENDROOT
BRANCH   6   7
HETATM    7  O   UNK N   1      28.301  23.373  -6.836  0.00  0.00    -0.348 OA
BRANCH   7   8
HETATM    8  C   UNK N   1      27.539  22.358  -7.457  0.00  0.00     0.292 C 
HETATM    9  O   UNK N   1      27.994  22.213  -8.796  0.00  0.00    -0.351 OA
HETATM   10  C   UNK N   1      27.275  21.199  -9.474  0.00  0.00     0.152 C 
HETATM   11  C   UNK N   1      27.900  21.015 -10.845  0.00  0.00     0.042 C 
HETATM   12  C   UNK N   1      25.798  21.608  -9.618  0.00  0.00     0.178 C 
HETATM   13  C   UNK N   1      25.210  21.803  -8.216  0.00  0.00     0.183 C 
HETATM   14  C   UNK N   1      26.068  22.818  -7.453  0.00  0.00     0.204 C 
BRANCH  12  15
HETATM   15  O   UNK N   1      25.081  20.625 -10.303  0.00  0.00    -0.390 OA
HETATM   16  H   UNK N   1      25.478  19.856 -10.743  0.00  0.00     0.210 HD
ENDBRANCH  12  15
BRANCH  13  17
HETATM   17  O   UNK N   1      23.891  22.258  -8.305  0.00  0.00    -0.390 OA
HETATM   18  H   UNK N   1      23.176  21.740  -8.706  0.00  0.00     0.210 HD
ENDBRANCH  13  17
BRANCH  14  19
HETATM   19  O   UNK N   1      25.606  22.948  -6.141  0.00  0.00    -0.388 OA
HETATM   20  H   UNK N   1      25.898  22.405  -5.393  0.00  0.00     0.210 HD
ENDBRANCH  14  19
ENDBRANCH   7   8
ENDBRANCH   6   7
BRANCH   1  21
HETATM   21  O   UNK N   1      28.459  25.364  -4.749  0.00  0.00    -0.359 OA
BRANCH  21  22
HETATM   22  C   UNK N   1      27.663  25.081  -3.631  0.00  0.00     0.171 C 
BRANCH  22  23
HETATM   23  C   UNK N   1      26.259  25.614  -3.879  0.00  0.00     0.026 C 
BRANCH  23  24
HETATM   24  C   UNK N   1      26.149  27.050  -3.378  0.00  0.00     0.002 C 
BRANCH  24  25
HETATM   25  C   UNK N   1      25.671  28.000  -4.466  0.00  0.00     0.000 C 
BRANCH  25  26
HETATM   26  C   UNK N   1      26.821  28.790  -5.069  0.00  0.00     0.000 C 
BRANCH  26  27
HETATM   27  C   UNK N   1      27.264  28.139  -6.370  0.00  0.00    -0.000 C 
BRANCH  27  28
HETATM   28  C   UNK N   1      28.259  29.015  -7.117  0.00  0.00    -0.005 C 
HETATM   29  C   UNK N   1      28.778  30.136  -6.234  0.00  0.00     0.005 C 
ENDBRANCH  27  28
ENDBRANCH  26  27
ENDBRANCH  25  26
ENDBRANCH  24  25
ENDBRANCH  23  24
ENDBRANCH  22  23
ENDBRANCH  21  22
ENDBRANCH   1  21
BRANCH   4  30
HETATM   30  O   UNK N   1      32.222  21.453  -5.416  0.00  0.00    -0.393 OA
HETATM   31  H   UNK N   1      33.173  21.616  -5.320  0.00  0.00     0.210 HD
ENDBRANCH   4  30
BRANCH   3  32
HETATM   32  C   UNK N   1      31.450  22.341  -2.824  0.00  0.00     0.198 C 
BRANCH  32  33
HETATM   33  O   UNK N   1      30.780  22.861  -1.714  0.00  0.00    -0.398 OA
HETATM   34  H   UNK N   1      30.141  22.312  -1.231  0.00  0.00     0.209 HD
ENDBRANCH  32  33
ENDBRANCH   3  32
TORSDOF 16
ENDMDL
MODEL 8
REMARK VINA RESULT:      -6.0      2.850      6.985
REMARK  16 active torsions:
REMARK  status: ('A' for Active; 'I' for Inactive)
REMARK    1  A    between atoms: C_1  and  C_2 
REMARK    2  A    between atoms: C_1  and  C_28 
REMARK    3  A    between atoms: C_2  and  C_3 
REMARK    4  A    between atoms: C_3  and  C_4 
REMARK    5  A    between atoms: C_4  and  C_5 
REMARK    6  A    between atoms: C_5  and  C_6 
REMARK    7  A    between atoms: C_6  and  O_7 
REMARK    8  A    between atoms: C_8  and  O_7 
REMARK    9  A    between atoms: C_10  and  C_11 
REMARK   10  A    between atoms: C_11  and  O_12 
REMARK   11  A    between atoms: C_13  and  O_14 
REMARK   12  A    between atoms: C_16  and  O_17 
REMARK   13  A    between atoms: C_18  and  O_17 
REMARK   14  A    between atoms: C_22  and  O_23 
REMARK   15  A    between atoms: C_24  and  O_25 
REMARK   16  A    between atoms: C_26  and  O_27 
ROOT
HETATM    1  C   UNK N   1      25.295  16.668   5.282  0.00  0.00     0.289 C 
HETATM    2  O   UNK N   1      26.649  16.347   5.026  0.00  0.00    -0.349 OA
HETATM    3  C   UNK N   1      27.501  17.503   5.030  0.00  0.00     0.177 C 
HETATM    4  C   UNK N   1      26.746  18.859   4.839  0.00  0.00     0.151 C 
HETATM    5  C   UNK N   1      25.693  18.666   3.760  0.00  0.00     0.071 C 
HETATM    6  C   UNK N   1      24.680  17.550   4.155  0.00  0.00     0.182 C 
ENDROOT
BRANCH   6   7
HETATM    7  O   UNK N   1      23.430  18.014   4.645  0.00  0.00    -0.348 OA
BRANCH   7   8
HETATM    8  C   UNK N   1      22.358  17.882   3.733  0.00  0.00     0.292 C 
HETATM    9  O   UNK N   1      21.974  19.182   3.303  0.00  0.00    -0.351 OA
HETATM   10  C   UNK N   1      20.907  19.119   2.375  0.00  0.00     0.152 C 
HETATM   11  C   UNK N   1      20.643  20.525   1.867  0.00  0.00     0.042 C 
HETATM   12  C   UNK N   1      19.648  18.559   3.058  0.00  0.00     0.178 C 
HETATM   13  C   UNK N   1      19.961  17.150   3.573  0.00  0.00     0.183 C 
HETATM   14  C   UNK N   1      21.190  17.216   4.486  0.00  0.00     0.204 C 
BRANCH  12  15
HETATM   15  O   UNK N   1      18.581  18.511   2.158  0.00  0.00    -0.390 OA
HETATM   16  H   UNK N   1      17.867  17.853   2.181  0.00  0.00     0.210 HD
ENDBRANCH  12  15
BRANCH  13  17
HETATM   17  O   UNK N   1      18.866  16.639   4.276  0.00  0.00    -0.390 OA
HETATM   18  H   UNK N   1      18.566  15.720   4.198  0.00  0.00     0.210 HD
ENDBRANCH  13  17
BRANCH  14  19
HETATM   19  O   UNK N   1      21.552  15.931   4.899  0.00  0.00    -0.388 OA
HETATM   20  H   UNK N   1      22.463  15.602   4.955  0.00  0.00     0.210 HD
ENDBRANCH  14  19
ENDBRANCH   7   8
ENDBRANCH   6   7
BRANCH   1  21
HETATM   21  O   UNK N   1      24.535  15.512   5.571  0.00  0.00    -0.359 OA
BRANCH  21  22
HETATM   22  C   UNK N   1      25.374  14.462   5.972  0.00  0.00     0.171 C 
BRANCH  22  23
HETATM   23  C   UNK N   1      25.181  14.220   7.462  0.00  0.00     0.026 C 
BRANCH  23  24
HETATM   24  C   UNK N   1      24.053  13.219   7.687  0.00  0.00     0.002 C 
BRANCH  24  25
HETATM   25  C   UNK N   1      24.357  12.263   8.831  0.00  0.00     0.000 C 
BRANCH  25  26
HETATM   26  C   UNK N   1      23.680  12.695  10.121  0.00  0.00     0.000 C 
BRANCH  26  27
HETATM   27  C   UNK N   1      22.571  11.716  10.472  0.00  0.00    -0.000 C 
BRANCH  27  28
HETATM   28  C   UNK N   1      21.305  12.444  10.902  0.00  0.00    -0.005 C 
HETATM   29  C   UNK N   1      20.968  13.574   9.945  0.00  0.00     0.005 C 
ENDBRANCH  27  28
ENDBRANCH  26  27
ENDBRANCH  25  26
ENDBRANCH  24  25
ENDBRANCH  23  24
ENDBRANCH  22  23
ENDBRANCH  21  22
ENDBRANCH   1  21
BRANCH   4  30
HETATM   30  O   UNK N   1      27.610  19.906   4.507  0.00  0.00    -0.393 OA
HETATM   31  H   UNK N   1      27.929  20.554   5.154  0.00  0.00     0.210 HD
ENDBRANCH   4  30
BRANCH   3  32
HETATM   32  C   UNK N   1      28.530  17.276   3.922  0.00  0.00     0.198 C 
BRANCH  32  33
HETATM   33  O   UNK N   1      29.739  17.907   4.227  0.00  0.00    -0.398 OA
HETATM   34  H   UNK N   1      30.070  18.621   3.660  0.00  0.00     0.209 HD
ENDBRANCH  32  33
ENDBRANCH   3  32
TORSDOF 16
ENDMDL
MODEL 9
REMARK VINA RESULT:      -5.9      1.820      5.766
REMARK  16 active torsions:
REMARK  status: ('A' for Active; 'I' for Inactive)
REMARK    1  A    between atoms: C_1  and  C_2 
REMARK    2  A    between atoms: C_1  and  C_28 
REMARK    3  A    between atoms: C_2  and  C_3 
REMARK    4  A    between atoms: C_3  and  C_4 
REMARK    5  A    between atoms: C_4  and  C_5 
REMARK    6  A    between atoms: C_5  and  C_6 
REMARK    7  A    between atoms: C_6  and  O_7 
REMARK    8  A    between atoms: C_8  and  O_7 
REMARK    9  A    between atoms: C_10  and  C_11 
REMARK   10  A    between atoms: C_11  and  O_12 
REMARK   11  A    between atoms: C_13  and  O_14 
REMARK   12  A    between atoms: C_16  and  O_17 
REMARK   13  A    between atoms: C_18  and  O_17 
REMARK   14  A    between atoms: C_22  and  O_23 
REMARK   15  A    between atoms: C_24  and  O_25 
REMARK   16  A    between atoms: C_26  and  O_27 
ROOT
HETATM    1  C   UNK N   1      22.623  15.854   6.335  0.00  0.00     0.289 C 
HETATM    2  O   UNK N   1      22.200  15.160   7.494  0.00  0.00    -0.349 OA
HETATM    3  C   UNK N   1      20.777  14.973   7.535  0.00  0.00     0.177 C 
HETATM    4  C   UNK N   1      19.973  15.938   6.603  0.00  0.00     0.151 C 
HETATM    5  C   UNK N   1      20.584  17.324   6.717  0.00  0.00     0.071 C 
HETATM    6  C   UNK N   1      22.086  17.316   6.299  0.00  0.00     0.182 C 
ENDROOT
BRANCH   6   7
HETATM    7  O   UNK N   1      22.352  17.810   4.994  0.00  0.00    -0.348 OA
BRANCH   7   8
HETATM    8  C   UNK N   1      21.287  17.650   4.079  0.00  0.00     0.292 C 
HETATM    9  O   UNK N   1      21.650  16.643   3.142  0.00  0.00    -0.351 OA
HETATM   10  C   UNK N   1      20.616  16.426   2.200  0.00  0.00     0.152 C 
HETATM   11  C   UNK N   1      21.021  15.256   1.320  0.00  0.00     0.042 C 
HETATM   12  C   UNK N   1      20.413  17.686   1.341  0.00  0.00     0.178 C 
HETATM   13  C   UNK N   1      20.026  18.846   2.266  0.00  0.00     0.183 C 
HETATM   14  C   UNK N   1      21.098  18.995   3.351  0.00  0.00     0.204 C 
BRANCH  12  15
HETATM   15  O   UNK N   1      19.409  17.478   0.393  0.00  0.00    -0.390 OA
HETATM   16  H   UNK N   1      18.882  18.182  -0.018  0.00  0.00     0.210 HD
ENDBRANCH  12  15
BRANCH  13  17
HETATM   17  O   UNK N   1      19.915  20.031   1.533  0.00  0.00    -0.390 OA
HETATM   18  H   UNK N   1      20.672  20.598   1.319  0.00  0.00     0.210 HD
ENDBRANCH  13  17
BRANCH  14  19
HETATM   19  O   UNK N   1      20.725  19.988   4.261  0.00  0.00    -0.388 OA
HETATM   20  H   UNK N   1      21.336  20.618   4.676  0.00  0.00     0.210 HD
ENDBRANCH  14  19
ENDBRANCH   7   8
ENDBRANCH   6   7
BRANCH   1  21
HETATM   21  O   UNK N   1      24.024  15.764   6.162  0.00  0.00    -0.359 OA
BRANCH  21  22
HETATM   22  C   UNK N   1      24.328  15.111   4.959  0.00  0.00     0.171 C 
BRANCH  22  23
HETATM   23  C   UNK N   1      25.282  15.982   4.155  0.00  0.00     0.026 C 
BRANCH  23  24
HETATM   24  C   UNK N   1      25.883  17.061   5.048  0.00  0.00     0.002 C 
BRANCH  24  25
HETATM   25  C   UNK N   1      26.093  18.370   4.301  0.00  0.00     0.000 C 
BRANCH  25  26
HETATM   26  C   UNK N   1      27.565  18.634   4.029  0.00  0.00     0.000 C 
BRANCH  26  27
HETATM   27  C   UNK N   1      27.967  19.970   4.635  0.00  0.00    -0.000 C 
BRANCH  27  28
HETATM   28  C   UNK N   1      26.749  20.758   5.094  0.00  0.00    -0.005 C 
HETATM   29  C   UNK N   1      27.026  21.497   6.391  0.00  0.00     0.005 C 
ENDBRANCH  27  28
ENDBRANCH  26  27
ENDBRANCH  25  26
ENDBRANCH  24  25
ENDBRANCH  23  24
ENDBRANCH  22  23
ENDBRANCH  21  22
ENDBRANCH   1  21
BRANCH   4  30
HETATM   30  O   UNK N   1      18.612  15.968   6.915  0.00  0.00    -0.393 OA
HETATM   31  H   UNK N   1      18.114  16.792   7.030  0.00  0.00     0.210 HD
ENDBRANCH   4  30
BRANCH   3  32
HETATM   32  C   UNK N   1      20.369  15.144   8.998  0.00  0.00     0.198 C 
BRANCH  32  33
HETATM   33  O   UNK N   1      21.112  14.299   9.826  0.00  0.00    -0.398 OA
HETATM   34  H   UNK N   1      21.209  14.505  10.769  0.00  0.00     0.209 HD
ENDBRANCH  32  33
ENDBRANCH   3  32
TORSDOF 16
ENDMDL
