MODEL 1
REMARK VINA RESULT:      -8.6      0.000      0.000
REMARK  4 active torsions:
REMARK  status: ('A' for Active; 'I' for Inactive)
REMARK    1  A    between atoms: C_14  and  C_11 
REMARK    2  A    between atoms: C_19  and  C_15 
REMARK    3  A    between atoms: N_28  and  C_20 
REMARK    4  A    between atoms: N_28  and  C_21 
REMARK       I    between atoms: N_24  and  C_22 
ROOT
HETATM    1  C   UNK N   1      34.595   9.726  20.472  0.00  0.00     0.136 C 
HETATM    2  C   UNK N   1      33.423   9.911  21.344  0.00  0.00     0.060 C 
HETATM    3  N   UNK N   1      32.501  10.075  22.026  0.00  0.00    -0.197 NA
ENDROOT
BRANCH   1   4
HETATM    4  C   UNK N   1      35.170  10.910  19.648  0.00  0.00     0.044 C 
HETATM    5  C   UNK N   1      35.027  12.434  19.805  0.00  0.00    -0.015 C 
HETATM    6  C   UNK N   1      35.246  13.274  18.742  0.00  0.00     0.026 C 
HETATM    7  C   UNK N   1      35.421  12.728  17.351  0.00  0.00     0.048 C 
HETATM    8  C   UNK N   1      35.283  11.261  17.209  0.00  0.00     0.026 C 
HETATM    9  N   UNK N   1      35.472  13.515  16.292  0.00  0.00    -0.192 N 
HETATM   10  C   UNK N   1      35.099  10.450  18.233  0.00  0.00    -0.015 C 
HETATM   11  C   UNK N   1      35.371  13.024  14.925  0.00  0.00     0.684 A 
ATOM     12  HN  UNK N   1      35.589  14.518  16.439  1.00  0.00     0.184 HD
HETATM   13  N   UNK N   1      35.093  11.725  14.729  0.00  0.00    -0.191 N 
HETATM   14  N   UNK N   1      35.476  13.845  13.823  0.00  0.00    -0.175 N 
HETATM   15  C   UNK N   1      34.934  11.172  13.532  0.00  0.00     0.063 A 
ATOM     16  HN  UNK N   1      34.999  11.125  15.549  1.00  0.00     0.184 HD
HETATM   17  C   UNK N   1      34.658   9.807  13.472  0.00  0.00     0.031 A 
HETATM   18  C   UNK N   1      35.042  11.957  12.375  0.00  0.00     0.036 A 
HETATM   19  C   UNK N   1      34.483   9.184  12.246  0.00  0.00     0.002 A 
HETATM   20  C   UNK N   1      34.585   9.934  11.081  0.00  0.00     0.001 A 
HETATM   21  C   UNK N   1      34.861  11.300  11.158  0.00  0.00     0.017 A 
HETATM   22  C   UNK N   1      35.324  13.359  12.530  0.00  0.00     0.135 A 
ATOM     23  HN  UNK N   1      35.668  14.837  13.962  1.00  0.00     0.186 HD
BRANCH  22  24
HETATM   24  N   UNK N   1      35.461  14.306  11.432  0.00  0.00    -0.326 N 
ATOM     25  HN  UNK N   1      36.426  14.594  11.273  1.00  0.00     0.169 HD
BRANCH  24  26
HETATM   26  C   UNK N   1      34.617  14.868  10.605  0.00  0.00     0.123 A 
HETATM   27  C   UNK N   1      34.987  15.498   9.432  0.00  0.00     0.076 A 
HETATM   28  C   UNK N   1      33.777  15.929   8.892  0.00  0.00     0.033 A 
HETATM   29  N   UNK N   1      32.768  15.582   9.701  0.00  0.00    -0.303 N 
HETATM   30  N   UNK N   1      33.281  14.939  10.739  0.00  0.00    -0.285 N 
HETATM   31  H   UNK N   1      31.814  15.771   9.551  0.00  0.00     0.186 HD
HETATM   32  H   UNK N   1      32.765  14.570  11.491  0.00  0.00     0.188 HD
BRANCH  28  33
HETATM   33  C   UNK N   1      33.699  16.754   7.638  0.00  0.00     0.037 A 
HETATM   34  C   UNK N   1      33.435  17.666   6.469  0.00  0.00     0.011 A 
HETATM   35  C   UNK N   1      33.679  18.283   7.829  0.00  0.00     0.011 A 
ENDBRANCH  28  33
ENDBRANCH  24  26
ENDBRANCH  22  24
ENDBRANCH   1   4
TORSDOF 4
ENDMDL
MODEL 2
REMARK VINA RESULT:      -8.2      4.554     12.120
REMARK  4 active torsions:
REMARK  status: ('A' for Active; 'I' for Inactive)
REMARK    1  A    between atoms: C_14  and  C_11 
REMARK    2  A    between atoms: C_19  and  C_15 
REMARK    3  A    between atoms: N_28  and  C_20 
REMARK    4  A    between atoms: N_28  and  C_21 
REMARK       I    between atoms: N_24  and  C_22 
ROOT
HETATM    1  C   UNK N   1      26.570  19.985   3.463  0.00  0.00     0.136 C 
HETATM    2  C   UNK N   1      25.207  20.428   3.128  0.00  0.00     0.060 C 
HETATM    3  N   UNK N   1      24.128  20.773   2.882  0.00  0.00    -0.197 NA
ENDROOT
BRANCH   1   4
HETATM    4  C   UNK N   1      26.911  19.462   4.885  0.00  0.00     0.044 C 
HETATM    5  C   UNK N   1      26.775  20.109   6.275  0.00  0.00    -0.015 C 
HETATM    6  C   UNK N   1      27.523  19.660   7.335  0.00  0.00     0.026 C 
HETATM    7  C   UNK N   1      28.641  18.675   7.128  0.00  0.00     0.048 C 
HETATM    8  C   UNK N   1      28.908  18.283   5.726  0.00  0.00     0.026 C 
HETATM    9  N   UNK N   1      29.476  18.350   8.098  0.00  0.00    -0.192 N 
HETATM   10  C   UNK N   1      28.174  18.693   4.708  0.00  0.00    -0.015 C 
HETATM   11  C   UNK N   1      30.716  17.621   7.876  0.00  0.00     0.684 A 
ATOM     12  HN  UNK N   1      29.240  18.624   9.052  1.00  0.00     0.184 HD
HETATM   13  N   UNK N   1      31.093  17.367   6.611  0.00  0.00    -0.191 N 
HETATM   14  N   UNK N   1      31.557  17.242   8.899  0.00  0.00    -0.175 N 
HETATM   15  C   UNK N   1      32.223  16.749   6.283  0.00  0.00     0.063 A 
ATOM     16  HN  UNK N   1      30.475  17.667   5.857  1.00  0.00     0.184 HD
HETATM   17  C   UNK N   1      32.486  16.542   4.931  0.00  0.00     0.031 A 
HETATM   18  C   UNK N   1      33.110  16.330   7.284  0.00  0.00     0.036 A 
HETATM   19  C   UNK N   1      33.652  15.902   4.537  0.00  0.00     0.002 A 
HETATM   20  C   UNK N   1      34.551  15.473   5.505  0.00  0.00     0.001 A 
HETATM   21  C   UNK N   1      34.273  15.689   6.855  0.00  0.00     0.017 A 
HETATM   22  C   UNK N   1      32.761  16.590   8.654  0.00  0.00     0.135 A 
ATOM     23  HN  UNK N   1      31.289  17.446   9.862  1.00  0.00     0.186 HD
BRANCH  22  24
HETATM   24  N   UNK N   1      33.576  16.224   9.805  0.00  0.00    -0.326 N 
ATOM     25  HN  UNK N   1      33.938  17.033  10.310  1.00  0.00     0.169 HD
BRANCH  24  26
HETATM   26  C   UNK N   1      33.945  15.085  10.332  0.00  0.00     0.123 A 
HETATM   27  C   UNK N   1      34.841  14.972  11.379  0.00  0.00     0.076 A 
HETATM   28  C   UNK N   1      34.920  13.598  11.600  0.00  0.00     0.033 A 
HETATM   29  N   UNK N   1      34.129  12.952  10.734  0.00  0.00    -0.303 N 
HETATM   30  N   UNK N   1      33.540  13.857   9.966  0.00  0.00    -0.285 N 
HETATM   31  H   UNK N   1      34.007  11.977  10.677  0.00  0.00     0.186 HD
HETATM   32  H   UNK N   1      32.904  13.660   9.241  0.00  0.00     0.188 HD
BRANCH  28  33
HETATM   33  C   UNK N   1      35.858  12.994  12.606  0.00  0.00     0.037 A 
HETATM   34  C   UNK N   1      36.659  12.469  13.769  0.00  0.00     0.011 A 
HETATM   35  C   UNK N   1      35.245  11.966  13.578  0.00  0.00     0.011 A 
ENDBRANCH  28  33
ENDBRANCH  24  26
ENDBRANCH  22  24
ENDBRANCH   1   4
TORSDOF 4
ENDMDL
MODEL 3
REMARK VINA RESULT:      -8.1      2.494      2.899
REMARK  4 active torsions:
REMARK  status: ('A' for Active; 'I' for Inactive)
REMARK    1  A    between atoms: C_14  and  C_11 
REMARK    2  A    between atoms: C_19  and  C_15 
REMARK    3  A    between atoms: N_28  and  C_20 
REMARK    4  A    between atoms: N_28  and  C_21 
REMARK       I    between atoms: N_24  and  C_22 
ROOT
HETATM    1  C   UNK N   1      36.176   8.356  18.059  0.00  0.00     0.136 C 
HETATM    2  C   UNK N   1      35.899   7.364  17.008  0.00  0.00     0.060 C 
HETATM    3  N   UNK N   1      35.679   6.597  16.168  0.00  0.00    -0.197 NA
ENDROOT
BRANCH   1   4
HETATM    4  C   UNK N   1      36.242   9.872  17.727  0.00  0.00     0.044 C 
HETATM    5  C   UNK N   1      35.321  11.045  18.106  0.00  0.00    -0.015 C 
HETATM    6  C   UNK N   1      35.315  12.200  17.365  0.00  0.00     0.026 C 
HETATM    7  C   UNK N   1      36.042  12.278  16.051  0.00  0.00     0.048 C 
HETATM    8  C   UNK N   1      36.696  11.030  15.598  0.00  0.00     0.026 C 
HETATM    9  N   UNK N   1      35.921  13.317  15.244  0.00  0.00    -0.192 N 
HETATM   10  C   UNK N   1      36.725   9.926  16.319  0.00  0.00    -0.015 C 
HETATM   11  C   UNK N   1      36.383  13.316  13.864  0.00  0.00     0.684 A 
ATOM     12  HN  UNK N   1      35.481  14.163  15.607  1.00  0.00     0.184 HD
HETATM   13  N   UNK N   1      36.848  12.168  13.343  0.00  0.00    -0.191 N 
HETATM   14  N   UNK N   1      36.299  14.421  13.044  0.00  0.00    -0.175 N 
HETATM   15  C   UNK N   1      37.257  12.035  12.086  0.00  0.00     0.063 A 
ATOM     16  HN  UNK N   1      36.891  11.349  13.950  1.00  0.00     0.184 HD
HETATM   17  C   UNK N   1      37.725  10.787  11.680  0.00  0.00     0.031 A 
HETATM   18  C   UNK N   1      37.206  13.128  11.211  0.00  0.00     0.036 A 
HETATM   19  C   UNK N   1      38.162  10.597  10.377  0.00  0.00     0.002 A 
HETATM   20  C   UNK N   1      38.126  11.662   9.486  0.00  0.00     0.001 A 
HETATM   21  C   UNK N   1      37.652  12.904   9.909  0.00  0.00     0.017 A 
HETATM   22  C   UNK N   1      36.702  14.378  11.714  0.00  0.00     0.135 A 
ATOM     23  HN  UNK N   1      35.931  15.293  13.424  1.00  0.00     0.186 HD
BRANCH  22  24
HETATM   24  N   UNK N   1      36.581  15.601  10.933  0.00  0.00    -0.326 N 
ATOM     25  HN  UNK N   1      37.416  16.185  10.974  1.00  0.00     0.169 HD
BRANCH  24  26
HETATM   26  C   UNK N   1      35.635  16.116  10.189  0.00  0.00     0.123 A 
HETATM   27  C   UNK N   1      35.223  15.582   8.983  0.00  0.00     0.076 A 
HETATM   28  C   UNK N   1      34.212  16.446   8.566  0.00  0.00     0.033 A 
HETATM   29  N   UNK N   1      34.050  17.424   9.467  0.00  0.00    -0.303 N 
HETATM   30  N   UNK N   1      34.915  17.221  10.449  0.00  0.00    -0.285 N 
HETATM   31  H   UNK N   1      33.403  18.164   9.409  0.00  0.00     0.186 HD
HETATM   32  H   UNK N   1      35.014  17.789  11.246  0.00  0.00     0.188 HD
BRANCH  28  33
HETATM   33  C   UNK N   1      33.522  16.304   7.239  0.00  0.00     0.037 A 
HETATM   34  C   UNK N   1      32.734  16.357   5.957  0.00  0.00     0.011 A 
HETATM   35  C   UNK N   1      33.746  17.448   6.230  0.00  0.00     0.011 A 
ENDBRANCH  28  33
ENDBRANCH  24  26
ENDBRANCH  22  24
ENDBRANCH   1   4
TORSDOF 4
ENDMDL
MODEL 4
REMARK VINA RESULT:      -8.0      9.429     13.442
REMARK  4 active torsions:
REMARK  status: ('A' for Active; 'I' for Inactive)
REMARK    1  A    between atoms: C_14  and  C_11 
REMARK    2  A    between atoms: C_19  and  C_15 
REMARK    3  A    between atoms: N_28  and  C_20 
REMARK    4  A    between atoms: N_28  and  C_21 
REMARK       I    between atoms: N_24  and  C_22 
ROOT
HETATM    1  C   UNK N   1      34.200  17.041   6.752  0.00  0.00     0.136 C 
HETATM    2  C   UNK N   1      34.341  15.907   5.824  0.00  0.00     0.060 C 
HETATM    3  N   UNK N   1      34.433  15.013   5.092  0.00  0.00    -0.197 NA
ENDROOT
BRANCH   1   4
HETATM    4  C   UNK N   1      32.797  17.565   7.163  0.00  0.00     0.044 C 
HETATM    5  C   UNK N   1      32.089  17.637   8.528  0.00  0.00    -0.015 C 
HETATM    6  C   UNK N   1      30.722  17.725   8.606  0.00  0.00     0.026 C 
HETATM    7  C   UNK N   1      29.865  17.541   7.383  0.00  0.00     0.048 C 
HETATM    8  C   UNK N   1      30.584  17.205   6.134  0.00  0.00     0.026 C 
HETATM    9  N   UNK N   1      28.549  17.460   7.456  0.00  0.00    -0.192 N 
HETATM   10  C   UNK N   1      31.900  17.146   6.050  0.00  0.00    -0.015 C 
HETATM   11  C   UNK N   1      27.712  17.018   6.350  0.00  0.00     0.684 A 
ATOM     12  HN  UNK N   1      28.096  17.721   8.332  1.00  0.00     0.184 HD
HETATM   13  N   UNK N   1      28.309  16.555   5.239  0.00  0.00    -0.191 N 
HETATM   14  N   UNK N   1      26.337  16.985   6.417  0.00  0.00    -0.175 N 
HETATM   15  C   UNK N   1      27.653  16.085   4.184  0.00  0.00     0.063 A 
ATOM     16  HN  UNK N   1      29.329  16.565   5.202  1.00  0.00     0.184 HD
HETATM   17  C   UNK N   1      28.398  15.645   3.092  0.00  0.00     0.031 A 
HETATM   18  C   UNK N   1      26.252  16.040   4.191  0.00  0.00     0.036 A 
HETATM   19  C   UNK N   1      27.758  15.146   1.967  0.00  0.00     0.002 A 
HETATM   20  C   UNK N   1      26.371  15.089   1.943  0.00  0.00     0.001 A 
HETATM   21  C   UNK N   1      25.639  15.533   3.046  0.00  0.00     0.017 A 
HETATM   22  C   UNK N   1      25.563  16.510   5.363  0.00  0.00     0.135 A 
ATOM     23  HN  UNK N   1      25.874  17.316   7.263  1.00  0.00     0.186 HD
BRANCH  22  24
HETATM   24  N   UNK N   1      24.116  16.523   5.529  0.00  0.00    -0.326 N 
ATOM     25  HN  UNK N   1      23.757  15.673   5.963  1.00  0.00     0.169 HD
BRANCH  24  26
HETATM   26  C   UNK N   1      23.175  17.387   5.244  0.00  0.00     0.123 A 
HETATM   27  C   UNK N   1      23.043  18.008   4.016  0.00  0.00     0.076 A 
HETATM   28  C   UNK N   1      21.920  18.819   4.176  0.00  0.00     0.033 A 
HETATM   29  N   UNK N   1      21.436  18.687   5.417  0.00  0.00    -0.303 N 
HETATM   30  N   UNK N   1      22.200  17.817   6.062  0.00  0.00    -0.285 N 
HETATM   31  H   UNK N   1      20.651  19.152   5.786  0.00  0.00     0.186 HD
HETATM   32  H   UNK N   1      22.073  17.530   6.995  0.00  0.00     0.188 HD
BRANCH  28  33
HETATM   33  C   UNK N   1      21.446  19.762   3.107  0.00  0.00     0.037 A 
HETATM   34  C   UNK N   1      21.057  20.561   1.890  0.00  0.00     0.011 A 
HETATM   35  C   UNK N   1      20.475  19.175   2.063  0.00  0.00     0.011 A 
ENDBRANCH  28  33
ENDBRANCH  24  26
ENDBRANCH  22  24
ENDBRANCH   1   4
TORSDOF 4
ENDMDL
MODEL 5
REMARK VINA RESULT:      -7.9      9.267     13.001
REMARK  4 active torsions:
REMARK  status: ('A' for Active; 'I' for Inactive)
REMARK    1  A    between atoms: C_14  and  C_11 
REMARK    2  A    between atoms: C_19  and  C_15 
REMARK    3  A    between atoms: N_28  and  C_20 
REMARK    4  A    between atoms: N_28  and  C_21 
REMARK       I    between atoms: N_24  and  C_22 
ROOT
HETATM    1  C   UNK N   1      33.395  17.434   7.773  0.00  0.00     0.136 C 
HETATM    2  C   UNK N   1      34.453  18.372   8.183  0.00  0.00     0.060 C 
HETATM    3  N   UNK N   1      35.273  19.123   8.509  0.00  0.00    -0.197 NA
ENDROOT
BRANCH   1   4
HETATM    4  C   UNK N   1      31.897  17.827   7.880  0.00  0.00     0.044 C 
HETATM    5  C   UNK N   1      30.988  18.084   9.095  0.00  0.00    -0.015 C 
HETATM    6  C   UNK N   1      29.623  17.991   8.984  0.00  0.00     0.026 C 
HETATM    7  C   UNK N   1      28.987  17.431   7.742  0.00  0.00     0.048 C 
HETATM    8  C   UNK N   1      29.918  16.945   6.699  0.00  0.00     0.026 C 
HETATM    9  N   UNK N   1      27.692  17.180   7.670  0.00  0.00    -0.192 N 
HETATM   10  C   UNK N   1      31.230  17.058   6.792  0.00  0.00    -0.015 C 
HETATM   11  C   UNK N   1      27.086  16.399   6.602  0.00  0.00     0.684 A 
ATOM     12  HN  UNK N   1      27.086  17.553   8.401  1.00  0.00     0.184 HD
HETATM   13  N   UNK N   1      27.891  15.801   5.708  0.00  0.00    -0.191 N 
HETATM   14  N   UNK N   1      25.728  16.184   6.507  0.00  0.00    -0.175 N 
HETATM   15  C   UNK N   1      27.457  15.030   4.717  0.00  0.00     0.063 A 
ATOM     16  HN  UNK N   1      28.897  15.949   5.794  1.00  0.00     0.184 HD
HETATM   17  C   UNK N   1      28.403  14.480   3.854  0.00  0.00     0.031 A 
HETATM   18  C   UNK N   1      26.085  14.787   4.564  0.00  0.00     0.036 A 
HETATM   19  C   UNK N   1      28.000  13.667   2.805  0.00  0.00     0.002 A 
HETATM   20  C   UNK N   1      26.647  13.409   2.626  0.00  0.00     0.001 A 
HETATM   21  C   UNK N   1      25.713  13.967   3.500  0.00  0.00     0.017 A 
HETATM   22  C   UNK N   1      25.180  15.391   5.505  0.00  0.00     0.135 A 
ATOM     23  HN  UNK N   1      25.109  16.618   7.192  1.00  0.00     0.186 HD
BRANCH  22  24
HETATM   24  N   UNK N   1      23.733  15.233   5.486  0.00  0.00    -0.326 N 
ATOM     25  HN  UNK N   1      23.369  15.010   4.560  1.00  0.00     0.169 HD
BRANCH  24  26
HETATM   26  C   UNK N   1      22.796  15.313   6.397  0.00  0.00     0.123 A 
HETATM   27  C   UNK N   1      22.621  14.389   7.409  0.00  0.00     0.076 A 
HETATM   28  C   UNK N   1      21.530  14.882   8.123  0.00  0.00     0.033 A 
HETATM   29  N   UNK N   1      21.093  16.016   7.559  0.00  0.00    -0.303 N 
HETATM   30  N   UNK N   1      21.863  16.273   6.512  0.00  0.00    -0.285 N 
HETATM   31  H   UNK N   1      20.333  16.560   7.867  0.00  0.00     0.186 HD
HETATM   32  H   UNK N   1      21.767  17.048   5.913  0.00  0.00     0.188 HD
BRANCH  28  33
HETATM   33  C   UNK N   1      20.918  14.143   9.278  0.00  0.00     0.037 A 
HETATM   34  C   UNK N   1      20.396  13.218  10.347  0.00  0.00     0.011 A 
HETATM   35  C   UNK N   1      21.893  13.357  10.177  0.00  0.00     0.011 A 
ENDBRANCH  28  33
ENDBRANCH  24  26
ENDBRANCH  22  24
ENDBRANCH   1   4
TORSDOF 4
ENDMDL
MODEL 6
REMARK VINA RESULT:      -7.6     20.627     24.331
REMARK  4 active torsions:
REMARK  status: ('A' for Active; 'I' for Inactive)
REMARK    1  A    between atoms: C_14  and  C_11 
REMARK    2  A    between atoms: C_19  and  C_15 
REMARK    3  A    between atoms: N_28  and  C_20 
REMARK    4  A    between atoms: N_28  and  C_21 
REMARK       I    between atoms: N_24  and  C_22 
ROOT
HETATM    1  C   UNK N   1      25.563  28.323  -4.062  0.00  0.00     0.136 C 
HETATM    2  C   UNK N   1      26.581  29.035  -3.273  0.00  0.00     0.060 C 
HETATM    3  N   UNK N   1      27.397  29.587  -2.662  0.00  0.00    -0.197 NA
ENDROOT
BRANCH   1   4
HETATM    4  C   UNK N   1      25.973  27.377  -5.224  0.00  0.00     0.044 C 
HETATM    5  C   UNK N   1      25.143  26.659  -6.303  0.00  0.00    -0.015 C 
HETATM    6  C   UNK N   1      25.636  25.552  -6.947  0.00  0.00     0.026 C 
HETATM    7  C   UNK N   1      26.898  24.883  -6.476  0.00  0.00     0.048 C 
HETATM    8  C   UNK N   1      27.520  25.457  -5.262  0.00  0.00     0.026 C 
HETATM    9  N   UNK N   1      27.306  23.729  -6.972  0.00  0.00    -0.192 N 
HETATM   10  C   UNK N   1      27.064  26.536  -4.656  0.00  0.00    -0.015 C 
HETATM   11  C   UNK N   1      28.358  22.925  -6.367  0.00  0.00     0.684 A 
ATOM     12  HN  UNK N   1      26.861  23.383  -7.822  1.00  0.00     0.184 HD
HETATM   13  N   UNK N   1      28.860  23.312  -5.182  0.00  0.00    -0.191 N 
HETATM   14  N   UNK N   1      28.813  21.747  -6.918  0.00  0.00    -0.175 N 
HETATM   15  C   UNK N   1      29.790  22.638  -4.514  0.00  0.00     0.063 A 
ATOM     16  HN  UNK N   1      28.506  24.176  -4.770  1.00  0.00     0.184 HD
HETATM   17  C   UNK N   1      30.228  23.159  -3.298  0.00  0.00     0.031 A 
HETATM   18  C   UNK N   1      30.299  21.440  -5.033  0.00  0.00     0.036 A 
HETATM   19  C   UNK N   1      31.197  22.492  -2.563  0.00  0.00     0.002 A 
HETATM   20  C   UNK N   1      31.722  21.303  -3.052  0.00  0.00     0.001 A 
HETATM   21  C   UNK N   1      31.271  20.794  -4.270  0.00  0.00     0.017 A 
HETATM   22  C   UNK N   1      29.784  20.973  -6.293  0.00  0.00     0.135 A 
ATOM     23  HN  UNK N   1      28.426  21.435  -7.808  1.00  0.00     0.186 HD
BRANCH  22  24
HETATM   24  N   UNK N   1      30.204  19.748  -6.960  0.00  0.00    -0.326 N 
ATOM     25  HN  UNK N   1      30.267  18.951  -6.327  1.00  0.00     0.169 HD
BRANCH  24  26
HETATM   26  C   UNK N   1      30.517  19.446  -8.194  0.00  0.00     0.123 A 
HETATM   27  C   UNK N   1      30.037  18.337  -8.864  0.00  0.00     0.076 A 
HETATM   28  C   UNK N   1      30.626  18.431 -10.124  0.00  0.00     0.033 A 
HETATM   29  N   UNK N   1      31.404  19.519 -10.182  0.00  0.00    -0.303 N 
HETATM   30  N   UNK N   1      31.335  20.132  -9.010  0.00  0.00    -0.285 N 
HETATM   31  H   UNK N   1      31.933  19.812 -10.959  0.00  0.00     0.186 HD
HETATM   32  H   UNK N   1      31.810  20.961  -8.773  0.00  0.00     0.188 HD
BRANCH  28  33
HETATM   33  C   UNK N   1      30.455  17.373 -11.177  0.00  0.00     0.037 A 
HETATM   34  C   UNK N   1      30.066  16.324 -12.187  0.00  0.00     0.011 A 
HETATM   35  C   UNK N   1      29.532  17.730 -12.358  0.00  0.00     0.011 A 
ENDBRANCH  28  33
ENDBRANCH  24  26
ENDBRANCH  22  24
ENDBRANCH   1   4
TORSDOF 4
ENDMDL
MODEL 7
REMARK VINA RESULT:      -7.6      6.290     13.106
REMARK  4 active torsions:
REMARK  status: ('A' for Active; 'I' for Inactive)
REMARK    1  A    between atoms: C_14  and  C_11 
REMARK    2  A    between atoms: C_19  and  C_15 
REMARK    3  A    between atoms: N_28  and  C_20 
REMARK    4  A    between atoms: N_28  and  C_21 
REMARK       I    between atoms: N_24  and  C_22 
ROOT
HETATM    1  C   UNK N   1      23.710  15.395   3.002  0.00  0.00     0.136 C 
HETATM    2  C   UNK N   1      22.799  15.016   1.910  0.00  0.00     0.060 C 
HETATM    3  N   UNK N   1      22.096  14.720   1.038  0.00  0.00    -0.197 NA
ENDROOT
BRANCH   1   4
HETATM    4  C   UNK N   1      25.197  15.740   2.716  0.00  0.00     0.044 C 
HETATM    5  C   UNK N   1      26.274  15.023   1.883  0.00  0.00    -0.015 C 
HETATM    6  C   UNK N   1      27.608  15.253   2.112  0.00  0.00     0.026 C 
HETATM    7  C   UNK N   1      28.061  16.039   3.310  0.00  0.00     0.048 C 
HETATM    8  C   UNK N   1      26.993  16.484   4.234  0.00  0.00     0.026 C 
HETATM    9  N   UNK N   1      29.335  16.139   3.642  0.00  0.00    -0.192 N 
HETATM   10  C   UNK N   1      25.709  16.288   4.003  0.00  0.00    -0.015 C 
HETATM   11  C   UNK N   1      29.790  16.655   4.925  0.00  0.00     0.684 A 
ATOM     12  HN  UNK N   1      30.037  15.838   2.965  1.00  0.00     0.184 HD
HETATM   13  N   UNK N   1      28.873  16.934   5.866  0.00  0.00    -0.191 N 
HETATM   14  N   UNK N   1      31.123  16.802   5.244  0.00  0.00    -0.175 N 
HETATM   15  C   UNK N   1      29.170  17.368   7.086  0.00  0.00     0.063 A 
ATOM     16  HN  UNK N   1      27.889  16.805   5.630  1.00  0.00     0.184 HD
HETATM   17  C   UNK N   1      28.117  17.629   7.961  0.00  0.00     0.031 A 
HETATM   18  C   UNK N   1      30.508  17.549   7.462  0.00  0.00     0.036 A 
HETATM   19  C   UNK N   1      28.376  18.084   9.246  0.00  0.00     0.002 A 
HETATM   20  C   UNK N   1      29.692  18.274   9.648  0.00  0.00     0.001 A 
HETATM   21  C   UNK N   1      30.734  18.007   8.759  0.00  0.00     0.017 A 
HETATM   22  C   UNK N   1      31.531  17.250   6.495  0.00  0.00     0.135 A 
ATOM     23  HN  UNK N   1      31.828  16.576   4.543  1.00  0.00     0.186 HD
BRANCH  22  24
HETATM   24  N   UNK N   1      32.962  17.380   6.732  0.00  0.00    -0.326 N 
ATOM     25  HN  UNK N   1      33.482  17.644   5.895  1.00  0.00     0.169 HD
BRANCH  24  26
HETATM   26  C   UNK N   1      33.728  17.232   7.783  0.00  0.00     0.123 A 
HETATM   27  C   UNK N   1      34.137  16.007   8.275  0.00  0.00     0.076 A 
HETATM   28  C   UNK N   1      34.926  16.339   9.375  0.00  0.00     0.033 A 
HETATM   29  N   UNK N   1      34.967  17.670   9.520  0.00  0.00    -0.303 N 
HETATM   30  N   UNK N   1      34.239  18.208   8.552  0.00  0.00    -0.285 N 
HETATM   31  H   UNK N   1      35.452  18.162  10.221  0.00  0.00     0.186 HD
HETATM   32  H   UNK N   1      34.096  19.172   8.418  0.00  0.00     0.188 HD
BRANCH  28  33
HETATM   33  C   UNK N   1      35.521  15.303  10.286  0.00  0.00     0.037 A 
HETATM   34  C   UNK N   1      36.066  14.404  11.365  0.00  0.00     0.011 A 
HETATM   35  C   UNK N   1      34.591  14.745  11.382  0.00  0.00     0.011 A 
ENDBRANCH  28  33
ENDBRANCH  24  26
ENDBRANCH  22  24
ENDBRANCH   1   4
TORSDOF 4
ENDMDL
MODEL 8
REMARK VINA RESULT:      -7.6      5.792     12.707
REMARK  4 active torsions:
REMARK  status: ('A' for Active; 'I' for Inactive)
REMARK    1  A    between atoms: C_14  and  C_11 
REMARK    2  A    between atoms: C_19  and  C_15 
REMARK    3  A    between atoms: N_28  and  C_20 
REMARK    4  A    between atoms: N_28  and  C_21 
REMARK       I    between atoms: N_24  and  C_22 
ROOT
HETATM    1  C   UNK N   1      24.177  19.190   3.507  0.00  0.00     0.136 C 
HETATM    2  C   UNK N   1      23.380  20.369   3.131  0.00  0.00     0.060 C 
HETATM    3  N   UNK N   1      22.762  21.307   2.850  0.00  0.00    -0.197 NA
ENDROOT
BRANCH   1   4
HETATM    4  C   UNK N   1      25.179  19.249   4.691  0.00  0.00     0.044 C 
HETATM    5  C   UNK N   1      25.958  20.419   5.318  0.00  0.00    -0.015 C 
HETATM    6  C   UNK N   1      27.095  20.193   6.053  0.00  0.00     0.026 C 
HETATM    7  C   UNK N   1      27.731  18.831   6.091  0.00  0.00     0.048 C 
HETATM    8  C   UNK N   1      27.091  17.794   5.251  0.00  0.00     0.026 C 
HETATM    9  N   UNK N   1      28.907  18.623   6.655  0.00  0.00    -0.192 N 
HETATM   10  C   UNK N   1      25.983  18.001   4.564  0.00  0.00    -0.015 C 
HETATM   11  C   UNK N   1      29.672  17.396   6.480  0.00  0.00     0.684 A 
ATOM     12  HN  UNK N   1      29.299  19.359   7.242  1.00  0.00     0.184 HD
HETATM   13  N   UNK N   1      29.221  16.477   5.611  0.00  0.00    -0.191 N 
HETATM   14  N   UNK N   1      30.874  17.166   7.112  0.00  0.00    -0.175 N 
HETATM   15  C   UNK N   1      29.853  15.342   5.336  0.00  0.00     0.063 A 
ATOM     16  HN  UNK N   1      28.339  16.661   5.132  1.00  0.00     0.184 HD
HETATM   17  C   UNK N   1      29.267  14.471   4.419  0.00  0.00     0.031 A 
HETATM   18  C   UNK N   1      31.074  15.049   5.959  0.00  0.00     0.036 A 
HETATM   19  C   UNK N   1      29.889  13.273   4.099  0.00  0.00     0.002 A 
HETATM   20  C   UNK N   1      31.100  12.954   4.701  0.00  0.00     0.001 A 
HETATM   21  C   UNK N   1      31.674  13.837   5.616  0.00  0.00     0.017 A 
HETATM   22  C   UNK N   1      31.609  16.008   6.889  0.00  0.00     0.135 A 
ATOM     23  HN  UNK N   1      31.235  17.866   7.761  1.00  0.00     0.186 HD
BRANCH  22  24
HETATM   24  N   UNK N   1      32.865  15.855   7.611  0.00  0.00    -0.326 N 
ATOM     25  HN  UNK N   1      33.677  16.136   7.061  1.00  0.00     0.169 HD
BRANCH  24  26
HETATM   26  C   UNK N   1      33.180  15.437   8.810  0.00  0.00     0.123 A 
HETATM   27  C   UNK N   1      34.424  14.946   9.156  0.00  0.00     0.076 A 
HETATM   28  C   UNK N   1      34.294  14.637  10.509  0.00  0.00     0.033 A 
HETATM   29  N   UNK N   1      33.052  14.922  10.923  0.00  0.00    -0.303 N 
HETATM   30  N   UNK N   1      32.380  15.407   9.890  0.00  0.00    -0.285 N 
HETATM   31  H   UNK N   1      32.702  14.794  11.834  0.00  0.00     0.186 HD
HETATM   32  H   UNK N   1      31.440  15.699   9.910  0.00  0.00     0.188 HD
BRANCH  28  33
HETATM   33  C   UNK N   1      35.391  13.981  11.298  0.00  0.00     0.037 A 
HETATM   34  C   UNK N   1      36.609  13.510  12.050  0.00  0.00     0.011 A 
HETATM   35  C   UNK N   1      35.888  14.747  12.540  0.00  0.00     0.011 A 
ENDBRANCH  28  33
ENDBRANCH  24  26
ENDBRANCH  22  24
ENDBRANCH   1   4
TORSDOF 4
ENDMDL
MODEL 9
REMARK VINA RESULT:      -7.2      3.017      4.232
REMARK  4 active torsions:
REMARK  status: ('A' for Active; 'I' for Inactive)
REMARK    1  A    between atoms: C_14  and  C_11 
REMARK    2  A    between atoms: C_19  and  C_15 
REMARK    3  A    between atoms: N_28  and  C_20 
REMARK    4  A    between atoms: N_28  and  C_21 
REMARK       I    between atoms: N_24  and  C_22 
ROOT
HETATM    1  C   UNK N   1      37.180   9.276  16.897  0.00  0.00     0.136 C 
HETATM    2  C   UNK N   1      37.291   7.879  16.446  0.00  0.00     0.060 C 
HETATM    3  N   UNK N   1      37.364   6.782  16.079  0.00  0.00    -0.197 NA
ENDROOT
BRANCH   1   4
HETATM    4  C   UNK N   1      36.147  10.241  16.254  0.00  0.00     0.044 C 
HETATM    5  C   UNK N   1      34.626  10.129  16.053  0.00  0.00    -0.015 C 
HETATM    6  C   UNK N   1      33.987  10.876  15.096  0.00  0.00     0.026 C 
HETATM    7  C   UNK N   1      34.770  11.660  14.079  0.00  0.00     0.048 C 
HETATM    8  C   UNK N   1      36.242  11.522  14.148  0.00  0.00     0.026 C 
HETATM    9  N   UNK N   1      34.187  12.255  13.053  0.00  0.00    -0.192 N 
HETATM   10  C   UNK N   1      36.860  10.826  15.083  0.00  0.00    -0.015 C 
HETATM   11  C   UNK N   1      34.922  12.788  11.915  0.00  0.00     0.684 A 
ATOM     12  HN  UNK N   1      33.171  12.345  13.059  1.00  0.00     0.184 HD
HETATM   13  N   UNK N   1      36.244  12.562  11.842  0.00  0.00    -0.191 N 
HETATM   14  N   UNK N   1      34.312  13.451  10.873  0.00  0.00    -0.175 N 
HETATM   15  C   UNK N   1      37.011  12.961  10.833  0.00  0.00     0.063 A 
ATOM     16  HN  UNK N   1      36.687  12.054  12.608  1.00  0.00     0.184 HD
HETATM   17  C   UNK N   1      38.372  12.667  10.890  0.00  0.00     0.031 A 
HETATM   18  C   UNK N   1      36.446  13.651   9.752  0.00  0.00     0.036 A 
HETATM   19  C   UNK N   1      39.214  13.062   9.860  0.00  0.00     0.002 A 
HETATM   20  C   UNK N   1      38.684  13.749   8.775  0.00  0.00     0.001 A 
HETATM   21  C   UNK N   1      37.319  14.034   8.733  0.00  0.00     0.017 A 
HETATM   22  C   UNK N   1      35.031  13.906   9.773  0.00  0.00     0.135 A 
ATOM     23  HN  UNK N   1      33.305  13.612  10.909  1.00  0.00     0.186 HD
BRANCH  22  24
HETATM   24  N   UNK N   1      34.295  14.603   8.727  0.00  0.00    -0.326 N 
ATOM     25  HN  UNK N   1      34.461  14.216   7.798  1.00  0.00     0.169 HD
BRANCH  24  26
HETATM   26  C   UNK N   1      33.468  15.617   8.718  0.00  0.00     0.123 A 
HETATM   27  C   UNK N   1      32.229  15.598   8.107  0.00  0.00     0.076 A 
HETATM   28  C   UNK N   1      31.716  16.870   8.358  0.00  0.00     0.033 A 
HETATM   29  N   UNK N   1      32.602  17.586   9.063  0.00  0.00    -0.303 N 
HETATM   30  N   UNK N   1      33.663  16.823   9.279  0.00  0.00    -0.285 N 
HETATM   31  H   UNK N   1      32.486  18.515   9.366  0.00  0.00     0.186 HD
HETATM   32  H   UNK N   1      34.469  17.096   9.773  0.00  0.00     0.188 HD
BRANCH  28  33
HETATM   33  C   UNK N   1      30.403  17.338   7.798  0.00  0.00     0.037 A 
HETATM   34  C   UNK N   1      29.001  17.624   7.328  0.00  0.00     0.011 A 
HETATM   35  C   UNK N   1      29.268  17.562   8.816  0.00  0.00     0.011 A 
ENDBRANCH  28  33
ENDBRANCH  24  26
ENDBRANCH  22  24
ENDBRANCH   1   4
TORSDOF 4
ENDMDL
