REMARK  2 active torsions:
REMARK  status: ('A' for Active; 'I' for Inactive)
REMARK    1  A    between atoms: C_2  and  N_3 
REMARK       I    between atoms: N_3  and  C_4 
REMARK       I    between atoms: C_11  and  N_12 
REMARK    2  A    between atoms: N_12  and  C_13 
ROOT
HETATM    1  N   UNK N   1       2.828  -1.398   0.112  0.00  0.00    -0.226 N 
HETATM    2  C   UNK N   1       1.636  -0.639   0.076  0.00  0.00     0.694 A 
HETATM    3  N   UNK N   1       0.425  -1.253  -0.001  0.00  0.00    -0.165 N 
ATOM      4  HN  UNK N   1       0.370  -2.271  -0.015  1.00  0.00     0.186 HD
HETATM    5  C   UNK N   1      -0.710  -0.511  -0.060  0.00  0.00     0.208 A 
HETATM    6 Cl   UNK N   1      -2.268  -1.303  -0.143  0.00  0.00    -0.044 Cl
HETATM    7  N   UNK N   1      -0.636   0.844  -0.053  0.00  0.00    -0.165 N 
ATOM      8  HN  UNK N   1      -1.490   1.400  -0.109  1.00  0.00     0.186 HD
HETATM    9  C   UNK N   1       0.569   1.461   0.030  0.00  0.00     0.695 A 
HETATM   10  N   UNK N   1       0.632   2.878   0.034  0.00  0.00    -0.222 N 
HETATM   11  N   UNK N   1       1.704   0.715   0.099  0.00  0.00    -0.022 N 
ATOM     12  HN  UNK N   1       2.611   1.177   0.168  1.00  0.00     0.203 HD
HETATM   13  H   UNK N   1       3.692  -0.931   0.184  0.00  0.00     0.177 HD
HETATM   14  H   UNK N   1      -0.192   3.382  -0.156  0.00  0.00     0.178 HD
ENDROOT
BRANCH  10  15
HETATM   15  C   UNK N   1       1.844   3.619   0.303  0.00  0.00     0.091 C 
HETATM   16  C   UNK N   1       1.547   5.101   0.206  0.00  0.00     0.032 C 
HETATM   17  C   UNK N   1       2.941   3.278  -0.690  0.00  0.00     0.032 C 
ENDBRANCH  10  15
BRANCH   1  18
HETATM   18  C   UNK N   1       2.813  -2.836   0.048  0.00  0.00     0.133 C 
HETATM   19  C   UNK N   1       4.235  -3.354   0.040  0.00  0.00     0.027 C 
ENDBRANCH   1  18
TORSDOF 2
