MODEL 1
REMARK VINA RESULT:      -5.5      0.000      0.000
REMARK  15 active torsions:
REMARK  status: ('A' for Active; 'I' for Inactive)
REMARK    1  A    between atoms: C_5  and  C_4 
REMARK    2  A    between atoms: C_6  and  C_4 
REMARK    3  A    between atoms: C_7  and  C_5 
REMARK    4  A    between atoms: C_13  and  C_6 
REMARK    5  A    between atoms: C_17  and  C_7 
REMARK    6  A    between atoms: C_13  and  C_8 
REMARK    7  A    between atoms: C_14  and  C_8 
REMARK    8  A    between atoms: C_15  and  C_9 
REMARK    9  A    between atoms: C_18  and  C_10 
REMARK   10  A    between atoms: C_16  and  C_11 
REMARK   11  A    between atoms: C_16  and  C_12 
REMARK   12  A    between atoms: O_20  and  C_12 
REMARK   13  A    between atoms: C_17  and  C_16 
REMARK   14  A    between atoms: C_17  and  O_21 
REMARK   15  A    between atoms: O_23  and  C_18 
ROOT
HETATM    1  C   UNK N   1      28.579  27.426  -4.080  0.00  0.00     0.004 C 
ENDROOT
BRANCH   1   2
HETATM    2  C   UNK N   1      28.419  25.906  -3.915  0.00  0.00     0.000 C 
BRANCH   2   3
HETATM    3  C   UNK N   1      28.957  25.039  -5.055  0.00  0.00     0.002 C 
BRANCH   3   4
HETATM    4  C   UNK N   1      28.857  23.544  -4.728  0.00  0.00     0.032 C 
BRANCH   4   5
HETATM    5  C   UNK N   1      30.196  22.804  -4.842  0.00  0.00     0.130 C 
BRANCH   5   6
HETATM    6  C   UNK N   1      30.924  22.720  -3.477  0.00  0.00     0.099 C 
BRANCH   6   7
HETATM    7  C   UNK N   1      29.954  22.894  -2.343  0.00  0.00     0.240 C 
HETATM    8  O   UNK N   1      30.347  23.026  -1.194  0.00  0.00    -0.306 OA
ENDBRANCH   6   7
BRANCH   6   9
HETATM    9  C   UNK N   1      31.593  21.361  -3.261  0.00  0.00     0.178 C 
BRANCH   9  10
HETATM   10  O   UNK N   1      32.442  21.377  -2.154  0.00  0.00    -0.400 OA
HETATM   11  H   UNK N   1      32.244  21.404  -1.204  0.00  0.00     0.209 HD
ENDBRANCH   9  10
ENDBRANCH   6   9
ENDBRANCH   5   6
BRANCH   5  12
HETATM   12  O   UNK N   1      29.948  21.520  -5.334  0.00  0.00    -0.395 OA
HETATM   13  H   UNK N   1      29.236  21.265  -5.940  0.00  0.00     0.210 HD
ENDBRANCH   5  12
ENDBRANCH   4   5
ENDBRANCH   3   4
ENDBRANCH   2   3
ENDBRANCH   1   2
BRANCH   1  14
HETATM   14  C   UNK N   1      27.287  28.198  -4.336  0.00  0.00    -0.015 C 
HETATM   15  C   UNK N   1      27.301  29.504  -3.555  0.00  0.00     0.010 C 
BRANCH  14  16
HETATM   16  C   UNK N   1      27.077  28.420  -5.843  0.00  0.00     0.038 C 
BRANCH  16  17
HETATM   17  C   UNK N   1      26.318  27.315  -6.535  0.00  0.00    -0.083 C 
HETATM   18  C   UNK N   1      25.006  26.955  -5.920  0.00  0.00     0.043 C 
HETATM   19  C   UNK N   1      26.814  26.692  -7.635  0.00  0.00     0.009 C 
BRANCH  19  20
HETATM   20  C   UNK N   1      26.097  25.620  -8.413  0.00  0.00    -0.055 C 
HETATM   21  C   UNK N   1      25.410  25.945  -9.707  0.00  0.00     0.048 C 
HETATM   22  C   UNK N   1      26.095  24.348  -7.941  0.00  0.00     0.087 C 
BRANCH  22  23
HETATM   23  C   UNK N   1      25.434  23.192  -8.614  0.00  0.00     0.165 C 
HETATM   24  O   UNK N   1      24.281  22.880  -8.368  0.00  0.00    -0.647 OA
BRANCH  23  25
HETATM   25  O   UNK N   1      26.130  22.472  -9.515  0.00  0.00    -0.773 OA
HETATM   26  H   UNK N   1      25.689  21.855 -10.065  0.00  0.00     0.167 HD
ENDBRANCH  23  25
ENDBRANCH  22  23
ENDBRANCH  19  20
ENDBRANCH  16  17
ENDBRANCH  14  16
ENDBRANCH   1  14
TORSDOF 15
ENDMDL
MODEL 2
REMARK VINA RESULT:      -5.5      2.546      6.698
REMARK  15 active torsions:
REMARK  status: ('A' for Active; 'I' for Inactive)
REMARK    1  A    between atoms: C_5  and  C_4 
REMARK    2  A    between atoms: C_6  and  C_4 
REMARK    3  A    between atoms: C_7  and  C_5 
REMARK    4  A    between atoms: C_13  and  C_6 
REMARK    5  A    between atoms: C_17  and  C_7 
REMARK    6  A    between atoms: C_13  and  C_8 
REMARK    7  A    between atoms: C_14  and  C_8 
REMARK    8  A    between atoms: C_15  and  C_9 
REMARK    9  A    between atoms: C_18  and  C_10 
REMARK   10  A    between atoms: C_16  and  C_11 
REMARK   11  A    between atoms: C_16  and  C_12 
REMARK   12  A    between atoms: O_20  and  C_12 
REMARK   13  A    between atoms: C_17  and  C_16 
REMARK   14  A    between atoms: C_17  and  O_21 
REMARK   15  A    between atoms: O_23  and  C_18 
ROOT
HETATM    1  C   UNK N   1      26.703  23.435  -8.198  0.00  0.00     0.004 C 
ENDROOT
BRANCH   1   2
HETATM    2  C   UNK N   1      25.578  24.361  -7.707  0.00  0.00     0.000 C 
BRANCH   2   3
HETATM    3  C   UNK N   1      25.949  25.357  -6.606  0.00  0.00     0.002 C 
BRANCH   3   4
HETATM    4  C   UNK N   1      25.807  24.741  -5.209  0.00  0.00     0.032 C 
BRANCH   4   5
HETATM    5  C   UNK N   1      26.890  25.202  -4.226  0.00  0.00     0.130 C 
BRANCH   5   6
HETATM    6  C   UNK N   1      27.187  26.715  -4.366  0.00  0.00     0.099 C 
BRANCH   6   7
HETATM    7  C   UNK N   1      26.653  27.477  -3.187  0.00  0.00     0.240 C 
HETATM    8  O   UNK N   1      25.457  27.697  -3.069  0.00  0.00    -0.306 OA
ENDBRANCH   6   7
BRANCH   6   9
HETATM    9  C   UNK N   1      28.689  27.007  -4.416  0.00  0.00     0.178 C 
BRANCH   9  10
HETATM   10  O   UNK N   1      29.420  26.061  -3.696  0.00  0.00    -0.400 OA
HETATM   11  H   UNK N   1      29.643  25.140  -3.904  0.00  0.00     0.209 HD
ENDBRANCH   9  10
ENDBRANCH   6   9
ENDBRANCH   5   6
BRANCH   5  12
HETATM   12  O   UNK N   1      26.457  24.915  -2.929  0.00  0.00    -0.395 OA
HETATM   13  H   UNK N   1      25.813  24.236  -2.675  0.00  0.00     0.210 HD
ENDBRANCH   5  12
ENDBRANCH   4   5
ENDBRANCH   3   4
ENDBRANCH   2   3
ENDBRANCH   1   2
BRANCH   1  14
HETATM   14  C   UNK N   1      26.750  22.057  -7.543  0.00  0.00    -0.015 C 
HETATM   15  C   UNK N   1      25.543  21.238  -7.973  0.00  0.00     0.010 C 
BRANCH  14  16
HETATM   16  C   UNK N   1      28.079  21.350  -7.861  0.00  0.00     0.038 C 
BRANCH  16  17
HETATM   17  C   UNK N   1      29.122  21.470  -6.777  0.00  0.00    -0.083 C 
HETATM   18  C   UNK N   1      30.149  20.387  -6.752  0.00  0.00     0.043 C 
HETATM   19  C   UNK N   1      29.107  22.493  -5.885  0.00  0.00     0.009 C 
BRANCH  19  20
HETATM   20  C   UNK N   1      30.138  22.714  -4.810  0.00  0.00    -0.055 C 
HETATM   21  C   UNK N   1      31.363  23.537  -5.084  0.00  0.00     0.048 C 
HETATM   22  C   UNK N   1      29.940  22.175  -3.581  0.00  0.00     0.087 C 
BRANCH  22  23
HETATM   23  C   UNK N   1      30.873  22.323  -2.427  0.00  0.00     0.165 C 
HETATM   24  O   UNK N   1      30.699  23.167  -1.564  0.00  0.00    -0.647 OA
BRANCH  23  25
HETATM   25  O   UNK N   1      31.939  21.503  -2.336  0.00  0.00    -0.773 OA
HETATM   26  H   UNK N   1      31.894  20.634  -2.683  0.00  0.00     0.167 HD
ENDBRANCH  23  25
ENDBRANCH  22  23
ENDBRANCH  19  20
ENDBRANCH  16  17
ENDBRANCH  14  16
ENDBRANCH   1  14
TORSDOF 15
ENDMDL
MODEL 3
REMARK VINA RESULT:      -5.5      1.686      2.961
REMARK  15 active torsions:
REMARK  status: ('A' for Active; 'I' for Inactive)
REMARK    1  A    between atoms: C_5  and  C_4 
REMARK    2  A    between atoms: C_6  and  C_4 
REMARK    3  A    between atoms: C_7  and  C_5 
REMARK    4  A    between atoms: C_13  and  C_6 
REMARK    5  A    between atoms: C_17  and  C_7 
REMARK    6  A    between atoms: C_13  and  C_8 
REMARK    7  A    between atoms: C_14  and  C_8 
REMARK    8  A    between atoms: C_15  and  C_9 
REMARK    9  A    between atoms: C_18  and  C_10 
REMARK   10  A    between atoms: C_16  and  C_11 
REMARK   11  A    between atoms: C_16  and  C_12 
REMARK   12  A    between atoms: O_20  and  C_12 
REMARK   13  A    between atoms: C_17  and  C_16 
REMARK   14  A    between atoms: C_17  and  O_21 
REMARK   15  A    between atoms: O_23  and  C_18 
ROOT
HETATM    1  C   UNK N   1      27.184  28.273  -5.638  0.00  0.00     0.004 C 
ENDROOT
BRANCH   1   2
HETATM    2  C   UNK N   1      28.474  27.647  -6.192  0.00  0.00     0.000 C 
BRANCH   2   3
HETATM    3  C   UNK N   1      29.478  27.131  -5.158  0.00  0.00     0.002 C 
BRANCH   3   4
HETATM    4  C   UNK N   1      29.457  25.601  -5.058  0.00  0.00     0.032 C 
BRANCH   4   5
HETATM    5  C   UNK N   1      29.505  25.083  -3.615  0.00  0.00     0.130 C 
BRANCH   5   6
HETATM    6  C   UNK N   1      29.193  23.569  -3.537  0.00  0.00     0.099 C 
BRANCH   6   7
HETATM    7  C   UNK N   1      30.273  22.765  -4.204  0.00  0.00     0.240 C 
HETATM    8  O   UNK N   1      30.251  21.544  -4.187  0.00  0.00    -0.306 OA
ENDBRANCH   6   7
BRANCH   6   9
HETATM    9  C   UNK N   1      29.119  23.067  -2.093  0.00  0.00     0.178 C 
BRANCH   9  10
HETATM   10  O   UNK N   1      30.385  23.002  -1.507  0.00  0.00    -0.400 OA
HETATM   11  H   UNK N   1      30.902  22.242  -1.199  0.00  0.00     0.209 HD
ENDBRANCH   9  10
ENDBRANCH   6   9
ENDBRANCH   5   6
BRANCH   5  12
HETATM   12  O   UNK N   1      30.778  25.340  -3.099  0.00  0.00    -0.395 OA
HETATM   13  H   UNK N   1      31.004  26.008  -2.434  0.00  0.00     0.210 HD
ENDBRANCH   5  12
ENDBRANCH   4   5
ENDBRANCH   3   4
ENDBRANCH   2   3
ENDBRANCH   1   2
BRANCH   1  14
HETATM   14  C   UNK N   1      26.268  27.320  -4.874  0.00  0.00    -0.015 C 
HETATM   15  C   UNK N   1      25.673  28.031  -3.668  0.00  0.00     0.010 C 
BRANCH  14  16
HETATM   16  C   UNK N   1      25.187  26.744  -5.805  0.00  0.00     0.038 C 
BRANCH  16  17
HETATM   17  C   UNK N   1      25.626  25.535  -6.593  0.00  0.00    -0.083 C 
HETATM   18  C   UNK N   1      25.745  25.738  -8.067  0.00  0.00     0.043 C 
HETATM   19  C   UNK N   1      25.880  24.345  -5.989  0.00  0.00     0.009 C 
BRANCH  19  20
HETATM   20  C   UNK N   1      26.372  23.109  -6.694  0.00  0.00    -0.055 C 
HETATM   21  C   UNK N   1      25.404  22.071  -7.180  0.00  0.00     0.048 C 
HETATM   22  C   UNK N   1      27.702  22.951  -6.902  0.00  0.00     0.087 C 
BRANCH  22  23
HETATM   23  C   UNK N   1      28.323  21.783  -7.593  0.00  0.00     0.165 C 
HETATM   24  O   UNK N   1      28.158  21.581  -8.785  0.00  0.00    -0.647 OA
BRANCH  23  25
HETATM   25  O   UNK N   1      29.083  20.928  -6.882  0.00  0.00    -0.773 OA
HETATM   26  H   UNK N   1      28.689  20.196  -6.452  0.00  0.00     0.167 HD
ENDBRANCH  23  25
ENDBRANCH  22  23
ENDBRANCH  19  20
ENDBRANCH  16  17
ENDBRANCH  14  16
ENDBRANCH   1  14
TORSDOF 15
ENDMDL
MODEL 4
REMARK VINA RESULT:      -5.4     11.518     15.120
REMARK  15 active torsions:
REMARK  status: ('A' for Active; 'I' for Inactive)
REMARK    1  A    between atoms: C_5  and  C_4 
REMARK    2  A    between atoms: C_6  and  C_4 
REMARK    3  A    between atoms: C_7  and  C_5 
REMARK    4  A    between atoms: C_13  and  C_6 
REMARK    5  A    between atoms: C_17  and  C_7 
REMARK    6  A    between atoms: C_13  and  C_8 
REMARK    7  A    between atoms: C_14  and  C_8 
REMARK    8  A    between atoms: C_15  and  C_9 
REMARK    9  A    between atoms: C_18  and  C_10 
REMARK   10  A    between atoms: C_16  and  C_11 
REMARK   11  A    between atoms: C_16  and  C_12 
REMARK   12  A    between atoms: O_20  and  C_12 
REMARK   13  A    between atoms: C_17  and  C_16 
REMARK   14  A    between atoms: C_17  and  O_21 
REMARK   15  A    between atoms: O_23  and  C_18 
ROOT
HETATM    1  C   UNK N   1      31.300  16.280   7.811  0.00  0.00     0.004 C 
ENDROOT
BRANCH   1   2
HETATM    2  C   UNK N   1      32.379  16.457   6.731  0.00  0.00     0.000 C 
BRANCH   2   3
HETATM    3  C   UNK N   1      33.465  17.496   7.021  0.00  0.00     0.002 C 
BRANCH   3   4
HETATM    4  C   UNK N   1      34.628  16.896   7.820  0.00  0.00     0.032 C 
BRANCH   4   5
HETATM    5  C   UNK N   1      34.513  17.129   9.332  0.00  0.00     0.130 C 
BRANCH   5   6
HETATM    6  C   UNK N   1      34.683  15.815  10.132  0.00  0.00     0.099 C 
BRANCH   6   7
HETATM    7  C   UNK N   1      35.251  14.729   9.262  0.00  0.00     0.240 C 
HETATM    8  O   UNK N   1      35.805  13.756   9.750  0.00  0.00    -0.306 OA
ENDBRANCH   6   7
BRANCH   6   9
HETATM    9  C   UNK N   1      35.655  15.973  11.304  0.00  0.00     0.178 C 
BRANCH   9  10
HETATM   10  O   UNK N   1      36.976  16.069  10.866  0.00  0.00    -0.400 OA
HETATM   11  H   UNK N   1      37.361  15.955   9.983  0.00  0.00     0.209 HD
ENDBRANCH   9  10
ENDBRANCH   6   9
ENDBRANCH   5   6
BRANCH   5  12
HETATM   12  O   UNK N   1      35.491  18.053   9.709  0.00  0.00    -0.395 OA
HETATM   13  H   UNK N   1      36.442  17.986   9.533  0.00  0.00     0.210 HD
ENDBRANCH   5  12
ENDBRANCH   4   5
ENDBRANCH   3   4
ENDBRANCH   2   3
ENDBRANCH   1   2
BRANCH   1  14
HETATM   14  C   UNK N   1      30.037  17.116   7.620  0.00  0.00    -0.015 C 
HETATM   15  C   UNK N   1      30.082  18.335   8.529  0.00  0.00     0.010 C 
BRANCH  14  16
HETATM   16  C   UNK N   1      29.857  17.496   6.140  0.00  0.00     0.038 C 
BRANCH  16  17
HETATM   17  C   UNK N   1      28.499  18.062   5.805  0.00  0.00    -0.083 C 
HETATM   18  C   UNK N   1      27.335  17.310   6.361  0.00  0.00     0.043 C 
HETATM   19  C   UNK N   1      28.361  19.174   5.038  0.00  0.00     0.009 C 
BRANCH  19  20
HETATM   20  C   UNK N   1      27.049  19.831   4.702  0.00  0.00    -0.055 C 
HETATM   21  C   UNK N   1      26.494  20.919   5.575  0.00  0.00     0.048 C 
HETATM   22  C   UNK N   1      26.378  19.441   3.590  0.00  0.00     0.087 C 
BRANCH  22  23
HETATM   23  C   UNK N   1      25.076  20.013   3.137  0.00  0.00     0.165 C 
HETATM   24  O   UNK N   1      24.012  19.622   3.587  0.00  0.00    -0.647 OA
BRANCH  23  25
HETATM   25  O   UNK N   1      25.076  20.986   2.204  0.00  0.00    -0.773 OA
HETATM   26  H   UNK N   1      24.887  20.779   1.310  0.00  0.00     0.167 HD
ENDBRANCH  23  25
ENDBRANCH  22  23
ENDBRANCH  19  20
ENDBRANCH  16  17
ENDBRANCH  14  16
ENDBRANCH   1  14
TORSDOF 15
ENDMDL
MODEL 5
REMARK VINA RESULT:      -5.4      2.935      5.307
REMARK  15 active torsions:
REMARK  status: ('A' for Active; 'I' for Inactive)
REMARK    1  A    between atoms: C_5  and  C_4 
REMARK    2  A    between atoms: C_6  and  C_4 
REMARK    3  A    between atoms: C_7  and  C_5 
REMARK    4  A    between atoms: C_13  and  C_6 
REMARK    5  A    between atoms: C_17  and  C_7 
REMARK    6  A    between atoms: C_13  and  C_8 
REMARK    7  A    between atoms: C_14  and  C_8 
REMARK    8  A    between atoms: C_15  and  C_9 
REMARK    9  A    between atoms: C_18  and  C_10 
REMARK   10  A    between atoms: C_16  and  C_11 
REMARK   11  A    between atoms: C_16  and  C_12 
REMARK   12  A    between atoms: O_20  and  C_12 
REMARK   13  A    between atoms: C_17  and  C_16 
REMARK   14  A    between atoms: C_17  and  O_21 
REMARK   15  A    between atoms: O_23  and  C_18 
ROOT
HETATM    1  C   UNK N   1      28.696  19.846  -7.979  0.00  0.00     0.004 C 
ENDROOT
BRANCH   1   2
HETATM    2  C   UNK N   1      29.927  20.007  -7.072  0.00  0.00     0.000 C 
BRANCH   2   3
HETATM    3  C   UNK N   1      29.855  21.115  -6.019  0.00  0.00     0.002 C 
BRANCH   3   4
HETATM    4  C   UNK N   1      31.227  21.752  -5.769  0.00  0.00     0.032 C 
BRANCH   4   5
HETATM    5  C   UNK N   1      31.159  23.043  -4.942  0.00  0.00     0.130 C 
BRANCH   5   6
HETATM    6  C   UNK N   1      31.626  22.816  -3.483  0.00  0.00     0.099 C 
BRANCH   6   7
HETATM    7  C   UNK N   1      30.449  22.641  -2.566  0.00  0.00     0.240 C 
HETATM    8  O   UNK N   1      30.482  23.049  -1.415  0.00  0.00    -0.306 OA
ENDBRANCH   6   7
BRANCH   6   9
HETATM    9  C   UNK N   1      32.471  21.548  -3.337  0.00  0.00     0.178 C 
BRANCH   9  10
HETATM   10  O   UNK N   1      32.632  21.190  -1.998  0.00  0.00    -0.400 OA
HETATM   11  H   UNK N   1      33.411  21.226  -1.421  0.00  0.00     0.209 HD
ENDBRANCH   9  10
ENDBRANCH   6   9
ENDBRANCH   5   6
BRANCH   5  12
HETATM   12  O   UNK N   1      31.962  24.004  -5.561  0.00  0.00    -0.395 OA
HETATM   13  H   UNK N   1      32.577  23.853  -6.295  0.00  0.00     0.210 HD
ENDBRANCH   5  12
ENDBRANCH   4   5
ENDBRANCH   3   4
ENDBRANCH   2   3
ENDBRANCH   1   2
BRANCH   1  14
HETATM   14  C   UNK N   1      28.561  20.885  -9.090  0.00  0.00    -0.015 C 
HETATM   15  C   UNK N   1      29.073  20.309 -10.402  0.00  0.00     0.010 C 
BRANCH  14  16
HETATM   16  C   UNK N   1      27.108  21.379  -9.196  0.00  0.00     0.038 C 
BRANCH  16  17
HETATM   17  C   UNK N   1      26.625  22.153  -7.994  0.00  0.00    -0.083 C 
HETATM   18  C   UNK N   1      25.401  21.613  -7.332  0.00  0.00     0.043 C 
HETATM   19  C   UNK N   1      27.265  23.271  -7.564  0.00  0.00     0.009 C 
BRANCH  19  20
HETATM   20  C   UNK N   1      26.881  24.067  -6.346  0.00  0.00    -0.055 C 
HETATM   21  C   UNK N   1      25.783  25.088  -6.415  0.00  0.00     0.048 C 
HETATM   22  C   UNK N   1      27.527  23.840  -5.175  0.00  0.00     0.087 C 
BRANCH  22  23
HETATM   23  C   UNK N   1      27.241  24.549  -3.893  0.00  0.00     0.165 C 
HETATM   24  O   UNK N   1      27.796  25.596  -3.601  0.00  0.00    -0.647 OA
BRANCH  23  25
HETATM   25  O   UNK N   1      26.348  24.019  -3.035  0.00  0.00    -0.773 OA
HETATM   26  H   UNK N   1      25.844  23.270  -3.285  0.00  0.00     0.167 HD
ENDBRANCH  23  25
ENDBRANCH  22  23
ENDBRANCH  19  20
ENDBRANCH  16  17
ENDBRANCH  14  16
ENDBRANCH   1  14
TORSDOF 15
ENDMDL
MODEL 6
REMARK VINA RESULT:      -5.4     12.852     15.750
REMARK  15 active torsions:
REMARK  status: ('A' for Active; 'I' for Inactive)
REMARK    1  A    between atoms: C_5  and  C_4 
REMARK    2  A    between atoms: C_6  and  C_4 
REMARK    3  A    between atoms: C_7  and  C_5 
REMARK    4  A    between atoms: C_13  and  C_6 
REMARK    5  A    between atoms: C_17  and  C_7 
REMARK    6  A    between atoms: C_13  and  C_8 
REMARK    7  A    between atoms: C_14  and  C_8 
REMARK    8  A    between atoms: C_15  and  C_9 
REMARK    9  A    between atoms: C_18  and  C_10 
REMARK   10  A    between atoms: C_16  and  C_11 
REMARK   11  A    between atoms: C_16  and  C_12 
REMARK   12  A    between atoms: O_20  and  C_12 
REMARK   13  A    between atoms: C_17  and  C_16 
REMARK   14  A    between atoms: C_17  and  O_21 
REMARK   15  A    between atoms: O_23  and  C_18 
ROOT
HETATM    1  C   UNK N   1      33.048  17.569   5.573  0.00  0.00     0.004 C 
ENDROOT
BRANCH   1   2
HETATM    2  C   UNK N   1      33.265  16.312   6.430  0.00  0.00     0.000 C 
BRANCH   2   3
HETATM    3  C   UNK N   1      33.261  16.514   7.946  0.00  0.00     0.002 C 
BRANCH   3   4
HETATM    4  C   UNK N   1      32.878  15.229   8.691  0.00  0.00     0.032 C 
BRANCH   4   5
HETATM    5  C   UNK N   1      33.920  14.792   9.729  0.00  0.00     0.130 C 
BRANCH   5   6
HETATM    6  C   UNK N   1      35.295  15.456   9.477  0.00  0.00     0.099 C 
BRANCH   6   7
HETATM    7  C   UNK N   1      35.634  16.419  10.580  0.00  0.00     0.240 C 
HETATM    8  O   UNK N   1      35.499  17.623  10.429  0.00  0.00    -0.306 OA
ENDBRANCH   6   7
BRANCH   6   9
HETATM    9  C   UNK N   1      36.434  14.434   9.440  0.00  0.00     0.178 C 
BRANCH   9  10
HETATM   10  O   UNK N   1      37.559  14.893  10.126  0.00  0.00    -0.400 OA
HETATM   11  H   UNK N   1      37.654  15.594  10.790  0.00  0.00     0.209 HD
ENDBRANCH   9  10
ENDBRANCH   6   9
ENDBRANCH   5   6
BRANCH   5  12
HETATM   12  O   UNK N   1      33.445  15.133  10.998  0.00  0.00    -0.395 OA
HETATM   13  H   UNK N   1      33.715  14.733  11.838  0.00  0.00     0.210 HD
ENDBRANCH   5  12
ENDBRANCH   4   5
ENDBRANCH   3   4
ENDBRANCH   2   3
ENDBRANCH   1   2
BRANCH   1  14
HETATM   14  C   UNK N   1      31.885  17.498   4.587  0.00  0.00    -0.015 C 
HETATM   15  C   UNK N   1      32.398  17.111   3.208  0.00  0.00     0.010 C 
BRANCH  14  16
HETATM   16  C   UNK N   1      30.799  16.536   5.098  0.00  0.00     0.038 C 
BRANCH  16  17
HETATM   17  C   UNK N   1      29.572  17.219   5.649  0.00  0.00    -0.083 C 
HETATM   18  C   UNK N   1      29.120  16.742   6.990  0.00  0.00     0.043 C 
HETATM   19  C   UNK N   1      28.927  18.193   4.956  0.00  0.00     0.009 C 
BRANCH  19  20
HETATM   20  C   UNK N   1      27.732  18.959   5.458  0.00  0.00    -0.055 C 
HETATM   21  C   UNK N   1      26.340  18.523   5.103  0.00  0.00     0.048 C 
HETATM   22  C   UNK N   1      27.925  20.041   6.252  0.00  0.00     0.087 C 
BRANCH  22  23
HETATM   23  C   UNK N   1      26.834  20.883   6.824  0.00  0.00     0.165 C 
HETATM   24  O   UNK N   1      26.389  21.849   6.228  0.00  0.00    -0.647 OA
BRANCH  23  25
HETATM   25  O   UNK N   1      26.327  20.568   8.032  0.00  0.00    -0.773 OA
HETATM   26  H   UNK N   1      25.732  21.152   8.459  0.00  0.00     0.167 HD
ENDBRANCH  23  25
ENDBRANCH  22  23
ENDBRANCH  19  20
ENDBRANCH  16  17
ENDBRANCH  14  16
ENDBRANCH   1  14
TORSDOF 15
ENDMDL
MODEL 7
REMARK VINA RESULT:      -5.4     12.283     15.309
REMARK  15 active torsions:
REMARK  status: ('A' for Active; 'I' for Inactive)
REMARK    1  A    between atoms: C_5  and  C_4 
REMARK    2  A    between atoms: C_6  and  C_4 
REMARK    3  A    between atoms: C_7  and  C_5 
REMARK    4  A    between atoms: C_13  and  C_6 
REMARK    5  A    between atoms: C_17  and  C_7 
REMARK    6  A    between atoms: C_13  and  C_8 
REMARK    7  A    between atoms: C_14  and  C_8 
REMARK    8  A    between atoms: C_15  and  C_9 
REMARK    9  A    between atoms: C_18  and  C_10 
REMARK   10  A    between atoms: C_16  and  C_11 
REMARK   11  A    between atoms: C_16  and  C_12 
REMARK   12  A    between atoms: O_20  and  C_12 
REMARK   13  A    between atoms: C_17  and  C_16 
REMARK   14  A    between atoms: C_17  and  O_21 
REMARK   15  A    between atoms: O_23  and  C_18 
ROOT
HETATM    1  C   UNK N   1      32.842  17.699   4.503  0.00  0.00     0.004 C 
ENDROOT
BRANCH   1   2
HETATM    2  C   UNK N   1      33.743  17.136   5.614  0.00  0.00     0.000 C 
BRANCH   2   3
HETATM    3  C   UNK N   1      33.325  17.448   7.052  0.00  0.00     0.002 C 
BRANCH   3   4
HETATM    4  C   UNK N   1      34.532  17.780   7.936  0.00  0.00     0.032 C 
BRANCH   4   5
HETATM    5  C   UNK N   1      34.453  17.157   9.336  0.00  0.00     0.130 C 
BRANCH   5   6
HETATM    6  C   UNK N   1      34.627  15.619   9.291  0.00  0.00     0.099 C 
BRANCH   6   7
HETATM    7  C   UNK N   1      35.730  15.178  10.211  0.00  0.00     0.240 C 
HETATM    8  O   UNK N   1      36.902  15.308   9.896  0.00  0.00    -0.306 OA
ENDBRANCH   6   7
BRANCH   6   9
HETATM    9  C   UNK N   1      33.368  14.881   9.751  0.00  0.00     0.178 C 
BRANCH   9  10
HETATM   10  O   UNK N   1      33.188  14.984  11.132  0.00  0.00    -0.400 OA
HETATM   11  H   UNK N   1      33.764  14.719  11.867  0.00  0.00     0.209 HD
ENDBRANCH   9  10
ENDBRANCH   6   9
ENDBRANCH   5   6
BRANCH   5  12
HETATM   12  O   UNK N   1      35.450  17.731  10.129  0.00  0.00    -0.395 OA
HETATM   13  H   UNK N   1      36.407  17.624  10.016  0.00  0.00     0.210 HD
ENDBRANCH   5  12
ENDBRANCH   4   5
ENDBRANCH   3   4
ENDBRANCH   2   3
ENDBRANCH   1   2
BRANCH   1  14
HETATM   14  C   UNK N   1      32.260  16.665   3.543  0.00  0.00    -0.015 C 
HETATM   15  C   UNK N   1      33.384  15.888   2.874  0.00  0.00     0.010 C 
BRANCH  14  16
HETATM   16  C   UNK N   1      31.268  15.744   4.274  0.00  0.00     0.038 C 
BRANCH  16  17
HETATM   17  C   UNK N   1      30.033  16.443   4.788  0.00  0.00    -0.083 C 
HETATM   18  C   UNK N   1      29.767  16.284   6.248  0.00  0.00     0.043 C 
HETATM   19  C   UNK N   1      29.223  17.155   3.962  0.00  0.00     0.009 C 
BRANCH  19  20
HETATM   20  C   UNK N   1      28.006  17.924   4.404  0.00  0.00    -0.055 C 
HETATM   21  C   UNK N   1      26.643  17.298   4.344  0.00  0.00     0.048 C 
HETATM   22  C   UNK N   1      28.156  19.186   4.876  0.00  0.00     0.087 C 
BRANCH  22  23
HETATM   23  C   UNK N   1      27.040  20.054   5.353  0.00  0.00     0.165 C 
HETATM   24  O   UNK N   1      26.459  20.822   4.605  0.00  0.00    -0.647 OA
BRANCH  23  25
HETATM   25  O   UNK N   1      26.666  19.989   6.646  0.00  0.00    -0.773 OA
HETATM   26  H   UNK N   1      25.762  20.073   6.878  0.00  0.00     0.167 HD
ENDBRANCH  23  25
ENDBRANCH  22  23
ENDBRANCH  19  20
ENDBRANCH  16  17
ENDBRANCH  14  16
ENDBRANCH   1  14
TORSDOF 15
ENDMDL
MODEL 8
REMARK VINA RESULT:      -5.4      1.435      2.436
REMARK  15 active torsions:
REMARK  status: ('A' for Active; 'I' for Inactive)
REMARK    1  A    between atoms: C_5  and  C_4 
REMARK    2  A    between atoms: C_6  and  C_4 
REMARK    3  A    between atoms: C_7  and  C_5 
REMARK    4  A    between atoms: C_13  and  C_6 
REMARK    5  A    between atoms: C_17  and  C_7 
REMARK    6  A    between atoms: C_13  and  C_8 
REMARK    7  A    between atoms: C_14  and  C_8 
REMARK    8  A    between atoms: C_15  and  C_9 
REMARK    9  A    between atoms: C_18  and  C_10 
REMARK   10  A    between atoms: C_16  and  C_11 
REMARK   11  A    between atoms: C_16  and  C_12 
REMARK   12  A    between atoms: O_20  and  C_12 
REMARK   13  A    between atoms: C_17  and  C_16 
REMARK   14  A    between atoms: C_17  and  O_21 
REMARK   15  A    between atoms: O_23  and  C_18 
ROOT
HETATM    1  C   UNK N   1      27.810  28.128  -3.698  0.00  0.00     0.004 C 
ENDROOT
BRANCH   1   2
HETATM    2  C   UNK N   1      29.286  28.549  -3.619  0.00  0.00     0.000 C 
BRANCH   2   3
HETATM    3  C   UNK N   1      30.312  27.418  -3.521  0.00  0.00     0.002 C 
BRANCH   3   4
HETATM    4  C   UNK N   1      29.787  26.119  -4.144  0.00  0.00     0.032 C 
BRANCH   4   5
HETATM    5  C   UNK N   1      30.325  24.854  -3.461  0.00  0.00     0.130 C 
BRANCH   5   6
HETATM    6  C   UNK N   1      29.298  23.697  -3.502  0.00  0.00     0.099 C 
BRANCH   6   7
HETATM    7  C   UNK N   1      29.579  22.772  -4.652  0.00  0.00     0.240 C 
HETATM    8  O   UNK N   1      29.450  23.148  -5.807  0.00  0.00    -0.306 OA
ENDBRANCH   6   7
BRANCH   6   9
HETATM    9  C   UNK N   1      29.349  22.833  -2.240  0.00  0.00     0.178 C 
BRANCH   9  10
HETATM   10  O   UNK N   1      30.473  23.123  -1.465  0.00  0.00    -0.400 OA
HETATM   11  H   UNK N   1      31.344  22.697  -1.429  0.00  0.00     0.209 HD
ENDBRANCH   9  10
ENDBRANCH   6   9
ENDBRANCH   5   6
BRANCH   5  12
HETATM   12  O   UNK N   1      31.504  24.474  -4.108  0.00  0.00    -0.395 OA
HETATM   13  H   UNK N   1      32.265  25.044  -4.297  0.00  0.00     0.210 HD
ENDBRANCH   5  12
ENDBRANCH   4   5
ENDBRANCH   3   4
ENDBRANCH   2   3
ENDBRANCH   1   2
BRANCH   1  14
HETATM   14  C   UNK N   1      26.962  28.893  -4.711  0.00  0.00    -0.015 C 
HETATM   15  C   UNK N   1      27.402  30.349  -4.758  0.00  0.00     0.010 C 
BRANCH  14  16
HETATM   16  C   UNK N   1      27.026  28.218  -6.092  0.00  0.00     0.038 C 
BRANCH  16  17
HETATM   17  C   UNK N   1      26.314  26.891  -6.168  0.00  0.00    -0.083 C 
HETATM   18  C   UNK N   1      24.880  26.907  -5.754  0.00  0.00     0.043 C 
HETATM   19  C   UNK N   1      26.952  25.763  -6.576  0.00  0.00     0.009 C 
BRANCH  19  20
HETATM   20  C   UNK N   1      26.301  24.414  -6.731  0.00  0.00    -0.055 C 
HETATM   21  C   UNK N   1      25.943  23.596  -5.525  0.00  0.00     0.048 C 
HETATM   22  C   UNK N   1      26.023  23.952  -7.975  0.00  0.00     0.087 C 
BRANCH  22  23
HETATM   23  C   UNK N   1      25.374  22.641  -8.271  0.00  0.00     0.165 C 
HETATM   24  O   UNK N   1      26.029  21.642  -8.517  0.00  0.00    -0.647 OA
BRANCH  23  25
HETATM   25  O   UNK N   1      24.029  22.560  -8.268  0.00  0.00    -0.773 OA
HETATM   26  H   UNK N   1      23.608  21.737  -8.420  0.00  0.00     0.167 HD
ENDBRANCH  23  25
ENDBRANCH  22  23
ENDBRANCH  19  20
ENDBRANCH  16  17
ENDBRANCH  14  16
ENDBRANCH   1  14
TORSDOF 15
ENDMDL
MODEL 9
REMARK VINA RESULT:      -5.3     11.035     15.409
REMARK  15 active torsions:
REMARK  status: ('A' for Active; 'I' for Inactive)
REMARK    1  A    between atoms: C_5  and  C_4 
REMARK    2  A    between atoms: C_6  and  C_4 
REMARK    3  A    between atoms: C_7  and  C_5 
REMARK    4  A    between atoms: C_13  and  C_6 
REMARK    5  A    between atoms: C_17  and  C_7 
REMARK    6  A    between atoms: C_13  and  C_8 
REMARK    7  A    between atoms: C_14  and  C_8 
REMARK    8  A    between atoms: C_15  and  C_9 
REMARK    9  A    between atoms: C_18  and  C_10 
REMARK   10  A    between atoms: C_16  and  C_11 
REMARK   11  A    between atoms: C_16  and  C_12 
REMARK   12  A    between atoms: O_20  and  C_12 
REMARK   13  A    between atoms: C_17  and  C_16 
REMARK   14  A    between atoms: C_17  and  O_21 
REMARK   15  A    between atoms: O_23  and  C_18 
ROOT
HETATM    1  C   UNK N   1      26.272  17.334   4.551  0.00  0.00     0.004 C 
ENDROOT
BRANCH   1   2
HETATM    2  C   UNK N   1      24.887  17.875   4.944  0.00  0.00     0.000 C 
BRANCH   2   3
HETATM    3  C   UNK N   1      23.839  17.930   3.831  0.00  0.00     0.002 C 
BRANCH   3   4
HETATM    4  C   UNK N   1      22.808  19.038   4.075  0.00  0.00     0.032 C 
BRANCH   4   5
HETATM    5  C   UNK N   1      22.461  19.837   2.812  0.00  0.00     0.130 C 
BRANCH   5   6
HETATM    6  C   UNK N   1      20.932  19.905   2.577  0.00  0.00     0.099 C 
BRANCH   6   7
HETATM    7  C   UNK N   1      20.609  20.790   1.406  0.00  0.00     0.240 C 
HETATM    8  O   UNK N   1      21.281  20.754   0.387  0.00  0.00    -0.306 OA
ENDBRANCH   6   7
BRANCH   6   9
HETATM    9  C   UNK N   1      20.335  18.534   2.252  0.00  0.00     0.178 C 
BRANCH   9  10
HETATM   10  O   UNK N   1      18.940  18.576   2.223  0.00  0.00    -0.400 OA
HETATM   11  H   UNK N   1      18.329  18.879   1.532  0.00  0.00     0.209 HD
ENDBRANCH   9  10
ENDBRANCH   6   9
ENDBRANCH   5   6
BRANCH   5  12
HETATM   12  O   UNK N   1      22.984  21.125   2.949  0.00  0.00    -0.395 OA
HETATM   13  H   UNK N   1      23.906  21.353   3.144  0.00  0.00     0.210 HD
ENDBRANCH   5  12
ENDBRANCH   4   5
ENDBRANCH   3   4
ENDBRANCH   2   3
ENDBRANCH   1   2
BRANCH   1  14
HETATM   14  C   UNK N   1      27.462  18.132   5.078  0.00  0.00    -0.015 C 
HETATM   15  C   UNK N   1      27.099  19.607   5.161  0.00  0.00     0.010 C 
BRANCH  14  16
HETATM   16  C   UNK N   1      27.936  17.570   6.430  0.00  0.00     0.038 C 
BRANCH  16  17
HETATM   17  C   UNK N   1      29.420  17.308   6.507  0.00  0.00    -0.083 C 
HETATM   18  C   UNK N   1      30.127  17.229   5.194  0.00  0.00     0.043 C 
HETATM   19  C   UNK N   1      30.053  17.145   7.697  0.00  0.00     0.009 C 
BRANCH  19  20
HETATM   20  C   UNK N   1      31.534  16.934   7.863  0.00  0.00    -0.055 C 
HETATM   21  C   UNK N   1      32.138  15.573   7.672  0.00  0.00     0.048 C 
HETATM   22  C   UNK N   1      32.324  17.993   8.168  0.00  0.00     0.087 C 
BRANCH  22  23
HETATM   23  C   UNK N   1      33.803  17.927   8.351  0.00  0.00     0.165 C 
HETATM   24  O   UNK N   1      34.575  18.286   7.477  0.00  0.00    -0.647 OA
BRANCH  23  25
HETATM   25  O   UNK N   1      34.301  17.457   9.512  0.00  0.00    -0.773 OA
HETATM   26  H   UNK N   1      34.441  18.039  10.233  0.00  0.00     0.167 HD
ENDBRANCH  23  25
ENDBRANCH  22  23
ENDBRANCH  19  20
ENDBRANCH  16  17
ENDBRANCH  14  16
ENDBRANCH   1  14
TORSDOF 15
ENDMDL
