REMARK  6 active torsions:
REMARK  status: ('A' for Active; 'I' for Inactive)
REMARK    1  A    between atoms: C_11  and  C_7 
REMARK    2  A    between atoms: C_12  and  C_7 
REMARK    3  A    between atoms: C_14  and  C_10 
REMARK    4  A    between atoms: O_26  and  C_15 
REMARK    5  A    between atoms: O_27  and  C_17 
REMARK    6  A    between atoms: N_20  and  C_18 
REMARK       I    between atoms: N_22  and  C_19 
ROOT
HETATM    1  C   UNK N   1       0.969   1.717  -0.235  0.00  0.00     0.013 C 
HETATM    2  C   UNK N   1      -0.200   1.120   0.023  0.00  0.00     0.007 C 
HETATM    3  C   UNK N   1       4.613   0.720  -0.388  0.00  0.00     0.048 A 
HETATM    4  C   UNK N   1       3.469   1.522  -0.341  0.00  0.00    -0.038 A 
HETATM    5  C   UNK N   1       2.213   0.913  -0.250  0.00  0.00     0.007 A 
HETATM    6  C   UNK N   1      -0.204  -0.316   0.479  0.00  0.00     0.156 C 
HETATM    7  C   UNK N   1       4.534  -0.676  -0.341  0.00  0.00     0.104 A 
HETATM    8  C   UNK N   1       2.097  -0.489  -0.191  0.00  0.00     0.116 A 
HETATM    9  C   UNK N   1       3.260  -1.305  -0.242  0.00  0.00     0.136 A 
HETATM   10  O   UNK N   1       0.852  -1.028  -0.088  0.00  0.00    -0.338 OA
ENDROOT
BRANCH   4  11
HETATM   11  C   UNK N   1       3.560   3.030  -0.342  0.00  0.00     0.083 C 
BRANCH  11  12
HETATM   12  C   UNK N   1       4.912   3.637  -0.080  0.00  0.00     0.006 A 
HETATM   13  C   UNK N   1       5.434   4.545  -0.999  0.00  0.00     0.117 A 
HETATM   14  N   UNK N   1       6.625   5.152  -0.757  0.00  0.00    -0.202 N 
HETATM   15  C   UNK N   1       7.324   4.887   0.378  0.00  0.00     0.677 A 
HETATM   16  H   UNK N   1       6.987   5.792  -1.411  0.00  0.00     0.183 HD
HETATM   17  N   UNK N   1       8.439   5.474   0.592  0.00  0.00    -0.234 N 
HETATM   18  N   UNK N   1       6.837   4.005   1.289  0.00  0.00    -0.177 N 
HETATM   19  H   UNK N   1       9.260   4.957   0.757  0.00  0.00     0.174 HD
ATOM     20  HN  UNK N   1       8.478   6.494   0.592  1.00  0.00     0.174 HD
HETATM   21  C   UNK N   1       5.648   3.379   1.091  0.00  0.00     0.122 A 
HETATM   22  H   UNK N   1       7.354   3.818   2.106  0.00  0.00     0.185 HD
BRANCH  21  23
HETATM   23  N   UNK N   1       5.207   2.570   1.981  0.00  0.00    -0.385 N 
HETATM   24  H   UNK N   1       4.499   2.553   2.664  0.00  0.00     0.157 HD
ATOM     25  HN  UNK N   1       5.738   1.699   1.981  1.00  0.00     0.157 HD
ENDBRANCH  21  23
ENDBRANCH  11  12
ENDBRANCH   4  11
BRANCH   7  26
HETATM   26  O   UNK N   1       5.709  -1.361  -0.380  0.00  0.00    -0.353 OA
HETATM   27  C   UNK N   1       5.853  -2.726  -0.280  0.00  0.00     0.210 C 
ENDBRANCH   7  26
BRANCH   9  28
HETATM   28  O   UNK N   1       3.194  -2.665  -0.184  0.00  0.00    -0.351 OA
HETATM   29  C   UNK N   1       2.050  -3.415  -0.034  0.00  0.00     0.210 C 
ENDBRANCH   9  28
BRANCH   6  30
HETATM   30  C   UNK N   1      -1.584  -0.949   0.252  0.00  0.00     0.019 A 
HETATM   31  C   UNK N   1      -1.760  -1.463  -1.160  0.00  0.00     0.008 A 
HETATM   32  C   UNK N   1      -1.519  -2.438  -0.014  0.00  0.00     0.008 A 
ENDBRANCH   6  30
TORSDOF 6
