MODEL 1
REMARK VINA RESULT:      -5.9      0.000      0.000
REMARK  0 active torsions:
REMARK  status: ('A' for Active; 'I' for Inactive)
ROOT
HETATM    1  C   UNK N   1      36.748  15.289  17.355  0.00  0.00     0.002 A 
HETATM    2  C   UNK N   1      35.691  14.561  17.951  0.00  0.00     0.001 A 
HETATM    3  C   UNK N   1      35.045  13.534  17.241  0.00  0.00     0.014 A 
HETATM    4  C   UNK N   1      35.485  13.270  15.949  0.00  0.00     0.003 A 
HETATM    5  C   UNK N   1      36.512  13.975  15.364  0.00  0.00     0.043 A 
HETATM    6  C   UNK N   1      37.170  14.998  16.044  0.00  0.00     0.030 A 
HETATM    7  N   UNK N   1      36.758  13.538  14.106  0.00  0.00    -0.355 N 
HETATM    8  C   UNK N   1      35.862  12.541  13.912  0.00  0.00     0.043 A 
HETATM    9  C   UNK N   1      35.702  11.763  12.770  0.00  0.00     0.030 A 
HETATM   10  C   UNK N   1      34.699  10.774  12.786  0.00  0.00     0.002 A 
HETATM   11  C   UNK N   1      33.889  10.589  13.931  0.00  0.00     0.001 A 
HETATM   12  C   UNK N   1      34.072  11.390  15.071  0.00  0.00     0.014 A 
HETATM   13  C   UNK N   1      35.070  12.356  15.024  0.00  0.00     0.003 A 
HETATM   14  H   UNK N   1      37.436  13.870  13.475  0.00  0.00     0.166 HD
ENDROOT
TORSDOF 0
ENDMDL
MODEL 2
REMARK VINA RESULT:      -5.9      0.134      4.309
REMARK  0 active torsions:
REMARK  status: ('A' for Active; 'I' for Inactive)
ROOT
HETATM    1  C   UNK N   1      34.793  10.911  12.749  0.00  0.00     0.002 A 
HETATM    2  C   UNK N   1      33.957  10.678  13.867  0.00  0.00     0.001 A 
HETATM    3  C   UNK N   1      34.106  11.441  15.039  0.00  0.00     0.014 A 
HETATM    4  C   UNK N   1      35.094  12.419  15.049  0.00  0.00     0.003 A 
HETATM    5  C   UNK N   1      35.910  12.650  13.964  0.00  0.00     0.043 A 
HETATM    6  C   UNK N   1      35.785  11.909  12.791  0.00  0.00     0.030 A 
HETATM    7  N   UNK N   1      36.791  13.648  14.212  0.00  0.00    -0.355 N 
HETATM    8  C   UNK N   1      36.511  14.040  15.478  0.00  0.00     0.043 A 
HETATM    9  C   UNK N   1      37.142  15.044  16.207  0.00  0.00     0.030 A 
HETATM   10  C   UNK N   1      36.686  15.286  17.518  0.00  0.00     0.002 A 
HETATM   11  C   UNK N   1      35.623  14.527  18.062  0.00  0.00     0.001 A 
HETATM   12  C   UNK N   1      35.005  13.519  17.303  0.00  0.00     0.014 A 
HETATM   13  C   UNK N   1      35.477  13.304  16.014  0.00  0.00     0.003 A 
HETATM   14  H   UNK N   1      37.480  14.007  13.609  0.00  0.00     0.166 HD
ENDROOT
TORSDOF 0
ENDMDL
MODEL 3
REMARK VINA RESULT:      -5.7     12.224     13.285
REMARK  0 active torsions:
REMARK  status: ('A' for Active; 'I' for Inactive)
ROOT
HETATM    1  C   UNK N   1      26.385  20.626   4.524  0.00  0.00     0.002 A 
HETATM    2  C   UNK N   1      27.308  19.785   3.860  0.00  0.00     0.001 A 
HETATM    3  C   UNK N   1      28.179  18.962   4.595  0.00  0.00     0.014 A 
HETATM    4  C   UNK N   1      28.094  19.012   5.982  0.00  0.00     0.003 A 
HETATM    5  C   UNK N   1      27.198  19.829   6.633  0.00  0.00     0.043 A 
HETATM    6  C   UNK N   1      26.323  20.654   5.931  0.00  0.00     0.030 A 
HETATM    7  N   UNK N   1      27.303  19.703   7.978  0.00  0.00    -0.355 N 
HETATM    8  C   UNK N   1      28.286  18.789   8.158  0.00  0.00     0.043 A 
HETATM    9  C   UNK N   1      28.777  18.308   9.367  0.00  0.00     0.030 A 
HETATM   10  C   UNK N   1      29.811  17.351   9.321  0.00  0.00     0.002 A 
HETATM   11  C   UNK N   1      30.322  16.904   8.080  0.00  0.00     0.001 A 
HETATM   12  C   UNK N   1      29.806  17.407   6.873  0.00  0.00     0.014 A 
HETATM   13  C   UNK N   1      28.787  18.349   6.953  0.00  0.00     0.003 A 
HETATM   14  H   UNK N   1      26.782  20.171   8.669  0.00  0.00     0.166 HD
ENDROOT
TORSDOF 0
ENDMDL
MODEL 4
REMARK VINA RESULT:      -5.6      9.574     10.513
REMARK  0 active torsions:
REMARK  status: ('A' for Active; 'I' for Inactive)
ROOT
HETATM    1  C   UNK N   1      28.290  17.897   9.368  0.00  0.00     0.002 A 
HETATM    2  C   UNK N   1      27.920  17.415   8.089  0.00  0.00     0.001 A 
HETATM    3  C   UNK N   1      28.901  17.152   7.117  0.00  0.00     0.014 A 
HETATM    4  C   UNK N   1      30.227  17.381   7.462  0.00  0.00     0.003 A 
HETATM    5  C   UNK N   1      30.593  17.849   8.704  0.00  0.00     0.043 A 
HETATM    6  C   UNK N   1      29.643  18.119   9.687  0.00  0.00     0.030 A 
HETATM    7  N   UNK N   1      31.936  17.992   8.802  0.00  0.00    -0.355 N 
HETATM    8  C   UNK N   1      32.408  17.604   7.594  0.00  0.00     0.043 A 
HETATM    9  C   UNK N   1      33.736  17.566   7.181  0.00  0.00     0.030 A 
HETATM   10  C   UNK N   1      34.003  17.125   5.870  0.00  0.00     0.002 A 
HETATM   11  C   UNK N   1      32.947  16.737   5.013  0.00  0.00     0.001 A 
HETATM   12  C   UNK N   1      31.613  16.785   5.456  0.00  0.00     0.014 A 
HETATM   13  C   UNK N   1      31.384  17.225   6.754  0.00  0.00     0.003 A 
HETATM   14  H   UNK N   1      32.453  18.308   9.578  0.00  0.00     0.166 HD
ENDROOT
TORSDOF 0
ENDMDL
MODEL 5
REMARK VINA RESULT:      -5.5      1.910      4.706
REMARK  0 active torsions:
REMARK  status: ('A' for Active; 'I' for Inactive)
ROOT
HETATM    1  C   UNK N   1      34.754  10.833  13.149  0.00  0.00     0.002 A 
HETATM    2  C   UNK N   1      34.886   9.659  13.927  0.00  0.00     0.001 A 
HETATM    3  C   UNK N   1      35.018   9.741  15.325  0.00  0.00     0.014 A 
HETATM    4  C   UNK N   1      35.012  11.007  15.898  0.00  0.00     0.003 A 
HETATM    5  C   UNK N   1      34.883  12.153  15.146  0.00  0.00     0.043 A 
HETATM    6  C   UNK N   1      34.751  12.102  13.760  0.00  0.00     0.030 A 
HETATM    7  N   UNK N   1      34.905  13.260  15.926  0.00  0.00    -0.355 N 
HETATM    8  C   UNK N   1      35.050  12.785  17.186  0.00  0.00     0.043 A 
HETATM    9  C   UNK N   1      35.128  13.526  18.361  0.00  0.00     0.030 A 
HETATM   10  C   UNK N   1      35.280  12.821  19.571  0.00  0.00     0.002 A 
HETATM   11  C   UNK N   1      35.350  11.408  19.577  0.00  0.00     0.001 A 
HETATM   12  C   UNK N   1      35.268  10.685  18.374  0.00  0.00     0.014 A 
HETATM   13  C   UNK N   1      35.119  11.410  17.198  0.00  0.00     0.003 A 
HETATM   14  H   UNK N   1      34.831  14.199  15.641  0.00  0.00     0.166 HD
ENDROOT
TORSDOF 0
ENDMDL
MODEL 6
REMARK VINA RESULT:      -5.5      9.568     10.570
REMARK  0 active torsions:
REMARK  status: ('A' for Active; 'I' for Inactive)
ROOT
HETATM    1  C   UNK N   1      27.815  17.565   8.790  0.00  0.00     0.002 A 
HETATM    2  C   UNK N   1      28.740  18.063   9.738  0.00  0.00     0.001 A 
HETATM    3  C   UNK N   1      30.112  18.120   9.434  0.00  0.00     0.014 A 
HETATM    4  C   UNK N   1      30.511  17.671   8.180  0.00  0.00     0.003 A 
HETATM    5  C   UNK N   1      29.616  17.186   7.254  0.00  0.00     0.043 A 
HETATM    6  C   UNK N   1      28.252  17.119   7.528  0.00  0.00     0.030 A 
HETATM    7  N   UNK N   1      30.241  16.811   6.112  0.00  0.00    -0.355 N 
HETATM    8  C   UNK N   1      31.550  17.072   6.340  0.00  0.00     0.043 A 
HETATM    9  C   UNK N   1      32.615  16.863   5.469  0.00  0.00     0.030 A 
HETATM   10  C   UNK N   1      33.905  17.208   5.917  0.00  0.00     0.002 A 
HETATM   11  C   UNK N   1      34.098  17.749   7.210  0.00  0.00     0.001 A 
HETATM   12  C   UNK N   1      33.004  17.950   8.069  0.00  0.00     0.014 A 
HETATM   13  C   UNK N   1      31.744  17.599   7.598  0.00  0.00     0.003 A 
HETATM   14  H   UNK N   1      29.835  16.434   5.299  0.00  0.00     0.166 HD
ENDROOT
TORSDOF 0
ENDMDL
MODEL 7
REMARK VINA RESULT:      -5.5      9.873     11.190
REMARK  0 active torsions:
REMARK  status: ('A' for Active; 'I' for Inactive)
ROOT
HETATM    1  C   UNK N   1      33.095  16.821   4.637  0.00  0.00     0.002 A 
HETATM    2  C   UNK N   1      33.726  17.273   5.820  0.00  0.00     0.001 A 
HETATM    3  C   UNK N   1      32.963  17.595   6.956  0.00  0.00     0.014 A 
HETATM    4  C   UNK N   1      31.583  17.453   6.865  0.00  0.00     0.003 A 
HETATM    5  C   UNK N   1      30.964  17.014   5.716  0.00  0.00     0.043 A 
HETATM    6  C   UNK N   1      31.695  16.687   4.577  0.00  0.00     0.030 A 
HETATM    7  N   UNK N   1      29.619  16.957   5.871  0.00  0.00    -0.355 N 
HETATM    8  C   UNK N   1      29.406  17.371   7.143  0.00  0.00     0.043 A 
HETATM    9  C   UNK N   1      28.183  17.493   7.795  0.00  0.00     0.030 A 
HETATM   10  C   UNK N   1      28.194  17.945   9.129  0.00  0.00     0.002 A 
HETATM   11  C   UNK N   1      29.413  18.262   9.772  0.00  0.00     0.001 A 
HETATM   12  C   UNK N   1      30.635  18.129   9.089  0.00  0.00     0.014 A 
HETATM   13  C   UNK N   1      30.590  17.681   7.774  0.00  0.00     0.003 A 
HETATM   14  H   UNK N   1      28.948  16.679   5.208  0.00  0.00     0.166 HD
ENDROOT
TORSDOF 0
ENDMDL
MODEL 8
REMARK VINA RESULT:      -5.3      2.087      4.937
REMARK  0 active torsions:
REMARK  status: ('A' for Active; 'I' for Inactive)
ROOT
HETATM    1  C   UNK N   1      34.791  10.362  13.181  0.00  0.00     0.002 A 
HETATM    2  C   UNK N   1      34.735  11.776  13.173  0.00  0.00     0.001 A 
HETATM    3  C   UNK N   1      34.822  12.499  14.376  0.00  0.00     0.014 A 
HETATM    4  C   UNK N   1      34.964  11.774  15.553  0.00  0.00     0.003 A 
HETATM    5  C   UNK N   1      35.020  10.398  15.567  0.00  0.00     0.043 A 
HETATM    6  C   UNK N   1      34.935   9.656  14.391  0.00  0.00     0.030 A 
HETATM    7  N   UNK N   1      35.160   9.922  16.827  0.00  0.00    -0.355 N 
HETATM    8  C   UNK N   1      35.192  11.029  17.606  0.00  0.00     0.043 A 
HETATM    9  C   UNK N   1      35.323  11.081  18.991  0.00  0.00     0.030 A 
HETATM   10  C   UNK N   1      35.332  12.351  19.601  0.00  0.00     0.002 A 
HETATM   11  C   UNK N   1      35.211  13.525  18.822  0.00  0.00     0.001 A 
HETATM   12  C   UNK N   1      35.080  13.443  17.424  0.00  0.00     0.014 A 
HETATM   13  C   UNK N   1      35.074  12.176  16.853  0.00  0.00     0.003 A 
HETATM   14  H   UNK N   1      35.224   8.983  17.112  0.00  0.00     0.166 HD
ENDROOT
TORSDOF 0
ENDMDL
MODEL 9
REMARK VINA RESULT:      -5.3      1.203      4.828
REMARK  0 active torsions:
REMARK  status: ('A' for Active; 'I' for Inactive)
ROOT
HETATM    1  C   UNK N   1      35.006  10.351  13.595  0.00  0.00     0.002 A 
HETATM    2  C   UNK N   1      35.983  11.148  12.953  0.00  0.00     0.001 A 
HETATM    3  C   UNK N   1      36.487  12.300  13.580  0.00  0.00     0.014 A 
HETATM    4  C   UNK N   1      35.991  12.616  14.839  0.00  0.00     0.003 A 
HETATM    5  C   UNK N   1      35.040  11.845  15.469  0.00  0.00     0.043 A 
HETATM    6  C   UNK N   1      34.523  10.698  14.871  0.00  0.00     0.030 A 
HETATM    7  N   UNK N   1      34.716  12.353  16.682  0.00  0.00    -0.355 N 
HETATM    8  C   UNK N   1      35.484  13.462  16.801  0.00  0.00     0.043 A 
HETATM    9  C   UNK N   1      35.525  14.346  17.875  0.00  0.00     0.030 A 
HETATM   10  C   UNK N   1      36.405  15.443  17.787  0.00  0.00     0.002 A 
HETATM   11  C   UNK N   1      37.213  15.627  16.641  0.00  0.00     0.001 A 
HETATM   12  C   UNK N   1      37.152  14.718  15.571  0.00  0.00     0.014 A 
HETATM   13  C   UNK N   1      36.274  13.647  15.688  0.00  0.00     0.003 A 
HETATM   14  H   UNK N   1      34.067  11.997  17.330  0.00  0.00     0.166 HD
ENDROOT
TORSDOF 0
ENDMDL
