MODEL 1
REMARK VINA RESULT:      -6.8      0.000      0.000
REMARK  4 active torsions:
REMARK  status: ('A' for Active; 'I' for Inactive)
REMARK    1  A    between atoms: C_8  and  C_15 
REMARK    2  A    between atoms: C_15  and  O_21 
REMARK    3  A    between atoms: C_16  and  O_23 
REMARK    4  A    between atoms: C_19  and  O_24 
ROOT
HETATM    1  C   UNK N   1      35.409  10.521  12.279  0.00  0.00     0.098 C 
HETATM    2  C   UNK N   1      35.202  10.689  13.779  0.00  0.00     0.035 C 
HETATM    3  C   UNK N   1      35.357  11.918  11.736  0.00  0.00     0.061 C 
HETATM    4  O   UNK N   1      36.705  10.136  11.952  0.00  0.00    -0.304 OA
HETATM    5  C   UNK N   1      34.461   9.608  11.537  0.00  0.00     0.011 C 
HETATM    6  C   UNK N   1      36.013  11.973  14.209  0.00  0.00    -0.013 C 
HETATM    7  C   UNK N   1      33.864  10.788  14.471  0.00  0.00     0.012 C 
HETATM    8  C   UNK N   1      36.192  12.725  12.788  0.00  0.00     0.101 C 
HETATM    9  C   UNK N   1      36.043  11.696  10.366  0.00  0.00     0.081 C 
HETATM   10  C   UNK N   1      37.123  10.805  10.863  0.00  0.00     0.271 C 
HETATM   11  C   UNK N   1      34.365   9.736  10.198  0.00  0.00     0.005 C 
HETATM   12  C   UNK N   1      36.712  11.266  15.404  0.00  0.00     0.053 C 
HETATM   13  C   UNK N   1      35.575  13.163  15.115  0.00  0.00     0.047 C 
HETATM   14  C   UNK N   1      34.204  10.541  15.972  0.00  0.00     0.043 C 
HETATM   15  C   UNK N   1      35.091  10.858   9.451  0.00  0.00     0.159 C 
HETATM   16  C   UNK N   1      36.545  12.949   9.658  0.00  0.00     0.029 C 
HETATM   17  O   UNK N   1      38.294  10.879  10.543  0.00  0.00    -0.264 OA
HETATM   18  C   UNK N   1      35.516  11.261  16.456  0.00  0.00     0.081 C 
HETATM   19  C   UNK N   1      35.225  12.678  16.422  0.00  0.00    -0.054 C 
HETATM   20  C   UNK N   1      35.260  13.497  17.473  0.00  0.00     0.017 C 
ENDROOT
BRANCH   8  21
HETATM   21  C   UNK N   1      35.588  14.154  12.625  0.00  0.00     0.145 C 
HETATM   22  O   UNK N   1      34.466  14.314  12.157  0.00  0.00    -0.650 OA
BRANCH  21  23
HETATM   23  O   UNK N   1      36.379  15.230  12.735  0.00  0.00    -0.776 OA
HETATM   24  H   UNK N   1      36.202  16.014  12.255  0.00  0.00     0.167 HD
ENDBRANCH  21  23
ENDBRANCH   8  21
BRANCH  15  25
HETATM   25  O   UNK N   1      34.125  11.680   8.868  0.00  0.00    -0.390 OA
HETATM   26  H   UNK N   1      33.823  12.033   8.017  0.00  0.00     0.210 HD
ENDBRANCH  15  25
BRANCH  18  27
HETATM   27  O   UNK N   1      35.881  10.824  17.730  0.00  0.00    -0.385 OA
HETATM   28  H   UNK N   1      36.187   9.927  17.938  0.00  0.00     0.211 HD
ENDBRANCH  18  27
TORSDOF 4
ENDMDL
MODEL 2
REMARK VINA RESULT:      -6.8     20.792     23.950
REMARK  4 active torsions:
REMARK  status: ('A' for Active; 'I' for Inactive)
REMARK    1  A    between atoms: C_8  and  C_15 
REMARK    2  A    between atoms: C_15  and  O_21 
REMARK    3  A    between atoms: C_16  and  O_23 
REMARK    4  A    between atoms: C_19  and  O_24 
ROOT
HETATM    1  C   UNK N   1      28.121  25.883  -5.417  0.00  0.00     0.098 C 
HETATM    2  C   UNK N   1      29.112  25.137  -4.534  0.00  0.00     0.035 C 
HETATM    3  C   UNK N   1      27.949  24.998  -6.616  0.00  0.00     0.061 C 
HETATM    4  O   UNK N   1      26.834  25.901  -4.891  0.00  0.00    -0.304 OA
HETATM    5  C   UNK N   1      28.467  27.297  -5.824  0.00  0.00     0.011 C 
HETATM    6  C   UNK N   1      28.733  23.607  -4.616  0.00  0.00    -0.013 C 
HETATM    7  C   UNK N   1      30.615  25.203  -4.657  0.00  0.00     0.012 C 
HETATM    8  C   UNK N   1      27.859  23.571  -5.977  0.00  0.00     0.101 C 
HETATM    9  C   UNK N   1      26.622  25.566  -7.177  0.00  0.00     0.081 C 
HETATM   10  C   UNK N   1      25.932  25.701  -5.868  0.00  0.00     0.271 C 
HETATM   11  C   UNK N   1      27.833  27.831  -6.888  0.00  0.00     0.005 C 
HETATM   12  C   UNK N   1      28.750  23.407  -3.075  0.00  0.00     0.053 C 
HETATM   13  C   UNK N   1      29.656  22.369  -4.829  0.00  0.00     0.047 C 
HETATM   14  C   UNK N   1      31.124  24.609  -3.309  0.00  0.00     0.043 C 
HETATM   15  C   UNK N   1      26.883  26.996  -7.750  0.00  0.00     0.159 C 
HETATM   16  C   UNK N   1      25.888  24.682  -8.180  0.00  0.00     0.029 C 
HETATM   17  O   UNK N   1      24.780  25.381  -5.648  0.00  0.00    -0.264 OA
HETATM   18  C   UNK N   1      30.321  23.346  -2.825  0.00  0.00     0.081 C 
HETATM   19  C   UNK N   1      30.626  22.296  -3.773  0.00  0.00    -0.054 C 
HETATM   20  C   UNK N   1      31.209  21.135  -3.475  0.00  0.00     0.017 C 
ENDROOT
BRANCH   8  21
HETATM   21  C   UNK N   1      28.358  22.678  -7.154  0.00  0.00     0.145 C 
HETATM   22  O   UNK N   1      29.193  23.094  -7.951  0.00  0.00    -0.650 OA
BRANCH  21  23
HETATM   23  O   UNK N   1      27.691  21.560  -7.474  0.00  0.00    -0.776 OA
HETATM   24  H   UNK N   1      27.904  20.737  -7.078  0.00  0.00     0.167 HD
ENDBRANCH  21  23
ENDBRANCH   8  21
BRANCH  15  25
HETATM   25  O   UNK N   1      27.426  26.917  -9.034  0.00  0.00    -0.390 OA
HETATM   26  H   UNK N   1      27.616  26.299  -9.756  0.00  0.00     0.210 HD
ENDBRANCH  15  25
BRANCH  18  27
HETATM   27  O   UNK N   1      30.677  23.003  -1.519  0.00  0.00    -0.385 OA
HETATM   28  H   UNK N   1      31.196  23.566  -0.924  0.00  0.00     0.211 HD
ENDBRANCH  18  27
TORSDOF 4
ENDMDL
MODEL 3
REMARK VINA RESULT:      -6.7     23.362     26.168
REMARK  4 active torsions:
REMARK  status: ('A' for Active; 'I' for Inactive)
REMARK    1  A    between atoms: C_8  and  C_15 
REMARK    2  A    between atoms: C_15  and  O_21 
REMARK    3  A    between atoms: C_16  and  O_23 
REMARK    4  A    between atoms: C_19  and  O_24 
ROOT
HETATM    1  C   UNK N   1      26.212  24.608  -5.788  0.00  0.00     0.098 C 
HETATM    2  C   UNK N   1      26.252  23.533  -6.866  0.00  0.00     0.035 C 
HETATM    3  C   UNK N   1      27.099  25.697  -6.315  0.00  0.00     0.061 C 
HETATM    4  O   UNK N   1      24.982  25.254  -5.714  0.00  0.00    -0.304 OA
HETATM    5  C   UNK N   1      26.605  24.212  -4.384  0.00  0.00     0.011 C 
HETATM    6  C   UNK N   1      26.221  24.279  -8.256  0.00  0.00    -0.013 C 
HETATM    7  C   UNK N   1      27.306  22.459  -6.991  0.00  0.00     0.012 C 
HETATM    8  C   UNK N   1      26.695  25.765  -7.827  0.00  0.00     0.101 C 
HETATM    9  C   UNK N   1      26.615  26.879  -5.440  0.00  0.00     0.081 C 
HETATM   10  C   UNK N   1      25.164  26.574  -5.533  0.00  0.00     0.271 C 
HETATM   11  C   UNK N   1      26.952  25.185  -3.518  0.00  0.00     0.005 C 
HETATM   12  C   UNK N   1      25.081  23.393  -8.831  0.00  0.00     0.053 C 
HETATM   13  C   UNK N   1      27.098  24.048  -9.523  0.00  0.00     0.047 C 
HETATM   14  C   UNK N   1      26.669  21.425  -7.967  0.00  0.00     0.043 C 
HETATM   15  C   UNK N   1      27.077  26.643  -3.965  0.00  0.00     0.159 C 
HETATM   16  C   UNK N   1      26.991  28.273  -5.932  0.00  0.00     0.029 C 
HETATM   17  O   UNK N   1      24.287  27.393  -5.726  0.00  0.00    -0.264 OA
HETATM   18  C   UNK N   1      25.908  22.077  -9.180  0.00  0.00     0.081 C 
HETATM   19  C   UNK N   1      26.928  22.702  -9.996  0.00  0.00    -0.054 C 
HETATM   20  C   UNK N   1      27.190  22.398 -11.267  0.00  0.00     0.017 C 
ENDROOT
BRANCH   8  21
HETATM   21  C   UNK N   1      27.998  26.339  -8.465  0.00  0.00     0.145 C 
HETATM   22  O   UNK N   1      29.093  26.138  -7.950  0.00  0.00    -0.650 OA
BRANCH  21  23
HETATM   23  O   UNK N   1      27.918  27.280  -9.417  0.00  0.00    -0.776 OA
HETATM   24  H   UNK N   1      27.100  27.492  -9.822  0.00  0.00     0.167 HD
ENDBRANCH  21  23
ENDBRANCH   8  21
BRANCH  15  25
HETATM   25  O   UNK N   1      28.409  27.029  -3.803  0.00  0.00    -0.390 OA
HETATM   26  H   UNK N   1      29.303  26.889  -4.153  0.00  0.00     0.210 HD
ENDBRANCH  15  25
BRANCH  18  27
HETATM   27  O   UNK N   1      25.179  21.117  -9.883  0.00  0.00    -0.385 OA
HETATM   28  H   UNK N   1      24.713  20.371  -9.474  0.00  0.00     0.211 HD
ENDBRANCH  18  27
TORSDOF 4
ENDMDL
MODEL 4
REMARK VINA RESULT:      -6.7     22.205     24.830
REMARK  4 active torsions:
REMARK  status: ('A' for Active; 'I' for Inactive)
REMARK    1  A    between atoms: C_8  and  C_15 
REMARK    2  A    between atoms: C_15  and  O_21 
REMARK    3  A    between atoms: C_16  and  O_23 
REMARK    4  A    between atoms: C_19  and  O_24 
ROOT
HETATM    1  C   UNK N   1      26.612  25.948  -6.196  0.00  0.00     0.098 C 
HETATM    2  C   UNK N   1      26.960  24.570  -6.743  0.00  0.00     0.035 C 
HETATM    3  C   UNK N   1      27.300  26.007  -4.865  0.00  0.00     0.061 C 
HETATM    4  O   UNK N   1      27.241  26.979  -6.887  0.00  0.00    -0.304 OA
HETATM    5  C   UNK N   1      25.149  26.307  -6.074  0.00  0.00     0.011 C 
HETATM    6  C   UNK N   1      28.470  24.301  -6.371  0.00  0.00    -0.013 C 
HETATM    7  C   UNK N   1      26.219  23.292  -6.430  0.00  0.00     0.012 C 
HETATM    8  C   UNK N   1      28.695  25.363  -5.172  0.00  0.00     0.101 C 
HETATM    9  C   UNK N   1      27.305  27.538  -4.635  0.00  0.00     0.081 C 
HETATM   10  C   UNK N   1      27.678  27.913  -6.024  0.00  0.00     0.271 C 
HETATM   11  C   UNK N   1      24.805  27.323  -5.256  0.00  0.00     0.005 C 
HETATM   12  C   UNK N   1      28.860  23.862  -7.810  0.00  0.00     0.053 C 
HETATM   13  C   UNK N   1      29.127  23.027  -5.759  0.00  0.00     0.047 C 
HETATM   14  C   UNK N   1      26.711  22.300  -7.526  0.00  0.00     0.043 C 
HETATM   15  C   UNK N   1      25.841  28.017  -4.369  0.00  0.00     0.159 C 
HETATM   16  C   UNK N   1      28.269  28.051  -3.571  0.00  0.00     0.029 C 
HETATM   17  O   UNK N   1      28.502  28.754  -6.324  0.00  0.00    -0.264 OA
HETATM   18  C   UNK N   1      28.254  22.389  -7.820  0.00  0.00     0.081 C 
HETATM   19  C   UNK N   1      28.913  21.903  -6.627  0.00  0.00    -0.054 C 
HETATM   20  C   UNK N   1      29.725  20.848  -6.572  0.00  0.00     0.017 C 
ENDROOT
BRANCH   8  21
HETATM   21  C   UNK N   1      29.096  24.819  -3.767  0.00  0.00     0.145 C 
HETATM   22  O   UNK N   1      28.259  24.317  -3.023  0.00  0.00    -0.650 OA
BRANCH  21  23
HETATM   23  O   UNK N   1      30.289  25.136  -3.243  0.00  0.00    -0.776 OA
HETATM   24  H   UNK N   1      30.373  25.393  -2.346  0.00  0.00     0.167 HD
ENDBRANCH  21  23
ENDBRANCH   8  21
BRANCH  15  25
HETATM   25  O   UNK N   1      25.487  27.789  -3.038  0.00  0.00    -0.390 OA
HETATM   26  H   UNK N   1      25.539  27.133  -2.325  0.00  0.00     0.210 HD
ENDBRANCH  15  25
BRANCH  18  27
HETATM   27  O   UNK N   1      28.587  21.644  -8.952  0.00  0.00    -0.385 OA
HETATM   28  H   UNK N   1      28.015  21.535  -9.728  0.00  0.00     0.211 HD
ENDBRANCH  18  27
TORSDOF 4
ENDMDL
MODEL 5
REMARK VINA RESULT:      -6.6     14.432     16.092
REMARK  4 active torsions:
REMARK  status: ('A' for Active; 'I' for Inactive)
REMARK    1  A    between atoms: C_8  and  C_15 
REMARK    2  A    between atoms: C_15  and  O_21 
REMARK    3  A    between atoms: C_16  and  O_23 
REMARK    4  A    between atoms: C_19  and  O_24 
ROOT
HETATM    1  C   UNK N   1      21.852  14.909   5.080  0.00  0.00     0.098 C 
HETATM    2  C   UNK N   1      21.887  13.822   6.146  0.00  0.00     0.035 C 
HETATM    3  C   UNK N   1      20.993  15.986   5.674  0.00  0.00     0.061 C 
HETATM    4  O   UNK N   1      23.070  15.564   4.934  0.00  0.00    -0.304 OA
HETATM    5  C   UNK N   1      21.372  14.525   3.699  0.00  0.00     0.011 C 
HETATM    6  C   UNK N   1      22.002  14.554   7.540  0.00  0.00    -0.013 C 
HETATM    7  C   UNK N   1      20.850  12.740   6.327  0.00  0.00     0.012 C 
HETATM    8  C   UNK N   1      21.492  16.042   7.158  0.00  0.00     0.101 C 
HETATM    9  C   UNK N   1      21.412  17.181   4.782  0.00  0.00     0.081 C 
HETATM   10  C   UNK N   1      22.868  16.884   4.780  0.00  0.00     0.271 C 
HETATM   11  C   UNK N   1      20.964  15.504   2.867  0.00  0.00     0.005 C 
HETATM   12  C   UNK N   1      23.182  13.670   8.031  0.00  0.00     0.053 C 
HETATM   13  C   UNK N   1      21.209  14.303   8.857  0.00  0.00     0.047 C 
HETATM   14  C   UNK N   1      21.555  11.700   7.249  0.00  0.00     0.043 C 
HETATM   15  C   UNK N   1      20.859  16.956   3.338  0.00  0.00     0.159 C 
HETATM   16  C   UNK N   1      21.060  18.567   5.312  0.00  0.00     0.029 C 
HETATM   17  O   UNK N   1      23.750  17.708   4.926  0.00  0.00    -0.264 OA
HETATM   18  C   UNK N   1      22.387  12.345   8.418  0.00  0.00     0.081 C 
HETATM   19  C   UNK N   1      21.418  12.954   9.303  0.00  0.00    -0.054 C 
HETATM   20  C   UNK N   1      21.239  12.635  10.585  0.00  0.00     0.017 C 
ENDROOT
BRANCH   8  21
HETATM   21  C   UNK N   1      20.229  16.599   7.883  0.00  0.00     0.145 C 
HETATM   22  O   UNK N   1      19.101  16.300   7.504  0.00  0.00    -0.650 OA
BRANCH  21  23
HETATM   23  O   UNK N   1      20.349  17.619   8.745  0.00  0.00    -0.776 OA
HETATM   24  H   UNK N   1      19.774  17.704   9.480  0.00  0.00     0.167 HD
ENDBRANCH  21  23
ENDBRANCH   8  21
BRANCH  15  25
HETATM   25  O   UNK N   1      19.517  17.334   3.264  0.00  0.00    -0.390 OA
HETATM   26  H   UNK N   1      18.882  17.833   2.726  0.00  0.00     0.210 HD
ENDBRANCH  15  25
BRANCH  18  27
HETATM   27  O   UNK N   1      23.166  11.383   9.062  0.00  0.00    -0.385 OA
HETATM   28  H   UNK N   1      23.997  11.024   8.715  0.00  0.00     0.211 HD
ENDBRANCH  18  27
TORSDOF 4
ENDMDL
MODEL 6
REMARK VINA RESULT:      -6.5     22.858     25.437
REMARK  4 active torsions:
REMARK  status: ('A' for Active; 'I' for Inactive)
REMARK    1  A    between atoms: C_8  and  C_15 
REMARK    2  A    between atoms: C_15  and  O_21 
REMARK    3  A    between atoms: C_16  and  O_23 
REMARK    4  A    between atoms: C_19  and  O_24 
ROOT
HETATM    1  C   UNK N   1      26.852  26.496  -7.010  0.00  0.00     0.098 C 
HETATM    2  C   UNK N   1      26.930  27.725  -6.113  0.00  0.00     0.035 C 
HETATM    3  C   UNK N   1      27.862  25.548  -6.435  0.00  0.00     0.061 C 
HETATM    4  O   UNK N   1      25.669  25.783  -6.849  0.00  0.00    -0.304 OA
HETATM    5  C   UNK N   1      27.067  26.693  -8.493  0.00  0.00     0.011 C 
HETATM    6  C   UNK N   1      27.097  27.199  -4.634  0.00  0.00    -0.013 C 
HETATM    7  C   UNK N   1      27.915  28.858  -6.267  0.00  0.00     0.012 C 
HETATM    8  C   UNK N   1      27.625  25.691  -4.893  0.00  0.00     0.101 C 
HETATM    9  C   UNK N   1      27.373  24.223  -7.067  0.00  0.00     0.081 C 
HETATM   10  C   UNK N   1      25.922  24.462  -6.854  0.00  0.00     0.271 C 
HETATM   11  C   UNK N   1      27.388  25.619  -9.242  0.00  0.00     0.005 C 
HETATM   12  C   UNK N   1      25.965  28.101  -4.069  0.00  0.00     0.053 C 
HETATM   13  C   UNK N   1      28.084  27.667  -3.523  0.00  0.00     0.047 C 
HETATM   14  C   UNK N   1      27.313  29.994  -5.386  0.00  0.00     0.043 C 
HETATM   15  C   UNK N   1      27.660  24.255  -8.603  0.00  0.00     0.159 C 
HETATM   16  C   UNK N   1      27.893  22.942  -6.423  0.00  0.00     0.029 C 
HETATM   17  O   UNK N   1      25.129  23.637  -6.445  0.00  0.00    -0.264 OA
HETATM   18  C   UNK N   1      26.731  29.496  -4.012  0.00  0.00     0.081 C 
HETATM   19  C   UNK N   1      27.871  29.058  -3.236  0.00  0.00    -0.054 C 
HETATM   20  C   UNK N   1      28.243  29.566  -2.061  0.00  0.00     0.017 C 
ENDROOT
BRANCH   8  21
HETATM   21  C   UNK N   1      29.024  25.291  -4.331  0.00  0.00     0.145 C 
HETATM   22  O   UNK N   1      30.052  25.582  -4.934  0.00  0.00    -0.650 OA
BRANCH  21  23
HETATM   23  O   UNK N   1      29.114  24.395  -3.338  0.00  0.00    -0.776 OA
HETATM   24  H   UNK N   1      29.911  23.931  -3.173  0.00  0.00     0.167 HD
ENDBRANCH  21  23
ENDBRANCH   8  21
BRANCH  15  25
HETATM   25  O   UNK N   1      28.991  23.920  -8.859  0.00  0.00    -0.390 OA
HETATM   26  H   UNK N   1      29.687  23.285  -8.626  0.00  0.00     0.210 HD
ENDBRANCH  15  25
BRANCH  18  27
HETATM   27  O   UNK N   1      26.015  30.513  -3.379  0.00  0.00    -0.385 OA
HETATM   28  H   UNK N   1      25.126  30.411  -3.005  0.00  0.00     0.211 HD
ENDBRANCH  18  27
TORSDOF 4
ENDMDL
MODEL 7
REMARK VINA RESULT:      -6.5     19.904     22.808
REMARK  4 active torsions:
REMARK  status: ('A' for Active; 'I' for Inactive)
REMARK    1  A    between atoms: C_8  and  C_15 
REMARK    2  A    between atoms: C_15  and  O_21 
REMARK    3  A    between atoms: C_16  and  O_23 
REMARK    4  A    between atoms: C_19  and  O_24 
ROOT
HETATM    1  C   UNK N   1      29.472  24.522  -4.057  0.00  0.00     0.098 C 
HETATM    2  C   UNK N   1      30.579  23.483  -4.183  0.00  0.00     0.035 C 
HETATM    3  C   UNK N   1      28.692  24.393  -5.331  0.00  0.00     0.061 C 
HETATM    4  O   UNK N   1      28.518  24.182  -3.104  0.00  0.00    -0.304 OA
HETATM    5  C   UNK N   1      29.878  25.956  -3.805  0.00  0.00     0.011 C 
HETATM    6  C   UNK N   1      29.932  22.207  -4.849  0.00  0.00    -0.013 C 
HETATM    7  C   UNK N   1      31.901  23.694  -4.881  0.00  0.00     0.012 C 
HETATM    8  C   UNK N   1      28.605  22.841  -5.523  0.00  0.00     0.101 C 
HETATM    9  C   UNK N   1      27.376  25.090  -4.908  0.00  0.00     0.081 C 
HETATM   10  C   UNK N   1      27.287  24.473  -3.559  0.00  0.00     0.271 C 
HETATM   11  C   UNK N   1      28.986  26.931  -4.072  0.00  0.00     0.005 C 
HETATM   12  C   UNK N   1      30.512  21.226  -3.792  0.00  0.00     0.053 C 
HETATM   13  C   UNK N   1      30.462  21.326  -6.019  0.00  0.00     0.047 C 
HETATM   14  C   UNK N   1      32.780  22.512  -4.376  0.00  0.00     0.043 C 
HETATM   15  C   UNK N   1      27.643  26.620  -4.737  0.00  0.00     0.159 C 
HETATM   16  C   UNK N   1      26.164  24.825  -5.795  0.00  0.00     0.029 C 
HETATM   17  O   UNK N   1      26.275  24.017  -3.064  0.00  0.00    -0.264 OA
HETATM   18  C   UNK N   1      32.019  21.137  -4.300  0.00  0.00     0.081 C 
HETATM   19  C   UNK N   1      31.737  20.765  -5.670  0.00  0.00    -0.054 C 
HETATM   20  C   UNK N   1      32.173  19.659  -6.272  0.00  0.00     0.017 C 
ENDROOT
BRANCH   8  21
HETATM   21  C   UNK N   1      28.438  22.734  -7.070  0.00  0.00     0.145 C 
HETATM   22  O   UNK N   1      28.910  23.586  -7.816  0.00  0.00    -0.650 OA
BRANCH  21  23
HETATM   23  O   UNK N   1      27.553  21.871  -7.589  0.00  0.00    -0.776 OA
HETATM   24  H   UNK N   1      26.761  21.656  -7.136  0.00  0.00     0.167 HD
ENDBRANCH  21  23
ENDBRANCH   8  21
BRANCH  15  25
HETATM   25  O   UNK N   1      27.619  27.263  -5.976  0.00  0.00    -0.390 OA
HETATM   26  H   UNK N   1      27.135  27.923  -6.495  0.00  0.00     0.210 HD
ENDBRANCH  15  25
BRANCH  18  27
HETATM   27  O   UNK N   1      32.787  20.180  -3.636  0.00  0.00    -0.385 OA
HETATM   28  H   UNK N   1      33.350  20.362  -2.867  0.00  0.00     0.211 HD
ENDBRANCH  18  27
TORSDOF 4
ENDMDL
MODEL 8
REMARK VINA RESULT:      -6.4      4.692      7.642
REMARK  4 active torsions:
REMARK  status: ('A' for Active; 'I' for Inactive)
REMARK    1  A    between atoms: C_8  and  C_15 
REMARK    2  A    between atoms: C_15  and  O_21 
REMARK    3  A    between atoms: C_16  and  O_23 
REMARK    4  A    between atoms: C_19  and  O_24 
ROOT
HETATM    1  C   UNK N   1      34.259  15.449   6.197  0.00  0.00     0.098 C 
HETATM    2  C   UNK N   1      35.053  14.187   6.509  0.00  0.00     0.035 C 
HETATM    3  C   UNK N   1      33.246  15.535   7.300  0.00  0.00     0.061 C 
HETATM    4  O   UNK N   1      34.993  16.613   6.395  0.00  0.00    -0.304 OA
HETATM    5  C   UNK N   1      33.601  15.549   4.841  0.00  0.00     0.011 C 
HETATM    6  C   UNK N   1      35.256  14.151   8.074  0.00  0.00    -0.013 C 
HETATM    7  C   UNK N   1      34.662  12.786   6.107  0.00  0.00     0.012 C 
HETATM    8  C   UNK N   1      34.087  15.156   8.567  0.00  0.00     0.101 C 
HETATM    9  C   UNK N   1      32.850  17.026   7.182  0.00  0.00     0.081 C 
HETATM   10  C   UNK N   1      34.226  17.549   6.981  0.00  0.00     0.271 C 
HETATM   11  C   UNK N   1      32.599  16.436   4.678  0.00  0.00     0.005 C 
HETATM   12  C   UNK N   1      36.783  13.880   7.981  0.00  0.00     0.053 C 
HETATM   13  C   UNK N   1      35.063  12.969   9.070  0.00  0.00     0.047 C 
HETATM   14  C   UNK N   1      35.971  11.964   6.305  0.00  0.00     0.043 C 
HETATM   15  C   UNK N   1      32.043  17.235   5.859  0.00  0.00     0.159 C 
HETATM   16  C   UNK N   1      32.126  17.624   8.384  0.00  0.00     0.029 C 
HETATM   17  O   UNK N   1      34.686  18.535   7.524  0.00  0.00    -0.264 OA
HETATM   18  C   UNK N   1      36.762  12.330   7.614  0.00  0.00     0.081 C 
HETATM   19  C   UNK N   1      35.934  11.884   8.714  0.00  0.00    -0.054 C 
HETATM   20  C   UNK N   1      36.288  10.979   9.626  0.00  0.00     0.017 C 
ENDROOT
BRANCH   8  21
HETATM   21  C   UNK N   1      32.980  14.596   9.512  0.00  0.00     0.145 C 
HETATM   22  O   UNK N   1      32.007  14.001   9.060  0.00  0.00    -0.650 OA
BRANCH  21  23
HETATM   23  O   UNK N   1      32.932  14.990  10.792  0.00  0.00    -0.776 OA
HETATM   24  H   UNK N   1      33.387  14.520  11.463  0.00  0.00     0.167 HD
ENDBRANCH  21  23
ENDBRANCH   8  21
BRANCH  15  25
HETATM   25  O   UNK N   1      30.709  16.864   6.037  0.00  0.00    -0.390 OA
HETATM   26  H   UNK N   1      29.862  17.173   6.393  0.00  0.00     0.210 HD
ENDBRANCH  15  25
BRANCH  18  27
HETATM   27  O   UNK N   1      38.021  11.727   7.618  0.00  0.00    -0.385 OA
HETATM   28  H   UNK N   1      38.477  11.399   6.827  0.00  0.00     0.211 HD
ENDBRANCH  18  27
TORSDOF 4
ENDMDL
MODEL 9
REMARK VINA RESULT:      -6.3      1.921      3.732
REMARK  4 active torsions:
REMARK  status: ('A' for Active; 'I' for Inactive)
REMARK    1  A    between atoms: C_8  and  C_15 
REMARK    2  A    between atoms: C_15  and  O_21 
REMARK    3  A    between atoms: C_16  and  O_23 
REMARK    4  A    between atoms: C_19  and  O_24 
ROOT
HETATM    1  C   UNK N   1      35.499  12.236  13.963  0.00  0.00     0.098 C 
HETATM    2  C   UNK N   1      35.399  11.844  15.432  0.00  0.00     0.035 C 
HETATM    3  C   UNK N   1      36.816  11.675  13.516  0.00  0.00     0.061 C 
HETATM    4  O   UNK N   1      34.605  11.540  13.156  0.00  0.00    -0.304 OA
HETATM    5  C   UNK N   1      35.381  13.702  13.616  0.00  0.00     0.011 C 
HETATM    6  C   UNK N   1      35.968  10.377  15.552  0.00  0.00    -0.013 C 
HETATM    7  C   UNK N   1      35.991  12.618  16.585  0.00  0.00     0.012 C 
HETATM    8  C   UNK N   1      36.832  10.261  14.189  0.00  0.00     0.101 C 
HETATM    9  C   UNK N   1      36.603  11.685  11.983  0.00  0.00     0.081 C 
HETATM   10  C   UNK N   1      35.204  11.182  12.007  0.00  0.00     0.271 C 
HETATM   11  C   UNK N   1      35.842  14.116  12.419  0.00  0.00     0.005 C 
HETATM   12  C   UNK N   1      34.753   9.856  16.370  0.00  0.00     0.053 C 
HETATM   13  C   UNK N   1      36.973   9.787  16.586  0.00  0.00     0.047 C 
HETATM   14  C   UNK N   1      35.271  12.029  17.835  0.00  0.00     0.043 C 
HETATM   15  C   UNK N   1      36.588  13.165  11.481  0.00  0.00     0.159 C 
HETATM   16  C   UNK N   1      37.561  10.823  11.168  0.00  0.00     0.029 C 
HETATM   17  O   UNK N   1      34.755  10.329  11.266  0.00  0.00    -0.264 OA
HETATM   18  C   UNK N   1      35.106  10.465  17.799  0.00  0.00     0.081 C 
HETATM   19  C   UNK N   1      36.443   9.923  17.914  0.00  0.00    -0.054 C 
HETATM   20  C   UNK N   1      36.868   9.124  18.892  0.00  0.00     0.017 C 
ENDROOT
BRANCH   8  21
HETATM   21  C   UNK N   1      38.365   9.996  14.306  0.00  0.00     0.145 C 
HETATM   22  O   UNK N   1      39.148  10.913  14.526  0.00  0.00    -0.650 OA
BRANCH  21  23
HETATM   23  O   UNK N   1      38.873   8.824  13.898  0.00  0.00    -0.776 OA
HETATM   24  H   UNK N   1      38.413   8.020  14.039  0.00  0.00     0.167 HD
ENDBRANCH  21  23
ENDBRANCH   8  21
BRANCH  15  25
HETATM   25  O   UNK N   1      37.891  13.644  11.331  0.00  0.00    -0.390 OA
HETATM   26  H   UNK N   1      38.637  14.019  11.823  0.00  0.00     0.210 HD
ENDBRANCH  15  25
BRANCH  18  27
HETATM   27  O   UNK N   1      34.266  10.031  18.825  0.00  0.00    -0.385 OA
HETATM   28  H   UNK N   1      34.426   9.247  19.374  0.00  0.00     0.211 HD
ENDBRANCH  18  27
TORSDOF 4
ENDMDL
