MODEL 1
REMARK VINA RESULT:      -6.8      0.000      0.000
REMARK  8 active torsions:
REMARK  status: ('A' for Active; 'I' for Inactive)
REMARK    1  A    between atoms: O_2  and  C_13 
REMARK    2  A    between atoms: O_3  and  C_14 
REMARK    3  A    between atoms: O_4  and  C_19 
REMARK    4  A    between atoms: O_5  and  C_20 
REMARK    5  A    between atoms: C_6  and  C_7 
REMARK    6  A    between atoms: C_6  and  C_8 
REMARK    7  A    between atoms: C_7  and  C_9 
REMARK    8  A    between atoms: C_9  and  C_10 
ROOT
HETATM    1  C   UNK N   1      21.302  13.864   9.030  0.00  0.00     0.076 A 
HETATM    2  C   UNK N   1      20.515  13.335  10.093  0.00  0.00     0.085 A 
HETATM    3  C   UNK N   1      22.663  13.473   8.946  0.00  0.00     0.085 A 
HETATM    4  C   UNK N   1      21.080  12.454  11.015  0.00  0.00     0.074 A 
HETATM    5  C   UNK N   1      23.203  12.588   9.881  0.00  0.00     0.074 A 
HETATM    6  C   UNK N   1      22.415  12.080  10.911  0.00  0.00     0.071 A 
ENDROOT
BRANCH   1   7
HETATM    7  C   UNK N   1      20.717  14.810   8.024  0.00  0.00     0.165 C 
HETATM    8  O   UNK N   1      20.145  14.384   7.030  0.00  0.00    -0.292 OA
BRANCH   7   9
HETATM    9  C   UNK N   1      20.785  16.288   8.222  0.00  0.00     0.088 C 
BRANCH   9  10
HETATM   10  C   UNK N   1      19.518  16.962   7.736  0.00  0.00     0.046 C 
BRANCH  10  11
HETATM   11  C   UNK N   1      18.855  17.649   8.879  0.00  0.00    -0.058 A 
HETATM   12  C   UNK N   1      17.568  17.263   9.260  0.00  0.00     0.010 A 
HETATM   13  C   UNK N   1      16.938  17.894  10.335  0.00  0.00     0.037 A 
HETATM   14  C   UNK N   1      17.592  18.915  11.030  0.00  0.00     0.065 A 
HETATM   15  C   UNK N   1      18.880  19.307  10.650  0.00  0.00     0.037 A 
HETATM   16  C   UNK N   1      19.512  18.673   9.575  0.00  0.00     0.010 A 
BRANCH  14  17
HETATM   17  O   UNK N   1      16.983  19.520  12.061  0.00  0.00    -0.361 OA
HETATM   18  H   UNK N   1      17.049  19.177  12.931  0.00  0.00     0.217 HD
ENDBRANCH  14  17
ENDBRANCH  10  11
ENDBRANCH   9  10
ENDBRANCH   7   9
ENDBRANCH   1   7
BRANCH   2  19
HETATM   19  O   UNK N   1      19.225  13.670  10.248  0.00  0.00    -0.360 OA
HETATM   20  H   UNK N   1      18.988  14.390  10.801  0.00  0.00     0.217 HD
ENDBRANCH   2  19
BRANCH   3  21
HETATM   21  O   UNK N   1      23.458  13.932   7.963  0.00  0.00    -0.360 OA
HETATM   22  H   UNK N   1      23.488  14.849   7.772  0.00  0.00     0.217 HD
ENDBRANCH   3  21
BRANCH   6  23
HETATM   23  O   UNK N   1      22.943  11.229  11.804  0.00  0.00    -0.361 OA
HETATM   24  H   UNK N   1      23.873  11.133  11.869  0.00  0.00     0.217 HD
ENDBRANCH   6  23
TORSDOF 8
ENDMDL
MODEL 2
REMARK VINA RESULT:      -6.7      0.347      2.187
REMARK  8 active torsions:
REMARK  status: ('A' for Active; 'I' for Inactive)
REMARK    1  A    between atoms: O_2  and  C_13 
REMARK    2  A    between atoms: O_3  and  C_14 
REMARK    3  A    between atoms: O_4  and  C_19 
REMARK    4  A    between atoms: O_5  and  C_20 
REMARK    5  A    between atoms: C_6  and  C_7 
REMARK    6  A    between atoms: C_6  and  C_8 
REMARK    7  A    between atoms: C_7  and  C_9 
REMARK    8  A    between atoms: C_9  and  C_10 
ROOT
HETATM    1  C   UNK N   1      21.356  13.667   9.182  0.00  0.00     0.076 A 
HETATM    2  C   UNK N   1      22.735  13.313   9.180  0.00  0.00     0.085 A 
HETATM    3  C   UNK N   1      20.541  13.181  10.236  0.00  0.00     0.085 A 
HETATM    4  C   UNK N   1      23.258  12.514  10.197  0.00  0.00     0.074 A 
HETATM    5  C   UNK N   1      21.090  12.385  11.244  0.00  0.00     0.074 A 
HETATM    6  C   UNK N   1      22.443  12.053  11.225  0.00  0.00     0.071 A 
ENDROOT
BRANCH   1   7
HETATM    7  C   UNK N   1      20.771  14.527   8.101  0.00  0.00     0.165 C 
HETATM    8  O   UNK N   1      20.079  14.034   7.221  0.00  0.00    -0.292 OA
BRANCH   7   9
HETATM    9  C   UNK N   1      20.986  16.004   8.088  0.00  0.00     0.088 C 
BRANCH   9  10
HETATM   10  C   UNK N   1      19.764  16.728   7.562  0.00  0.00     0.046 C 
BRANCH  10  11
HETATM   11  C   UNK N   1      19.106  17.461   8.678  0.00  0.00    -0.058 A 
HETATM   12  C   UNK N   1      19.755  18.552   9.262  0.00  0.00     0.010 A 
HETATM   13  C   UNK N   1      19.145  19.252  10.306  0.00  0.00     0.037 A 
HETATM   14  C   UNK N   1      17.886  18.861  10.770  0.00  0.00     0.065 A 
HETATM   15  C   UNK N   1      17.233  17.769  10.190  0.00  0.00     0.037 A 
HETATM   16  C   UNK N   1      17.843  17.069   9.144  0.00  0.00     0.010 A 
BRANCH  14  17
HETATM   17  O   UNK N   1      17.303  19.536  11.774  0.00  0.00    -0.361 OA
HETATM   18  H   UNK N   1      17.674  19.538  12.634  0.00  0.00     0.217 HD
ENDBRANCH  14  17
ENDBRANCH  10  11
ENDBRANCH   9  10
ENDBRANCH   7   9
ENDBRANCH   1   7
BRANCH   2  19
HETATM   19  O   UNK N   1      23.565  13.720   8.206  0.00  0.00    -0.360 OA
HETATM   20  H   UNK N   1      23.596  14.624   7.960  0.00  0.00     0.217 HD
ENDBRANCH   2  19
BRANCH   3  21
HETATM   21  O   UNK N   1      19.232  13.484  10.300  0.00  0.00    -0.360 OA
HETATM   22  H   UNK N   1      18.601  12.808  10.451  0.00  0.00     0.217 HD
ENDBRANCH   3  21
BRANCH   6  23
HETATM   23  O   UNK N   1      22.961  11.289  12.198  0.00  0.00    -0.361 OA
HETATM   24  H   UNK N   1      23.858  11.022  12.159  0.00  0.00     0.217 HD
ENDBRANCH   6  23
TORSDOF 8
ENDMDL
MODEL 3
REMARK VINA RESULT:      -6.6     17.595     19.452
REMARK  8 active torsions:
REMARK  status: ('A' for Active; 'I' for Inactive)
REMARK    1  A    between atoms: O_2  and  C_13 
REMARK    2  A    between atoms: O_3  and  C_14 
REMARK    3  A    between atoms: O_4  and  C_19 
REMARK    4  A    between atoms: O_5  and  C_20 
REMARK    5  A    between atoms: C_6  and  C_7 
REMARK    6  A    between atoms: C_6  and  C_8 
REMARK    7  A    between atoms: C_7  and  C_9 
REMARK    8  A    between atoms: C_9  and  C_10 
ROOT
HETATM    1  C   UNK N   1      26.106  25.207  -5.129  0.00  0.00     0.076 A 
HETATM    2  C   UNK N   1      26.295  25.355  -3.726  0.00  0.00     0.085 A 
HETATM    3  C   UNK N   1      25.844  26.371  -5.897  0.00  0.00     0.085 A 
HETATM    4  C   UNK N   1      26.226  26.618  -3.137  0.00  0.00     0.074 A 
HETATM    5  C   UNK N   1      25.783  27.623  -5.282  0.00  0.00     0.074 A 
HETATM    6  C   UNK N   1      25.972  27.747  -3.908  0.00  0.00     0.071 A 
ENDROOT
BRANCH   1   7
HETATM    7  C   UNK N   1      26.179  23.861  -5.788  0.00  0.00     0.165 C 
HETATM    8  O   UNK N   1      25.161  23.299  -6.167  0.00  0.00    -0.292 OA
BRANCH   7   9
HETATM    9  C   UNK N   1      27.490  23.188  -6.028  0.00  0.00     0.088 C 
BRANCH   9  10
HETATM   10  C   UNK N   1      28.645  24.099  -5.664  0.00  0.00     0.046 C 
BRANCH  10  11
HETATM   11  C   UNK N   1      29.562  23.387  -4.732  0.00  0.00    -0.058 A 
HETATM   12  C   UNK N   1      30.057  22.128  -5.083  0.00  0.00     0.010 A 
HETATM   13  C   UNK N   1      30.923  21.453  -4.221  0.00  0.00     0.037 A 
HETATM   14  C   UNK N   1      31.294  22.032  -3.004  0.00  0.00     0.065 A 
HETATM   15  C   UNK N   1      30.798  23.290  -2.648  0.00  0.00     0.037 A 
HETATM   16  C   UNK N   1      29.933  23.968  -3.512  0.00  0.00     0.010 A 
BRANCH  14  17
HETATM   17  O   UNK N   1      32.126  21.379  -2.177  0.00  0.00    -0.361 OA
HETATM   18  H   UNK N   1      32.408  20.506  -2.365  0.00  0.00     0.217 HD
ENDBRANCH  14  17
ENDBRANCH  10  11
ENDBRANCH   9  10
ENDBRANCH   7   9
ENDBRANCH   1   7
BRANCH   2  19
HETATM   19  O   UNK N   1      26.531  24.299  -2.932  0.00  0.00    -0.360 OA
HETATM   20  H   UNK N   1      26.237  24.304  -2.041  0.00  0.00     0.217 HD
ENDBRANCH   2  19
BRANCH   3  21
HETATM   21  O   UNK N   1      25.662  26.299  -7.228  0.00  0.00    -0.360 OA
HETATM   22  H   UNK N   1      24.859  25.963  -7.575  0.00  0.00     0.217 HD
ENDBRANCH   3  21
BRANCH   6  23
HETATM   23  O   UNK N   1      25.913  28.954  -3.327  0.00  0.00    -0.361 OA
HETATM   24  H   UNK N   1      25.086  29.381  -3.214  0.00  0.00     0.217 HD
ENDBRANCH   6  23
TORSDOF 8
ENDMDL
MODEL 4
REMARK VINA RESULT:      -6.6     17.610     19.488
REMARK  8 active torsions:
REMARK  status: ('A' for Active; 'I' for Inactive)
REMARK    1  A    between atoms: O_2  and  C_13 
REMARK    2  A    between atoms: O_3  and  C_14 
REMARK    3  A    between atoms: O_4  and  C_19 
REMARK    4  A    between atoms: O_5  and  C_20 
REMARK    5  A    between atoms: C_6  and  C_7 
REMARK    6  A    between atoms: C_6  and  C_8 
REMARK    7  A    between atoms: C_7  and  C_9 
REMARK    8  A    between atoms: C_9  and  C_10 
ROOT
HETATM    1  C   UNK N   1      26.069  25.231  -5.164  0.00  0.00     0.076 A 
HETATM    2  C   UNK N   1      25.817  26.406  -5.926  0.00  0.00     0.085 A 
HETATM    3  C   UNK N   1      26.276  25.369  -3.767  0.00  0.00     0.085 A 
HETATM    4  C   UNK N   1      25.772  27.653  -5.301  0.00  0.00     0.074 A 
HETATM    5  C   UNK N   1      26.223  26.629  -3.166  0.00  0.00     0.074 A 
HETATM    6  C   UNK N   1      25.973  27.766  -3.930  0.00  0.00     0.071 A 
ENDROOT
BRANCH   1   7
HETATM    7  C   UNK N   1      26.119  23.878  -5.811  0.00  0.00     0.165 C 
HETATM    8  O   UNK N   1      25.088  23.316  -6.154  0.00  0.00    -0.292 OA
BRANCH   7   9
HETATM    9  C   UNK N   1      27.420  23.199  -6.082  0.00  0.00     0.088 C 
BRANCH   9  10
HETATM   10  C   UNK N   1      28.588  24.105  -5.749  0.00  0.00     0.046 C 
BRANCH  10  11
HETATM   11  C   UNK N   1      29.495  23.410  -4.795  0.00  0.00    -0.058 A 
HETATM   12  C   UNK N   1      29.927  22.112  -5.078  0.00  0.00     0.010 A 
HETATM   13  C   UNK N   1      30.784  21.452  -4.195  0.00  0.00     0.037 A 
HETATM   14  C   UNK N   1      31.209  22.087  -3.025  0.00  0.00     0.065 A 
HETATM   15  C   UNK N   1      30.777  23.385  -2.736  0.00  0.00     0.037 A 
HETATM   16  C   UNK N   1      29.921  24.047  -3.621  0.00  0.00     0.010 A 
BRANCH  14  17
HETATM   17  O   UNK N   1      32.032  21.448  -2.178  0.00  0.00    -0.361 OA
HETATM   18  H   UNK N   1      32.408  20.620  -2.401  0.00  0.00     0.217 HD
ENDBRANCH  14  17
ENDBRANCH  10  11
ENDBRANCH   9  10
ENDBRANCH   7   9
ENDBRANCH   1   7
BRANCH   2  19
HETATM   19  O   UNK N   1      25.628  26.358  -7.254  0.00  0.00    -0.360 OA
HETATM   20  H   UNK N   1      25.279  27.099  -7.708  0.00  0.00     0.217 HD
ENDBRANCH   2  19
BRANCH   3  21
HETATM   21  O   UNK N   1      26.512  24.297  -2.989  0.00  0.00    -0.360 OA
HETATM   22  H   UNK N   1      27.307  23.811  -3.089  0.00  0.00     0.217 HD
ENDBRANCH   3  21
BRANCH   6  23
HETATM   23  O   UNK N   1      25.923  28.972  -3.344  0.00  0.00    -0.361 OA
HETATM   24  H   UNK N   1      25.997  29.045  -2.413  0.00  0.00     0.217 HD
ENDBRANCH   6  23
TORSDOF 8
ENDMDL
MODEL 5
REMARK VINA RESULT:      -6.5      2.344      6.545
REMARK  8 active torsions:
REMARK  status: ('A' for Active; 'I' for Inactive)
REMARK    1  A    between atoms: O_2  and  C_13 
REMARK    2  A    between atoms: O_3  and  C_14 
REMARK    3  A    between atoms: O_4  and  C_19 
REMARK    4  A    between atoms: O_5  and  C_20 
REMARK    5  A    between atoms: C_6  and  C_7 
REMARK    6  A    between atoms: C_6  and  C_8 
REMARK    7  A    between atoms: C_7  and  C_9 
REMARK    8  A    between atoms: C_9  and  C_10 
ROOT
HETATM    1  C   UNK N   1      20.953  14.873   7.475  0.00  0.00     0.076 A 
HETATM    2  C   UNK N   1      21.389  15.966   6.674  0.00  0.00     0.085 A 
HETATM    3  C   UNK N   1      20.154  15.153   8.613  0.00  0.00     0.085 A 
HETATM    4  C   UNK N   1      21.030  17.271   7.010  0.00  0.00     0.074 A 
HETATM    5  C   UNK N   1      19.806  16.470   8.925  0.00  0.00     0.074 A 
HETATM    6  C   UNK N   1      20.242  17.524   8.127  0.00  0.00     0.071 A 
ENDROOT
BRANCH   1   7
HETATM    7  C   UNK N   1      21.323  13.459   7.134  0.00  0.00     0.165 C 
HETATM    8  O   UNK N   1      20.471  12.669   6.754  0.00  0.00    -0.292 OA
BRANCH   7   9
HETATM    9  C   UNK N   1      22.738  12.990   7.216  0.00  0.00     0.088 C 
BRANCH   9  10
HETATM   10  C   UNK N   1      22.824  11.632   7.882  0.00  0.00     0.046 C 
BRANCH  10  11
HETATM   11  C   UNK N   1      23.100  11.812   9.334  0.00  0.00    -0.058 A 
HETATM   12  C   UNK N   1      24.418  11.969   9.770  0.00  0.00     0.010 A 
HETATM   13  C   UNK N   1      24.689  12.146  11.129  0.00  0.00     0.037 A 
HETATM   14  C   UNK N   1      23.643  12.161  12.056  0.00  0.00     0.065 A 
HETATM   15  C   UNK N   1      22.323  12.001  11.624  0.00  0.00     0.037 A 
HETATM   16  C   UNK N   1      22.050  11.827  10.264  0.00  0.00     0.010 A 
BRANCH  14  17
HETATM   17  O   UNK N   1      23.908  12.329  13.361  0.00  0.00    -0.361 OA
HETATM   18  H   UNK N   1      23.267  12.689  13.942  0.00  0.00     0.217 HD
ENDBRANCH  14  17
ENDBRANCH  10  11
ENDBRANCH   9  10
ENDBRANCH   7   9
ENDBRANCH   1   7
BRANCH   2  19
HETATM   19  O   UNK N   1      22.161  15.781   5.591  0.00  0.00    -0.360 OA
HETATM   20  H   UNK N   1      21.896  16.121   4.759  0.00  0.00     0.217 HD
ENDBRANCH   2  19
BRANCH   3  21
HETATM   21  O   UNK N   1      19.704  14.165   9.408  0.00  0.00    -0.360 OA
HETATM   22  H   UNK N   1      18.848  14.220   9.786  0.00  0.00     0.217 HD
ENDBRANCH   3  21
BRANCH   6  23
HETATM   23  O   UNK N   1      19.901  18.785   8.434  0.00  0.00    -0.361 OA
HETATM   24  H   UNK N   1      20.550  19.383   8.750  0.00  0.00     0.217 HD
ENDBRANCH   6  23
TORSDOF 8
ENDMDL
MODEL 6
REMARK VINA RESULT:      -6.5      7.143      9.744
REMARK  8 active torsions:
REMARK  status: ('A' for Active; 'I' for Inactive)
REMARK    1  A    between atoms: O_2  and  C_13 
REMARK    2  A    between atoms: O_3  and  C_14 
REMARK    3  A    between atoms: O_4  and  C_19 
REMARK    4  A    between atoms: O_5  and  C_20 
REMARK    5  A    between atoms: C_6  and  C_7 
REMARK    6  A    between atoms: C_6  and  C_8 
REMARK    7  A    between atoms: C_7  and  C_9 
REMARK    8  A    between atoms: C_9  and  C_10 
ROOT
HETATM    1  C   UNK N   1      22.415  19.708   3.066  0.00  0.00     0.076 A 
HETATM    2  C   UNK N   1      21.317  19.908   2.183  0.00  0.00     0.085 A 
HETATM    3  C   UNK N   1      22.292  18.720   4.077  0.00  0.00     0.085 A 
HETATM    4  C   UNK N   1      20.158  19.142   2.317  0.00  0.00     0.074 A 
HETATM    5  C   UNK N   1      21.122  17.965   4.187  0.00  0.00     0.074 A 
HETATM    6  C   UNK N   1      20.059  18.175   3.312  0.00  0.00     0.071 A 
ENDROOT
BRANCH   1   7
HETATM    7  C   UNK N   1      23.673  20.516   2.941  0.00  0.00     0.165 C 
HETATM    8  O   UNK N   1      23.648  21.730   3.084  0.00  0.00    -0.292 OA
BRANCH   7   9
HETATM    9  C   UNK N   1      24.988  19.862   2.672  0.00  0.00     0.088 C 
BRANCH   9  10
HETATM   10  C   UNK N   1      26.137  20.780   3.033  0.00  0.00     0.046 C 
BRANCH  10  11
HETATM   11  C   UNK N   1      26.754  20.322   4.308  0.00  0.00    -0.058 A 
HETATM   12  C   UNK N   1      26.445  20.985   5.499  0.00  0.00     0.010 A 
HETATM   13  C   UNK N   1      27.011  20.560   6.703  0.00  0.00     0.037 A 
HETATM   14  C   UNK N   1      27.890  19.474   6.719  0.00  0.00     0.065 A 
HETATM   15  C   UNK N   1      28.204  18.809   5.530  0.00  0.00     0.037 A 
HETATM   16  C   UNK N   1      27.636  19.232   4.324  0.00  0.00     0.010 A 
BRANCH  14  17
HETATM   17  O   UNK N   1      28.433  19.069   7.878  0.00  0.00    -0.361 OA
HETATM   18  H   UNK N   1      29.341  18.845   7.935  0.00  0.00     0.217 HD
ENDBRANCH  14  17
ENDBRANCH  10  11
ENDBRANCH   9  10
ENDBRANCH   7   9
ENDBRANCH   1   7
BRANCH   2  19
HETATM   19  O   UNK N   1      21.352  20.835   1.213  0.00  0.00    -0.360 OA
HETATM   20  H   UNK N   1      20.575  21.303   0.979  0.00  0.00     0.217 HD
ENDBRANCH   2  19
BRANCH   3  21
HETATM   21  O   UNK N   1      23.295  18.478   4.939  0.00  0.00    -0.360 OA
HETATM   22  H   UNK N   1      23.491  19.095   5.617  0.00  0.00     0.217 HD
ENDBRANCH   3  21
BRANCH   6  23
HETATM   23  O   UNK N   1      18.940  17.444   3.425  0.00  0.00    -0.361 OA
HETATM   24  H   UNK N   1      18.423  17.255   2.667  0.00  0.00     0.217 HD
ENDBRANCH   6  23
TORSDOF 8
ENDMDL
MODEL 7
REMARK VINA RESULT:      -6.4     12.157     14.567
REMARK  8 active torsions:
REMARK  status: ('A' for Active; 'I' for Inactive)
REMARK    1  A    between atoms: O_2  and  C_13 
REMARK    2  A    between atoms: O_3  and  C_14 
REMARK    3  A    between atoms: O_4  and  C_19 
REMARK    4  A    between atoms: O_5  and  C_20 
REMARK    5  A    between atoms: C_6  and  C_7 
REMARK    6  A    between atoms: C_6  and  C_8 
REMARK    7  A    between atoms: C_7  and  C_9 
REMARK    8  A    between atoms: C_9  and  C_10 
ROOT
HETATM    1  C   UNK N   1      35.549  15.119  10.617  0.00  0.00     0.076 A 
HETATM    2  C   UNK N   1      34.506  14.403  11.270  0.00  0.00     0.085 A 
HETATM    3  C   UNK N   1      36.866  14.598  10.690  0.00  0.00     0.085 A 
HETATM    4  C   UNK N   1      34.787  13.220  11.954  0.00  0.00     0.074 A 
HETATM    5  C   UNK N   1      37.120  13.410  11.379  0.00  0.00     0.074 A 
HETATM    6  C   UNK N   1      36.084  12.724  12.008  0.00  0.00     0.071 A 
ENDROOT
BRANCH   1   7
HETATM    7  C   UNK N   1      35.273  16.392   9.872  0.00  0.00     0.165 C 
HETATM    8  O   UNK N   1      35.634  17.468  10.327  0.00  0.00    -0.292 OA
BRANCH   7   9
HETATM    9  C   UNK N   1      34.584  16.378   8.548  0.00  0.00     0.088 C 
BRANCH   9  10
HETATM   10  C   UNK N   1      33.597  17.522   8.435  0.00  0.00     0.046 C 
BRANCH  10  11
HETATM   11  C   UNK N   1      32.894  17.439   7.125  0.00  0.00    -0.058 A 
HETATM   12  C   UNK N   1      33.626  17.568   5.942  0.00  0.00     0.010 A 
HETATM   13  C   UNK N   1      32.980  17.485   4.706  0.00  0.00     0.037 A 
HETATM   14  C   UNK N   1      31.599  17.276   4.651  0.00  0.00     0.065 A 
HETATM   15  C   UNK N   1      30.861  17.149   5.832  0.00  0.00     0.037 A 
HETATM   16  C   UNK N   1      31.509  17.230   7.069  0.00  0.00     0.010 A 
BRANCH  14  17
HETATM   17  O   UNK N   1      30.981  17.198   3.462  0.00  0.00    -0.361 OA
HETATM   18  H   UNK N   1      30.539  16.415   3.197  0.00  0.00     0.217 HD
ENDBRANCH  14  17
ENDBRANCH  10  11
ENDBRANCH   9  10
ENDBRANCH   7   9
ENDBRANCH   1   7
BRANCH   2  19
HETATM   19  O   UNK N   1      33.237  14.841  11.260  0.00  0.00    -0.360 OA
HETATM   20  H   UNK N   1      33.055  15.759  11.312  0.00  0.00     0.217 HD
ENDBRANCH   2  19
BRANCH   3  21
HETATM   21  O   UNK N   1      37.895  15.224  10.089  0.00  0.00    -0.360 OA
HETATM   22  H   UNK N   1      38.392  14.783   9.428  0.00  0.00     0.217 HD
ENDBRANCH   3  21
BRANCH   6  23
HETATM   23  O   UNK N   1      36.337  11.583  12.667  0.00  0.00    -0.361 OA
HETATM   24  H   UNK N   1      36.593  11.607  13.568  0.00  0.00     0.217 HD
ENDBRANCH   6  23
TORSDOF 8
ENDMDL
MODEL 8
REMARK VINA RESULT:      -6.3      8.531     11.747
REMARK  8 active torsions:
REMARK  status: ('A' for Active; 'I' for Inactive)
REMARK    1  A    between atoms: O_2  and  C_13 
REMARK    2  A    between atoms: O_3  and  C_14 
REMARK    3  A    between atoms: O_4  and  C_19 
REMARK    4  A    between atoms: O_5  and  C_20 
REMARK    5  A    between atoms: C_6  and  C_7 
REMARK    6  A    between atoms: C_6  and  C_8 
REMARK    7  A    between atoms: C_7  and  C_9 
REMARK    8  A    between atoms: C_9  and  C_10 
ROOT
HETATM    1  C   UNK N   1      26.465  18.546   4.737  0.00  0.00     0.076 A 
HETATM    2  C   UNK N   1      26.970  19.596   3.920  0.00  0.00     0.085 A 
HETATM    3  C   UNK N   1      25.060  18.355   4.790  0.00  0.00     0.085 A 
HETATM    4  C   UNK N   1      26.096  20.403   3.192  0.00  0.00     0.074 A 
HETATM    5  C   UNK N   1      24.207  19.176   4.049  0.00  0.00     0.074 A 
HETATM    6  C   UNK N   1      24.723  20.196   3.253  0.00  0.00     0.071 A 
ENDROOT
BRANCH   1   7
HETATM    7  C   UNK N   1      27.384  17.661   5.528  0.00  0.00     0.165 C 
HETATM    8  O   UNK N   1      27.469  16.468   5.272  0.00  0.00    -0.292 OA
BRANCH   7   9
HETATM    9  C   UNK N   1      28.240  18.215   6.618  0.00  0.00     0.088 C 
BRANCH   9  10
HETATM   10  C   UNK N   1      28.977  17.110   7.347  0.00  0.00     0.046 C 
BRANCH  10  11
HETATM   11  C   UNK N   1      30.444  17.304   7.184  0.00  0.00    -0.058 A 
HETATM   12  C   UNK N   1      31.215  17.678   8.287  0.00  0.00     0.010 A 
HETATM   13  C   UNK N   1      32.594  17.857   8.149  0.00  0.00     0.037 A 
HETATM   14  C   UNK N   1      33.204  17.665   6.906  0.00  0.00     0.065 A 
HETATM   15  C   UNK N   1      32.436  17.293   5.798  0.00  0.00     0.037 A 
HETATM   16  C   UNK N   1      31.056  17.112   5.937  0.00  0.00     0.010 A 
BRANCH  14  17
HETATM   17  O   UNK N   1      34.528  17.838   6.776  0.00  0.00    -0.361 OA
HETATM   18  H   UNK N   1      34.878  18.452   6.161  0.00  0.00     0.217 HD
ENDBRANCH  14  17
ENDBRANCH  10  11
ENDBRANCH   9  10
ENDBRANCH   7   9
ENDBRANCH   1   7
BRANCH   2  19
HETATM   19  O   UNK N   1      28.286  19.849   3.832  0.00  0.00    -0.360 OA
HETATM   20  H   UNK N   1      28.891  19.150   3.678  0.00  0.00     0.217 HD
ENDBRANCH   2  19
BRANCH   3  21
HETATM   21  O   UNK N   1      24.519  17.377   5.539  0.00  0.00    -0.360 OA
HETATM   22  H   UNK N   1      24.884  16.514   5.519  0.00  0.00     0.217 HD
ENDBRANCH   3  21
BRANCH   6  23
HETATM   23  O   UNK N   1      23.896  20.979   2.544  0.00  0.00    -0.361 OA
HETATM   24  H   UNK N   1      23.379  21.630   2.977  0.00  0.00     0.217 HD
ENDBRANCH   6  23
TORSDOF 8
ENDMDL
MODEL 9
REMARK VINA RESULT:      -6.3     15.505     17.271
REMARK  8 active torsions:
REMARK  status: ('A' for Active; 'I' for Inactive)
REMARK    1  A    between atoms: O_2  and  C_13 
REMARK    2  A    between atoms: O_3  and  C_14 
REMARK    3  A    between atoms: O_4  and  C_19 
REMARK    4  A    between atoms: O_5  and  C_20 
REMARK    5  A    between atoms: C_6  and  C_7 
REMARK    6  A    between atoms: C_6  and  C_8 
REMARK    7  A    between atoms: C_7  and  C_9 
REMARK    8  A    between atoms: C_9  and  C_10 
ROOT
HETATM    1  C   UNK N   1      35.486  11.368  12.625  0.00  0.00     0.076 A 
HETATM    2  C   UNK N   1      36.571  10.623  12.083  0.00  0.00     0.085 A 
HETATM    3  C   UNK N   1      35.549  12.784  12.562  0.00  0.00     0.085 A 
HETATM    4  C   UNK N   1      37.657  11.280  11.505  0.00  0.00     0.074 A 
HETATM    5  C   UNK N   1      36.646  13.417  11.975  0.00  0.00     0.074 A 
HETATM    6  C   UNK N   1      37.696  12.669  11.449  0.00  0.00     0.071 A 
ENDROOT
BRANCH   1   7
HETATM    7  C   UNK N   1      34.306  10.685  13.250  0.00  0.00     0.165 C 
HETATM    8  O   UNK N   1      33.467  10.133  12.551  0.00  0.00    -0.292 OA
BRANCH   7   9
HETATM    9  C   UNK N   1      34.140  10.630  14.732  0.00  0.00     0.088 C 
BRANCH   9  10
HETATM   10  C   UNK N   1      35.485  10.613  15.430  0.00  0.00     0.046 C 
BRANCH  10  11
HETATM   11  C   UNK N   1      35.376  11.336  16.728  0.00  0.00    -0.058 A 
HETATM   12  C   UNK N   1      35.222  12.725  16.730  0.00  0.00     0.010 A 
HETATM   13  C   UNK N   1      35.111  13.414  17.940  0.00  0.00     0.037 A 
HETATM   14  C   UNK N   1      35.159  12.717  19.150  0.00  0.00     0.065 A 
HETATM   15  C   UNK N   1      35.315  11.327  19.153  0.00  0.00     0.037 A 
HETATM   16  C   UNK N   1      35.423  10.636  17.941  0.00  0.00     0.010 A 
BRANCH  14  17
HETATM   17  O   UNK N   1      35.053  13.383  20.311  0.00  0.00    -0.361 OA
HETATM   18  H   UNK N   1      35.594  14.126  20.493  0.00  0.00     0.217 HD
ENDBRANCH  14  17
ENDBRANCH  10  11
ENDBRANCH   9  10
ENDBRANCH   7   9
ENDBRANCH   1   7
BRANCH   2  19
HETATM   19  O   UNK N   1      36.592   9.281  12.120  0.00  0.00    -0.360 OA
HETATM   20  H   UNK N   1      37.385   8.827  12.332  0.00  0.00     0.217 HD
ENDBRANCH   2  19
BRANCH   3  21
HETATM   21  O   UNK N   1      34.553  13.546  13.051  0.00  0.00    -0.360 OA
HETATM   22  H   UNK N   1      34.151  14.197  12.509  0.00  0.00     0.217 HD
ENDBRANCH   3  21
BRANCH   6  23
HETATM   23  O   UNK N   1      38.746  13.287  10.886  0.00  0.00    -0.361 OA
HETATM   24  H   UNK N   1      39.234  13.922  11.372  0.00  0.00     0.217 HD
ENDBRANCH   6  23
TORSDOF 8
ENDMDL
