MODEL 1
REMARK VINA RESULT:      -5.4      0.000      0.000
REMARK  5 active torsions:
REMARK  status: ('A' for Active; 'I' for Inactive)
REMARK    1  A    between atoms: O_1  and  C_6 
REMARK    2  A    between atoms: O_2  and  C_9 
REMARK    3  A    between atoms: O_3  and  C_14 
REMARK    4  A    between atoms: C_5  and  C_11 
REMARK    5  A    between atoms: C_12  and  C_14 
ROOT
HETATM    1  C   UNK N   1      26.993  24.704  -3.845  0.00  0.00    -0.033 A 
HETATM    2  C   UNK N   1      25.876  26.865  -3.890  0.00  0.00     0.102 A 
HETATM    3  C   UNK N   1      26.730  25.948  -3.275  0.00  0.00     0.051 A 
HETATM    4  C   UNK N   1      26.392  24.358  -5.062  0.00  0.00     0.014 A 
HETATM    5  C   UNK N   1      25.268  26.512  -5.123  0.00  0.00     0.099 A 
HETATM    6  C   UNK N   1      25.532  25.262  -5.696  0.00  0.00     0.040 A 
ENDROOT
BRANCH   1   7
HETATM    7  C   UNK N   1      27.905  23.803  -3.127  0.00  0.00     0.018 C 
HETATM    8  C   UNK N   1      29.226  23.759  -3.315  0.00  0.00     0.082 C 
BRANCH   8   9
HETATM    9  C   UNK N   1      30.048  22.812  -2.536  0.00  0.00     0.165 C 
HETATM   10  O   UNK N   1      30.401  23.085  -1.399  0.00  0.00    -0.647 OA
BRANCH   9  11
HETATM   11  O   UNK N   1      30.413  21.637  -3.082  0.00  0.00    -0.773 OA
HETATM   12  H   UNK N   1      30.280  20.840  -2.608  0.00  0.00     0.167 HD
ENDBRANCH   9  11
ENDBRANCH   8   9
ENDBRANCH   1   7
BRANCH   2  13
HETATM   13  O   UNK N   1      25.678  28.053  -3.261  0.00  0.00    -0.353 OA
HETATM   14  C   UNK N   1      26.370  29.214  -3.513  0.00  0.00     0.210 C 
ENDBRANCH   2  13
BRANCH   5  15
HETATM   15  O   UNK N   1      24.437  27.355  -5.760  0.00  0.00    -0.358 OA
HETATM   16  H   UNK N   1      23.522  27.157  -5.818  0.00  0.00     0.217 HD
ENDBRANCH   5  15
TORSDOF 5
ENDMDL
MODEL 2
REMARK VINA RESULT:      -5.3     22.570     26.165
REMARK  5 active torsions:
REMARK  status: ('A' for Active; 'I' for Inactive)
REMARK    1  A    between atoms: O_1  and  C_6 
REMARK    2  A    between atoms: O_2  and  C_9 
REMARK    3  A    between atoms: O_3  and  C_14 
REMARK    4  A    between atoms: C_5  and  C_11 
REMARK    5  A    between atoms: C_12  and  C_14 
ROOT
HETATM    1  C   UNK N   1      35.192  12.610  16.671  0.00  0.00    -0.033 A 
HETATM    2  C   UNK N   1      35.264  10.897  18.399  0.00  0.00     0.102 A 
HETATM    3  C   UNK N   1      35.233  11.270  17.053  0.00  0.00     0.051 A 
HETATM    4  C   UNK N   1      35.180  13.610  17.652  0.00  0.00     0.014 A 
HETATM    5  C   UNK N   1      35.252  11.913  19.390  0.00  0.00     0.099 A 
HETATM    6  C   UNK N   1      35.210  13.259  19.006  0.00  0.00     0.040 A 
ENDROOT
BRANCH   1   7
HETATM    7  C   UNK N   1      35.162  12.909  15.233  0.00  0.00     0.018 C 
HETATM    8  C   UNK N   1      36.072  13.650  14.597  0.00  0.00     0.082 C 
BRANCH   8   9
HETATM    9  C   UNK N   1      35.943  13.887  13.146  0.00  0.00     0.165 C 
HETATM   10  O   UNK N   1      34.842  14.009  12.631  0.00  0.00    -0.647 OA
BRANCH   9  11
HETATM   11  O   UNK N   1      37.047  13.970  12.381  0.00  0.00    -0.773 OA
HETATM   12  H   UNK N   1      37.881  14.131  12.778  0.00  0.00     0.167 HD
ENDBRANCH   9  11
ENDBRANCH   8   9
ENDBRANCH   1   7
BRANCH   2  13
HETATM   13  O   UNK N   1      35.304   9.568  18.677  0.00  0.00    -0.353 OA
HETATM   14  C   UNK N   1      34.209   8.746  18.805  0.00  0.00     0.210 C 
ENDBRANCH   2  13
BRANCH   5  15
HETATM   15  O   UNK N   1      35.279  11.613  20.700  0.00  0.00    -0.358 OA
HETATM   16  H   UNK N   1      36.101  11.535  21.146  0.00  0.00     0.217 HD
ENDBRANCH   5  15
TORSDOF 5
ENDMDL
MODEL 3
REMARK VINA RESULT:      -5.2     17.134     19.228
REMARK  5 active torsions:
REMARK  status: ('A' for Active; 'I' for Inactive)
REMARK    1  A    between atoms: O_1  and  C_6 
REMARK    2  A    between atoms: O_2  and  C_9 
REMARK    3  A    between atoms: O_3  and  C_14 
REMARK    4  A    between atoms: C_5  and  C_11 
REMARK    5  A    between atoms: C_12  and  C_14 
ROOT
HETATM    1  C   UNK N   1      21.780  13.395  10.010  0.00  0.00    -0.033 A 
HETATM    2  C   UNK N   1      24.174  13.045   9.755  0.00  0.00     0.102 A 
HETATM    3  C   UNK N   1      22.973  13.614   9.326  0.00  0.00     0.051 A 
HETATM    4  C   UNK N   1      21.775  12.587  11.156  0.00  0.00     0.014 A 
HETATM    5  C   UNK N   1      24.167  12.228  10.915  0.00  0.00     0.099 A 
HETATM    6  C   UNK N   1      22.967  12.008  11.604  0.00  0.00     0.040 A 
ENDROOT
BRANCH   1   7
HETATM    7  C   UNK N   1      20.565  14.034   9.486  0.00  0.00     0.018 C 
HETATM    8  C   UNK N   1      20.505  15.290   9.039  0.00  0.00     0.082 C 
BRANCH   8   9
HETATM    9  C   UNK N   1      19.228  15.831   8.533  0.00  0.00     0.165 C 
HETATM   10  O   UNK N   1      19.093  16.097   7.348  0.00  0.00    -0.647 OA
BRANCH   9  11
HETATM   11  O   UNK N   1      18.204  16.033   9.382  0.00  0.00    -0.773 OA
HETATM   12  H   UNK N   1      17.683  16.808   9.310  0.00  0.00     0.167 HD
ENDBRANCH   9  11
ENDBRANCH   8   9
ENDBRANCH   1   7
BRANCH   2  13
HETATM   13  O   UNK N   1      25.288  13.313   9.025  0.00  0.00    -0.353 OA
HETATM   14  C   UNK N   1      25.313  13.983   7.825  0.00  0.00     0.210 C 
ENDBRANCH   2  13
BRANCH   5  15
HETATM   15  O   UNK N   1      25.293  11.654  11.375  0.00  0.00    -0.358 OA
HETATM   16  H   UNK N   1      25.926  11.315  10.772  0.00  0.00     0.217 HD
ENDBRANCH   5  15
TORSDOF 5
ENDMDL
MODEL 4
REMARK VINA RESULT:      -5.1     22.077     25.336
REMARK  5 active torsions:
REMARK  status: ('A' for Active; 'I' for Inactive)
REMARK    1  A    between atoms: O_1  and  C_6 
REMARK    2  A    between atoms: O_2  and  C_9 
REMARK    3  A    between atoms: O_3  and  C_14 
REMARK    4  A    between atoms: C_5  and  C_11 
REMARK    5  A    between atoms: C_12  and  C_14 
ROOT
HETATM    1  C   UNK N   1      34.950  11.779  16.204  0.00  0.00    -0.033 A 
HETATM    2  C   UNK N   1      34.804  12.666  13.942  0.00  0.00     0.102 A 
HETATM    3  C   UNK N   1      35.081  12.832  15.301  0.00  0.00     0.051 A 
HETATM    4  C   UNK N   1      34.532  10.522  15.747  0.00  0.00     0.014 A 
HETATM    5  C   UNK N   1      34.381  11.392  13.483  0.00  0.00     0.099 A 
HETATM    6  C   UNK N   1      34.249  10.333  14.390  0.00  0.00     0.040 A 
ENDROOT
BRANCH   1   7
HETATM    7  C   UNK N   1      35.263  12.046  17.615  0.00  0.00     0.018 C 
HETATM    8  C   UNK N   1      35.438  11.102  18.541  0.00  0.00     0.082 C 
BRANCH   8   9
HETATM    9  C   UNK N   1      35.749  11.485  19.932  0.00  0.00     0.165 C 
HETATM   10  O   UNK N   1      36.054  10.636  20.757  0.00  0.00    -0.647 OA
BRANCH   9  11
HETATM   11  O   UNK N   1      35.698  12.779  20.298  0.00  0.00    -0.773 OA
HETATM   12  H   UNK N   1      35.996  13.037  21.147  0.00  0.00     0.167 HD
ENDBRANCH   9  11
ENDBRANCH   8   9
ENDBRANCH   1   7
BRANCH   2  13
HETATM   13  O   UNK N   1      34.960  13.748  13.137  0.00  0.00    -0.353 OA
HETATM   14  C   UNK N   1      36.111  14.490  13.010  0.00  0.00     0.210 C 
ENDBRANCH   2  13
BRANCH   5  15
HETATM   15  O   UNK N   1      34.101  11.173  12.186  0.00  0.00    -0.358 OA
HETATM   16  H   UNK N   1      34.595  11.609  11.519  0.00  0.00     0.217 HD
ENDBRANCH   5  15
TORSDOF 5
ENDMDL
MODEL 5
REMARK VINA RESULT:      -5.1     12.441     14.814
REMARK  5 active torsions:
REMARK  status: ('A' for Active; 'I' for Inactive)
REMARK    1  A    between atoms: O_1  and  C_6 
REMARK    2  A    between atoms: O_2  and  C_9 
REMARK    3  A    between atoms: O_3  and  C_14 
REMARK    4  A    between atoms: C_5  and  C_11 
REMARK    5  A    between atoms: C_12  and  C_14 
ROOT
HETATM    1  C   UNK N   1      32.871  17.431   6.988  0.00  0.00    -0.033 A 
HETATM    2  C   UNK N   1      30.760  17.133   5.815  0.00  0.00     0.102 A 
HETATM    3  C   UNK N   1      31.495  17.217   7.000  0.00  0.00     0.051 A 
HETATM    4  C   UNK N   1      33.541  17.566   5.765  0.00  0.00     0.014 A 
HETATM    5  C   UNK N   1      31.441  17.271   4.578  0.00  0.00     0.099 A 
HETATM    6  C   UNK N   1      32.825  17.486   4.566  0.00  0.00     0.040 A 
ENDROOT
BRANCH   1   7
HETATM    7  C   UNK N   1      33.562  17.505   8.283  0.00  0.00     0.018 C 
HETATM    8  C   UNK N   1      34.200  16.483   8.857  0.00  0.00     0.082 C 
BRANCH   8   9
HETATM    9  C   UNK N   1      34.862  16.670  10.164  0.00  0.00     0.165 C 
HETATM   10  O   UNK N   1      35.684  17.560  10.322  0.00  0.00    -0.647 OA
BRANCH   9  11
HETATM   11  O   UNK N   1      34.558  15.855  11.190  0.00  0.00    -0.773 OA
HETATM   12  H   UNK N   1      33.671  15.782  11.483  0.00  0.00     0.167 HD
ENDBRANCH   9  11
ENDBRANCH   8   9
ENDBRANCH   1   7
BRANCH   2  13
HETATM   13  O   UNK N   1      29.422  16.922   5.924  0.00  0.00    -0.353 OA
HETATM   14  C   UNK N   1      28.595  17.507   6.854  0.00  0.00     0.210 C 
ENDBRANCH   2  13
BRANCH   5  15
HETATM   15  O   UNK N   1      30.786  17.199   3.406  0.00  0.00    -0.358 OA
HETATM   16  H   UNK N   1      30.577  17.984   2.937  0.00  0.00     0.217 HD
ENDBRANCH   5  15
TORSDOF 5
ENDMDL
MODEL 6
REMARK VINA RESULT:      -5.0     17.076     18.126
REMARK  5 active torsions:
REMARK  status: ('A' for Active; 'I' for Inactive)
REMARK    1  A    between atoms: O_1  and  C_6 
REMARK    2  A    between atoms: O_2  and  C_9 
REMARK    3  A    between atoms: O_3  and  C_14 
REMARK    4  A    between atoms: C_5  and  C_11 
REMARK    5  A    between atoms: C_12  and  C_14 
ROOT
HETATM    1  C   UNK N   1      21.158  13.794   9.080  0.00  0.00    -0.033 A 
HETATM    2  C   UNK N   1      20.101  15.803   8.203  0.00  0.00     0.102 A 
HETATM    3  C   UNK N   1      20.595  15.054   9.273  0.00  0.00     0.051 A 
HETATM    4  C   UNK N   1      21.234  13.259   7.787  0.00  0.00     0.014 A 
HETATM    5  C   UNK N   1      20.180  15.258   6.894  0.00  0.00     0.099 A 
HETATM    6  C   UNK N   1      20.745  13.992   6.700  0.00  0.00     0.040 A 
ENDROOT
BRANCH   1   7
HETATM    7  C   UNK N   1      21.652  13.078  10.264  0.00  0.00     0.018 C 
HETATM    8  C   UNK N   1      22.929  12.749  10.470  0.00  0.00     0.082 C 
BRANCH   8   9
HETATM    9  C   UNK N   1      23.314  12.028  11.699  0.00  0.00     0.165 C 
HETATM   10  O   UNK N   1      24.488  11.936  12.023  0.00  0.00    -0.647 OA
BRANCH   9  11
HETATM   11  O   UNK N   1      22.365  11.466  12.470  0.00  0.00    -0.773 OA
HETATM   12  H   UNK N   1      21.757  12.008  12.933  0.00  0.00     0.167 HD
ENDBRANCH   9  11
ENDBRANCH   8   9
ENDBRANCH   1   7
BRANCH   2  13
HETATM   13  O   UNK N   1      19.570  17.021   8.486  0.00  0.00    -0.353 OA
HETATM   14  C   UNK N   1      18.352  17.241   9.084  0.00  0.00     0.210 C 
ENDBRANCH   2  13
BRANCH   5  15
HETATM   15  O   UNK N   1      19.720  15.934   5.826  0.00  0.00    -0.358 OA
HETATM   16  H   UNK N   1      19.281  15.477   5.136  0.00  0.00     0.217 HD
ENDBRANCH   5  15
TORSDOF 5
ENDMDL
MODEL 7
REMARK VINA RESULT:      -5.0     13.799     14.755
REMARK  5 active torsions:
REMARK  status: ('A' for Active; 'I' for Inactive)
REMARK    1  A    between atoms: O_1  and  C_6 
REMARK    2  A    between atoms: O_2  and  C_9 
REMARK    3  A    between atoms: O_3  and  C_14 
REMARK    4  A    between atoms: C_5  and  C_11 
REMARK    5  A    between atoms: C_12  and  C_14 
ROOT
HETATM    1  C   UNK N   1      30.586  17.691   8.260  0.00  0.00    -0.033 A 
HETATM    2  C   UNK N   1      29.113  16.706   6.592  0.00  0.00     0.102 A 
HETATM    3  C   UNK N   1      30.394  17.013   7.059  0.00  0.00     0.051 A 
HETATM    4  C   UNK N   1      29.476  18.080   9.023  0.00  0.00     0.014 A 
HETATM    5  C   UNK N   1      27.991  17.101   7.367  0.00  0.00     0.099 A 
HETATM    6  C   UNK N   1      28.185  17.783   8.575  0.00  0.00     0.040 A 
ENDROOT
BRANCH   1   7
HETATM    7  C   UNK N   1      31.969  17.971   8.673  0.00  0.00     0.018 C 
HETATM    8  C   UNK N   1      33.037  17.812   7.889  0.00  0.00     0.082 C 
BRANCH   8   9
HETATM    9  C   UNK N   1      34.383  18.124   8.408  0.00  0.00     0.165 C 
HETATM   10  O   UNK N   1      35.098  18.932   7.835  0.00  0.00    -0.647 OA
BRANCH   9  11
HETATM   11  O   UNK N   1      34.828  17.514   9.522  0.00  0.00    -0.773 OA
HETATM   12  H   UNK N   1      35.693  17.153   9.544  0.00  0.00     0.167 HD
ENDBRANCH   9  11
ENDBRANCH   8   9
ENDBRANCH   1   7
BRANCH   2  13
HETATM   13  O   UNK N   1      29.022  16.042   5.411  0.00  0.00    -0.353 OA
HETATM   14  C   UNK N   1      29.209  14.691   5.239  0.00  0.00     0.210 C 
ENDBRANCH   2  13
BRANCH   5  15
HETATM   15  O   UNK N   1      26.736  16.833   6.968  0.00  0.00    -0.358 OA
HETATM   16  H   UNK N   1      26.108  17.526   6.898  0.00  0.00     0.217 HD
ENDBRANCH   5  15
TORSDOF 5
ENDMDL
MODEL 8
REMARK VINA RESULT:      -5.0     14.272     16.052
REMARK  5 active torsions:
REMARK  status: ('A' for Active; 'I' for Inactive)
REMARK    1  A    between atoms: O_1  and  C_6 
REMARK    2  A    between atoms: O_2  and  C_9 
REMARK    3  A    between atoms: O_3  and  C_14 
REMARK    4  A    between atoms: C_5  and  C_11 
REMARK    5  A    between atoms: C_12  and  C_14 
ROOT
HETATM    1  C   UNK N   1      31.615  17.060   7.938  0.00  0.00    -0.033 A 
HETATM    2  C   UNK N   1      33.998  16.581   8.052  0.00  0.00     0.102 A 
HETATM    3  C   UNK N   1      32.781  16.866   8.675  0.00  0.00     0.051 A 
HETATM    4  C   UNK N   1      31.654  16.968   6.541  0.00  0.00     0.014 A 
HETATM    5  C   UNK N   1      34.035  16.488   6.636  0.00  0.00     0.099 A 
HETATM    6  C   UNK N   1      32.862  16.683   5.895  0.00  0.00     0.040 A 
ENDROOT
BRANCH   1   7
HETATM    7  C   UNK N   1      30.380  17.356   8.679  0.00  0.00     0.018 C 
HETATM    8  C   UNK N   1      29.186  17.543   8.112  0.00  0.00     0.082 C 
BRANCH   8   9
HETATM    9  C   UNK N   1      28.010  17.836   8.955  0.00  0.00     0.165 C 
HETATM   10  O   UNK N   1      27.580  16.998   9.734  0.00  0.00    -0.647 OA
BRANCH   9  11
HETATM   11  O   UNK N   1      27.405  19.034   8.866  0.00  0.00    -0.773 OA
HETATM   12  H   UNK N   1      26.517  19.089   8.574  0.00  0.00     0.167 HD
ENDBRANCH   9  11
ENDBRANCH   8   9
ENDBRANCH   1   7
BRANCH   2  13
HETATM   13  O   UNK N   1      35.083  16.408   8.851  0.00  0.00    -0.353 OA
HETATM   14  C   UNK N   1      35.096  16.543  10.219  0.00  0.00     0.210 C 
ENDBRANCH   2  13
BRANCH   5  15
HETATM   15  O   UNK N   1      35.177  16.216   5.982  0.00  0.00    -0.358 OA
HETATM   16  H   UNK N   1      35.414  15.327   5.802  0.00  0.00     0.217 HD
ENDBRANCH   5  15
TORSDOF 5
ENDMDL
MODEL 9
REMARK VINA RESULT:      -5.0     13.003     14.371
REMARK  5 active torsions:
REMARK  status: ('A' for Active; 'I' for Inactive)
REMARK    1  A    between atoms: O_1  and  C_6 
REMARK    2  A    between atoms: O_2  and  C_9 
REMARK    3  A    between atoms: O_3  and  C_14 
REMARK    4  A    between atoms: C_5  and  C_11 
REMARK    5  A    between atoms: C_12  and  C_14 
ROOT
HETATM    1  C   UNK N   1      31.025  17.461   7.686  0.00  0.00    -0.033 A 
HETATM    2  C   UNK N   1      28.600  17.276   7.611  0.00  0.00     0.102 A 
HETATM    3  C   UNK N   1      29.861  17.002   7.075  0.00  0.00     0.051 A 
HETATM    4  C   UNK N   1      30.939  18.215   8.864  0.00  0.00     0.014 A 
HETATM    5  C   UNK N   1      28.516  18.040   8.804  0.00  0.00     0.099 A 
HETATM    6  C   UNK N   1      29.687  18.501   9.418  0.00  0.00     0.040 A 
ENDROOT
BRANCH   1   7
HETATM    7  C   UNK N   1      32.307  17.124   7.052  0.00  0.00     0.018 C 
HETATM    8  C   UNK N   1      32.429  16.542   5.857  0.00  0.00     0.082 C 
BRANCH   8   9
HETATM    9  C   UNK N   1      33.770  16.248   5.314  0.00  0.00     0.165 C 
HETATM   10  O   UNK N   1      33.895  15.731   4.215  0.00  0.00    -0.647 OA
BRANCH   9  11
HETATM   11  O   UNK N   1      34.864  16.552   6.035  0.00  0.00    -0.773 OA
HETATM   12  H   UNK N   1      34.773  16.954   6.877  0.00  0.00     0.167 HD
ENDBRANCH   9  11
ENDBRANCH   8   9
ENDBRANCH   1   7
BRANCH   2  13
HETATM   13  O   UNK N   1      27.520  16.788   6.947  0.00  0.00    -0.353 OA
HETATM   14  C   UNK N   1      27.015  17.286   5.769  0.00  0.00     0.210 C 
ENDBRANCH   2  13
BRANCH   5  15
HETATM   15  O   UNK N   1      27.330  18.335   9.364  0.00  0.00    -0.358 OA
HETATM   16  H   UNK N   1      26.872  19.112   9.110  0.00  0.00     0.217 HD
ENDBRANCH   5  15
TORSDOF 5
ENDMDL
