MODEL 1
REMARK VINA RESULT:      -6.1      0.000      0.000
REMARK  8 active torsions:
REMARK  status: ('A' for Active; 'I' for Inactive)
REMARK    1  A    between atoms: C_4  and  C_3 
REMARK    2  A    between atoms: C_5  and  C_4 
REMARK    3  A    between atoms: C_6  and  C_5 
REMARK    4  A    between atoms: C_9  and  C_6 
REMARK    5  A    between atoms: C_11  and  C_9 
REMARK    6  A    between atoms: N_14  and  C_10 
REMARK    7  A    between atoms: N_15  and  C_12 
REMARK    8  A    between atoms: O_16  and  C_13 
ROOT
HETATM    1  C   UNK N   1      32.339  17.931   8.321  0.00  0.00     0.046 A 
HETATM    2  C   UNK N   1      33.828  17.520   6.471  0.00  0.00     0.075 A 
HETATM    3  C   UNK N   1      33.632  17.912   7.799  0.00  0.00     0.105 A 
HETATM    4  C   UNK N   1      31.231  17.557   7.550  0.00  0.00    -0.016 A 
HETATM    5  C   UNK N   1      32.748  17.145   5.658  0.00  0.00     0.138 A 
HETATM    6  C   UNK N   1      31.440  17.156   6.205  0.00  0.00     0.105 A 
ENDROOT
BRANCH   4   7
HETATM    7  C   UNK N   1      29.860  17.512   8.219  0.00  0.00     0.017 C 
HETATM    8  C   UNK N   1      29.864  16.868   9.602  0.00  0.00     0.015 C 
BRANCH   7   9
HETATM    9  C   UNK N   1      29.094  18.820   8.274  0.00  0.00     0.009 C 
BRANCH   9  10
HETATM   10  C   UNK N   1      28.162  18.844   7.073  0.00  0.00     0.001 C 
BRANCH  10  11
HETATM   11  C   UNK N   1      27.477  20.180   6.921  0.00  0.00    -0.000 C 
BRANCH  11  12
HETATM   12  C   UNK N   1      27.424  20.538   5.453  0.00  0.00    -0.005 C 
HETATM   13  C   UNK N   1      28.151  19.481   4.654  0.00  0.00     0.005 C 
ENDBRANCH  11  12
ENDBRANCH  10  11
ENDBRANCH   9  10
ENDBRANCH   7   9
ENDBRANCH   4   7
BRANCH   6  14
HETATM   14  O   UNK N   1      30.400  16.778   5.443  0.00  0.00    -0.358 OA
HETATM   15  H   UNK N   1      29.787  16.148   5.765  0.00  0.00     0.217 HD
ENDBRANCH   6  14
BRANCH   3  16
HETATM   16  N   UNK N   1      34.740  18.260   8.623  0.00  0.00    -0.116 N 
HETATM   17  O   UNK N   1      35.090  17.531   9.502  0.00  0.00    -0.532 OA
HETATM   18  O   UNK N   1      35.310  19.298   8.458  0.00  0.00    -0.532 OA
ENDBRANCH   3  16
BRANCH   5  19
HETATM   19  N   UNK N   1      33.001  16.747   4.305  0.00  0.00    -0.113 N 
HETATM   20  O   UNK N   1      33.733  15.836   4.060  0.00  0.00    -0.532 OA
HETATM   21  O   UNK N   1      32.479  17.331   3.404  0.00  0.00    -0.532 OA
ENDBRANCH   5  19
TORSDOF 8
ENDMDL
MODEL 2
REMARK VINA RESULT:      -6.0     11.360     13.297
REMARK  8 active torsions:
REMARK  status: ('A' for Active; 'I' for Inactive)
REMARK    1  A    between atoms: C_4  and  C_3 
REMARK    2  A    between atoms: C_5  and  C_4 
REMARK    3  A    between atoms: C_6  and  C_5 
REMARK    4  A    between atoms: C_9  and  C_6 
REMARK    5  A    between atoms: C_11  and  C_9 
REMARK    6  A    between atoms: N_14  and  C_10 
REMARK    7  A    between atoms: N_15  and  C_12 
REMARK    8  A    between atoms: O_16  and  C_13 
ROOT
HETATM    1  C   UNK N   1      29.279  23.408  -3.937  0.00  0.00     0.046 A 
HETATM    2  C   UNK N   1      30.518  21.444  -4.581  0.00  0.00     0.075 A 
HETATM    3  C   UNK N   1      30.238  22.440  -3.640  0.00  0.00     0.105 A 
HETATM    4  C   UNK N   1      28.580  23.401  -5.152  0.00  0.00    -0.016 A 
HETATM    5  C   UNK N   1      29.851  21.401  -5.814  0.00  0.00     0.138 A 
HETATM    6  C   UNK N   1      28.868  22.384  -6.098  0.00  0.00     0.105 A 
ENDROOT
BRANCH   4   7
HETATM    7  C   UNK N   1      27.480  24.436  -5.365  0.00  0.00     0.017 C 
HETATM    8  C   UNK N   1      26.073  23.911  -5.093  0.00  0.00     0.015 C 
BRANCH   7   9
HETATM    9  C   UNK N   1      27.663  25.769  -4.666  0.00  0.00     0.009 C 
BRANCH   9  10
HETATM   10  C   UNK N   1      26.549  25.895  -3.641  0.00  0.00     0.001 C 
BRANCH  10  11
HETATM   11  C   UNK N   1      25.981  27.292  -3.597  0.00  0.00    -0.000 C 
BRANCH  11  12
HETATM   12  C   UNK N   1      25.858  27.815  -5.011  0.00  0.00    -0.005 C 
HETATM   13  C   UNK N   1      24.610  27.246  -5.648  0.00  0.00     0.005 C 
ENDBRANCH  11  12
ENDBRANCH  10  11
ENDBRANCH   9  10
ENDBRANCH   7   9
ENDBRANCH   4   7
BRANCH   6  14
HETATM   14  O   UNK N   1      28.207  22.341  -7.267  0.00  0.00    -0.358 OA
HETATM   15  H   UNK N   1      28.099  23.121  -7.774  0.00  0.00     0.217 HD
ENDBRANCH   6  14
BRANCH   3  16
HETATM   16  N   UNK N   1      30.899  22.452  -2.379  0.00  0.00    -0.116 N 
HETATM   17  O   UNK N   1      30.435  23.057  -1.461  0.00  0.00    -0.532 OA
HETATM   18  O   UNK N   1      31.940  21.880  -2.241  0.00  0.00    -0.532 OA
ENDBRANCH   3  16
BRANCH   5  19
HETATM   19  N   UNK N   1      30.170  20.358  -6.743  0.00  0.00    -0.113 N 
HETATM   20  O   UNK N   1      29.308  19.738  -7.290  0.00  0.00    -0.532 OA
HETATM   21  O   UNK N   1      31.311  20.096  -6.977  0.00  0.00    -0.532 OA
ENDBRANCH   5  19
TORSDOF 8
ENDMDL
MODEL 3
REMARK VINA RESULT:      -6.0      1.061      3.709
REMARK  8 active torsions:
REMARK  status: ('A' for Active; 'I' for Inactive)
REMARK    1  A    between atoms: C_4  and  C_3 
REMARK    2  A    between atoms: C_5  and  C_4 
REMARK    3  A    between atoms: C_6  and  C_5 
REMARK    4  A    between atoms: C_9  and  C_6 
REMARK    5  A    between atoms: C_11  and  C_9 
REMARK    6  A    between atoms: N_14  and  C_10 
REMARK    7  A    between atoms: N_15  and  C_12 
REMARK    8  A    between atoms: O_16  and  C_13 
ROOT
HETATM    1  C   UNK N   1      31.337  16.957   5.810  0.00  0.00     0.046 A 
HETATM    2  C   UNK N   1      33.653  17.436   6.267  0.00  0.00     0.075 A 
HETATM    3  C   UNK N   1      32.656  17.049   5.367  0.00  0.00     0.105 A 
HETATM    4  C   UNK N   1      30.984  17.255   7.132  0.00  0.00    -0.016 A 
HETATM    5  C   UNK N   1      33.350  17.736   7.604  0.00  0.00     0.138 A 
HETATM    6  C   UNK N   1      32.002  17.652   8.037  0.00  0.00     0.105 A 
ENDROOT
BRANCH   4   7
HETATM    7  C   UNK N   1      29.508  17.224   7.517  0.00  0.00     0.017 C 
HETATM    8  C   UNK N   1      29.012  18.503   8.185  0.00  0.00     0.015 C 
BRANCH   7   9
HETATM    9  C   UNK N   1      28.535  16.817   6.427  0.00  0.00     0.009 C 
BRANCH   9  10
HETATM   10  C   UNK N   1      27.749  18.059   6.042  0.00  0.00     0.001 C 
BRANCH  10  11
HETATM   11  C   UNK N   1      27.967  18.436   4.597  0.00  0.00    -0.000 C 
BRANCH  11  12
HETATM   12  C   UNK N   1      27.856  19.939   4.461  0.00  0.00    -0.005 C 
HETATM   13  C   UNK N   1      27.216  20.507   5.707  0.00  0.00     0.005 C 
ENDBRANCH  11  12
ENDBRANCH  10  11
ENDBRANCH   9  10
ENDBRANCH   7   9
ENDBRANCH   4   7
BRANCH   6  14
HETATM   14  O   UNK N   1      31.695  17.958   9.309  0.00  0.00    -0.358 OA
HETATM   15  H   UNK N   1      32.282  18.478   9.822  0.00  0.00     0.217 HD
ENDBRANCH   6  14
BRANCH   3  16
HETATM   16  N   UNK N   1      32.974  16.778   4.006  0.00  0.00    -0.116 N 
HETATM   17  O   UNK N   1      32.475  17.420   3.132  0.00  0.00    -0.532 OA
HETATM   18  O   UNK N   1      33.720  15.886   3.729  0.00  0.00    -0.532 OA
ENDBRANCH   3  16
BRANCH   5  19
HETATM   19  N   UNK N   1      34.407  18.134   8.486  0.00  0.00    -0.113 N 
HETATM   20  O   UNK N   1      35.045  19.121   8.273  0.00  0.00    -0.532 OA
HETATM   21  O   UNK N   1      34.661  17.473   9.448  0.00  0.00    -0.532 OA
ENDBRANCH   5  19
TORSDOF 8
ENDMDL
MODEL 4
REMARK VINA RESULT:      -5.9      6.880      9.386
REMARK  8 active torsions:
REMARK  status: ('A' for Active; 'I' for Inactive)
REMARK    1  A    between atoms: C_4  and  C_3 
REMARK    2  A    between atoms: C_5  and  C_4 
REMARK    3  A    between atoms: C_6  and  C_5 
REMARK    4  A    between atoms: C_9  and  C_6 
REMARK    5  A    between atoms: C_11  and  C_9 
REMARK    6  A    between atoms: N_14  and  C_10 
REMARK    7  A    between atoms: N_15  and  C_12 
REMARK    8  A    between atoms: O_16  and  C_13 
ROOT
HETATM    1  C   UNK N   1      24.466  18.365   4.795  0.00  0.00     0.046 A 
HETATM    2  C   UNK N   1      22.189  18.880   4.199  0.00  0.00     0.075 A 
HETATM    3  C   UNK N   1      23.099  18.141   4.961  0.00  0.00     0.105 A 
HETATM    4  C   UNK N   1      24.949  19.320   3.892  0.00  0.00    -0.016 A 
HETATM    5  C   UNK N   1      22.625  19.840   3.275  0.00  0.00     0.138 A 
HETATM    6  C   UNK N   1      24.017  20.068   3.127  0.00  0.00     0.105 A 
ENDROOT
BRANCH   4   7
HETATM    7  C   UNK N   1      26.452  19.575   3.836  0.00  0.00     0.017 C 
HETATM    8  C   UNK N   1      26.927  20.696   4.755  0.00  0.00     0.015 C 
BRANCH   7   9
HETATM    9  C   UNK N   1      27.349  18.364   4.015  0.00  0.00     0.009 C 
BRANCH   9  10
HETATM   10  C   UNK N   1      28.533  18.805   4.859  0.00  0.00     0.001 C 
BRANCH  10  11
HETATM   11  C   UNK N   1      28.986  17.717   5.802  0.00  0.00    -0.000 C 
BRANCH  11  12
HETATM   12  C   UNK N   1      28.051  17.678   6.990  0.00  0.00    -0.005 C 
HETATM   13  C   UNK N   1      28.195  18.959   7.781  0.00  0.00     0.005 C 
ENDBRANCH  11  12
ENDBRANCH  10  11
ENDBRANCH   9  10
ENDBRANCH   7   9
ENDBRANCH   4   7
BRANCH   6  14
HETATM   14  O   UNK N   1      24.447  21.001   2.261  0.00  0.00    -0.358 OA
HETATM   15  H   UNK N   1      23.879  21.311   1.584  0.00  0.00     0.217 HD
ENDBRANCH   6  14
BRANCH   3  16
HETATM   16  N   UNK N   1      22.641  17.192   5.918  0.00  0.00    -0.116 N 
HETATM   17  O   UNK N   1      21.762  17.474   6.674  0.00  0.00    -0.532 OA
HETATM   18  O   UNK N   1      23.155  16.115   5.990  0.00  0.00    -0.532 OA
ENDBRANCH   3  16
BRANCH   5  19
HETATM   19  N   UNK N   1      21.653  20.575   2.522  0.00  0.00    -0.113 N 
HETATM   20  O   UNK N   1      20.704  21.066   3.057  0.00  0.00    -0.532 OA
HETATM   21  O   UNK N   1      21.782  20.699   1.341  0.00  0.00    -0.532 OA
ENDBRANCH   5  19
TORSDOF 8
ENDMDL
MODEL 5
REMARK VINA RESULT:      -5.9      2.531      3.590
REMARK  8 active torsions:
REMARK  status: ('A' for Active; 'I' for Inactive)
REMARK    1  A    between atoms: C_4  and  C_3 
REMARK    2  A    between atoms: C_5  and  C_4 
REMARK    3  A    between atoms: C_6  and  C_5 
REMARK    4  A    between atoms: C_9  and  C_6 
REMARK    5  A    between atoms: C_11  and  C_9 
REMARK    6  A    between atoms: N_14  and  C_10 
REMARK    7  A    between atoms: N_15  and  C_12 
REMARK    8  A    between atoms: O_16  and  C_13 
ROOT
HETATM    1  C   UNK N   1      29.728  17.186   7.405  0.00  0.00     0.046 A 
HETATM    2  C   UNK N   1      31.825  17.780   8.433  0.00  0.00     0.075 A 
HETATM    3  C   UNK N   1      30.441  17.610   8.527  0.00  0.00     0.105 A 
HETATM    4  C   UNK N   1      30.368  16.916   6.188  0.00  0.00    -0.016 A 
HETATM    5  C   UNK N   1      32.509  17.530   7.234  0.00  0.00     0.138 A 
HETATM    6  C   UNK N   1      31.774  17.086   6.105  0.00  0.00     0.105 A 
ENDROOT
BRANCH   4   7
HETATM    7  C   UNK N   1      29.535  16.365   5.034  0.00  0.00     0.017 C 
HETATM    8  C   UNK N   1      28.311  15.568   5.476  0.00  0.00     0.015 C 
BRANCH   7   9
HETATM    9  C   UNK N   1      29.129  17.358   3.962  0.00  0.00     0.009 C 
BRANCH   9  10
HETATM   10  C   UNK N   1      27.852  18.032   4.437  0.00  0.00     0.001 C 
BRANCH  10  11
HETATM   11  C   UNK N   1      28.039  19.517   4.629  0.00  0.00    -0.000 C 
BRANCH  11  12
HETATM   12  C   UNK N   1      27.623  19.885   6.035  0.00  0.00    -0.005 C 
HETATM   13  C   UNK N   1      27.214  21.340   6.071  0.00  0.00     0.005 C 
ENDBRANCH  11  12
ENDBRANCH  10  11
ENDBRANCH   9  10
ENDBRANCH   7   9
ENDBRANCH   4   7
BRANCH   6  14
HETATM   14  O   UNK N   1      32.420  16.822   4.956  0.00  0.00    -0.358 OA
HETATM   15  H   UNK N   1      33.259  17.204   4.791  0.00  0.00     0.217 HD
ENDBRANCH   6  14
BRANCH   3  16
HETATM   16  N   UNK N   1      29.765  17.836   9.759  0.00  0.00    -0.116 N 
HETATM   17  O   UNK N   1      29.700  18.936  10.218  0.00  0.00    -0.532 OA
HETATM   18  O   UNK N   1      29.282  16.920  10.358  0.00  0.00    -0.532 OA
ENDBRANCH   3  16
BRANCH   5  19
HETATM   19  N   UNK N   1      33.929  17.714   7.190  0.00  0.00    -0.113 N 
HETATM   20  O   UNK N   1      34.626  16.966   6.572  0.00  0.00    -0.532 OA
HETATM   21  O   UNK N   1      34.431  18.622   7.779  0.00  0.00    -0.532 OA
ENDBRANCH   5  19
TORSDOF 8
ENDMDL
MODEL 6
REMARK VINA RESULT:      -5.8      2.365      4.571
REMARK  8 active torsions:
REMARK  status: ('A' for Active; 'I' for Inactive)
REMARK    1  A    between atoms: C_4  and  C_3 
REMARK    2  A    between atoms: C_5  and  C_4 
REMARK    3  A    between atoms: C_6  and  C_5 
REMARK    4  A    between atoms: C_9  and  C_6 
REMARK    5  A    between atoms: C_11  and  C_9 
REMARK    6  A    between atoms: N_14  and  C_10 
REMARK    7  A    between atoms: N_15  and  C_12 
REMARK    8  A    between atoms: O_16  and  C_13 
ROOT
HETATM    1  C   UNK N   1      31.057  17.155   6.622  0.00  0.00     0.046 A 
HETATM    2  C   UNK N   1      32.172  17.991   8.588  0.00  0.00     0.075 A 
HETATM    3  C   UNK N   1      30.990  17.645   7.926  0.00  0.00     0.105 A 
HETATM    4  C   UNK N   1      32.282  16.990   5.962  0.00  0.00    -0.016 A 
HETATM    5  C   UNK N   1      33.421  17.852   7.966  0.00  0.00     0.138 A 
HETATM    6  C   UNK N   1      33.476  17.339   6.644  0.00  0.00     0.105 A 
ENDROOT
BRANCH   4   7
HETATM    7  C   UNK N   1      32.282  16.359   4.573  0.00  0.00     0.017 C 
HETATM    8  C   UNK N   1      32.098  14.845   4.578  0.00  0.00     0.015 C 
BRANCH   7   9
HETATM    9  C   UNK N   1      31.345  16.977   3.553  0.00  0.00     0.009 C 
BRANCH   9  10
HETATM   10  C   UNK N   1      30.308  15.923   3.201  0.00  0.00     0.001 C 
BRANCH  10  11
HETATM   11  C   UNK N   1      28.940  16.526   2.998  0.00  0.00    -0.000 C 
BRANCH  11  12
HETATM   12  C   UNK N   1      28.313  16.784   4.350  0.00  0.00    -0.005 C 
HETATM   13  C   UNK N   1      28.061  18.266   4.510  0.00  0.00     0.005 C 
ENDBRANCH  11  12
ENDBRANCH  10  11
ENDBRANCH   9  10
ENDBRANCH   7   9
ENDBRANCH   4   7
BRANCH   6  14
HETATM   14  O   UNK N   1      34.668  17.180   6.045  0.00  0.00    -0.358 OA
HETATM   15  H   UNK N   1      35.373  16.766   6.503  0.00  0.00     0.217 HD
ENDBRANCH   6  14
BRANCH   3  16
HETATM   16  N   UNK N   1      29.731  17.762   8.582  0.00  0.00    -0.116 N 
HETATM   17  O   UNK N   1      28.745  17.322   8.075  0.00  0.00    -0.532 OA
HETATM   18  O   UNK N   1      29.651  18.328   9.632  0.00  0.00    -0.532 OA
ENDBRANCH   3  16
BRANCH   5  19
HETATM   19  N   UNK N   1      34.604  18.215   8.688  0.00  0.00    -0.113 N 
HETATM   20  O   UNK N   1      35.251  19.166   8.367  0.00  0.00    -0.532 OA
HETATM   21  O   UNK N   1      34.957  17.561   9.622  0.00  0.00    -0.532 OA
ENDBRANCH   5  19
TORSDOF 8
ENDMDL
MODEL 7
REMARK VINA RESULT:      -5.8     10.010     11.829
REMARK  8 active torsions:
REMARK  status: ('A' for Active; 'I' for Inactive)
REMARK    1  A    between atoms: C_4  and  C_3 
REMARK    2  A    between atoms: C_5  and  C_4 
REMARK    3  A    between atoms: C_6  and  C_5 
REMARK    4  A    between atoms: C_9  and  C_6 
REMARK    5  A    between atoms: C_11  and  C_9 
REMARK    6  A    between atoms: N_14  and  C_10 
REMARK    7  A    between atoms: N_15  and  C_12 
REMARK    8  A    between atoms: O_16  and  C_13 
ROOT
HETATM    1  C   UNK N   1      21.450  15.179   7.164  0.00  0.00     0.046 A 
HETATM    2  C   UNK N   1      20.012  15.813   8.990  0.00  0.00     0.075 A 
HETATM    3  C   UNK N   1      20.709  14.823   8.291  0.00  0.00     0.105 A 
HETATM    4  C   UNK N   1      21.521  16.506   6.721  0.00  0.00    -0.016 A 
HETATM    5  C   UNK N   1      20.046  17.154   8.579  0.00  0.00     0.138 A 
HETATM    6  C   UNK N   1      20.814  17.504   7.440  0.00  0.00     0.105 A 
ENDROOT
BRANCH   4   7
HETATM    7  C   UNK N   1      22.428  16.830   5.537  0.00  0.00     0.017 C 
HETATM    8  C   UNK N   1      23.816  16.204   5.628  0.00  0.00     0.015 C 
BRANCH   7   9
HETATM    9  C   UNK N   1      21.851  16.579   4.157  0.00  0.00     0.009 C 
BRANCH   9  10
HETATM   10  C   UNK N   1      21.874  17.904   3.414  0.00  0.00     0.001 C 
BRANCH  10  11
HETATM   11  C   UNK N   1      20.511  18.551   3.377  0.00  0.00    -0.000 C 
BRANCH  11  12
HETATM   12  C   UNK N   1      20.675  20.047   3.528  0.00  0.00    -0.005 C 
HETATM   13  C   UNK N   1      20.858  20.670   2.163  0.00  0.00     0.005 C 
ENDBRANCH  11  12
ENDBRANCH  10  11
ENDBRANCH   9  10
ENDBRANCH   7   9
ENDBRANCH   4   7
BRANCH   6  14
HETATM   14  O   UNK N   1      20.872  18.788   7.049  0.00  0.00    -0.358 OA
HETATM   15  H   UNK N   1      21.303  19.423   7.586  0.00  0.00     0.217 HD
ENDBRANCH   6  14
BRANCH   3  16
HETATM   16  N   UNK N   1      20.691  13.472   8.738  0.00  0.00    -0.116 N 
HETATM   17  O   UNK N   1      20.359  13.210   9.854  0.00  0.00    -0.532 OA
HETATM   18  O   UNK N   1      21.039  12.592   8.006  0.00  0.00    -0.532 OA
ENDBRANCH   3  16
BRANCH   5  19
HETATM   19  N   UNK N   1      19.318  18.132   9.332  0.00  0.00    -0.113 N 
HETATM   20  O   UNK N   1      19.860  19.109   9.755  0.00  0.00    -0.532 OA
HETATM   21  O   UNK N   1      18.154  17.974   9.547  0.00  0.00    -0.532 OA
ENDBRANCH   5  19
TORSDOF 8
ENDMDL
MODEL 8
REMARK VINA RESULT:      -5.8     11.457     13.983
REMARK  8 active torsions:
REMARK  status: ('A' for Active; 'I' for Inactive)
REMARK    1  A    between atoms: C_4  and  C_3 
REMARK    2  A    between atoms: C_5  and  C_4 
REMARK    3  A    between atoms: C_6  and  C_5 
REMARK    4  A    between atoms: C_9  and  C_6 
REMARK    5  A    between atoms: C_11  and  C_9 
REMARK    6  A    between atoms: N_14  and  C_10 
REMARK    7  A    between atoms: N_15  and  C_12 
REMARK    8  A    between atoms: O_16  and  C_13 
ROOT
HETATM    1  C   UNK N   1      28.940  22.457  -6.229  0.00  0.00     0.046 A 
HETATM    2  C   UNK N   1      30.379  21.434  -4.588  0.00  0.00     0.075 A 
HETATM    3  C   UNK N   1      29.761  21.397  -5.842  0.00  0.00     0.105 A 
HETATM    4  C   UNK N   1      28.728  23.563  -5.396  0.00  0.00    -0.016 A 
HETATM    5  C   UNK N   1      30.188  22.517  -3.716  0.00  0.00     0.138 A 
HETATM    6  C   UNK N   1      29.362  23.593  -4.128  0.00  0.00     0.105 A 
ENDROOT
BRANCH   4   7
HETATM    7  C   UNK N   1      27.894  24.725  -5.928  0.00  0.00     0.017 C 
HETATM    8  C   UNK N   1      28.172  25.073  -7.387  0.00  0.00     0.015 C 
BRANCH   7   9
HETATM    9  C   UNK N   1      26.396  24.635  -5.709  0.00  0.00     0.009 C 
BRANCH   9  10
HETATM   10  C   UNK N   1      25.755  25.731  -6.544  0.00  0.00     0.001 C 
BRANCH  10  11
HETATM   11  C   UNK N   1      24.918  26.663  -5.701  0.00  0.00    -0.000 C 
BRANCH  11  12
HETATM   12  C   UNK N   1      25.797  27.781  -5.188  0.00  0.00    -0.005 C 
HETATM   13  C   UNK N   1      25.708  27.835  -3.680  0.00  0.00     0.005 C 
ENDBRANCH  11  12
ENDBRANCH  10  11
ENDBRANCH   9  10
ENDBRANCH   7   9
ENDBRANCH   4   7
BRANCH   6  14
HETATM   14  O   UNK N   1      29.189  24.646  -3.311  0.00  0.00    -0.358 OA
HETATM   15  H   UNK N   1      28.455  24.674  -2.730  0.00  0.00     0.217 HD
ENDBRANCH   6  14
BRANCH   3  16
HETATM   16  N   UNK N   1      29.989  20.308  -6.730  0.00  0.00    -0.116 N 
HETATM   17  O   UNK N   1      29.101  19.887  -7.407  0.00  0.00    -0.532 OA
HETATM   18  O   UNK N   1      31.064  19.788  -6.780  0.00  0.00    -0.532 OA
ENDBRANCH   3  16
BRANCH   5  19
HETATM   19  N   UNK N   1      30.847  22.510  -2.443  0.00  0.00    -0.113 N 
HETATM   20  O   UNK N   1      31.930  22.023  -2.315  0.00  0.00    -0.532 OA
HETATM   21  O   UNK N   1      30.311  22.993  -1.492  0.00  0.00    -0.532 OA
ENDBRANCH   5  19
TORSDOF 8
ENDMDL
MODEL 9
REMARK VINA RESULT:      -5.7      2.643      5.563
REMARK  8 active torsions:
REMARK  status: ('A' for Active; 'I' for Inactive)
REMARK    1  A    between atoms: C_4  and  C_3 
REMARK    2  A    between atoms: C_5  and  C_4 
REMARK    3  A    between atoms: C_6  and  C_5 
REMARK    4  A    between atoms: C_9  and  C_6 
REMARK    5  A    between atoms: C_11  and  C_9 
REMARK    6  A    between atoms: N_14  and  C_10 
REMARK    7  A    between atoms: N_15  and  C_12 
REMARK    8  A    between atoms: O_16  and  C_13 
ROOT
HETATM    1  C   UNK N   1      31.016  17.229   6.771  0.00  0.00     0.046 A 
HETATM    2  C   UNK N   1      32.232  18.038   8.688  0.00  0.00     0.075 A 
HETATM    3  C   UNK N   1      31.016  17.704   8.083  0.00  0.00     0.105 A 
HETATM    4  C   UNK N   1      32.205  17.069   6.048  0.00  0.00    -0.016 A 
HETATM    5  C   UNK N   1      33.447  17.903   8.001  0.00  0.00     0.138 A 
HETATM    6  C   UNK N   1      33.434  17.406   6.673  0.00  0.00     0.105 A 
ENDROOT
BRANCH   4   7
HETATM    7  C   UNK N   1      32.132  16.455   4.653  0.00  0.00     0.017 C 
HETATM    8  C   UNK N   1      32.592  17.390   3.538  0.00  0.00     0.015 C 
BRANCH   7   9
HETATM    9  C   UNK N   1      32.790  15.100   4.477  0.00  0.00     0.009 C 
BRANCH   9  10
HETATM   10  C   UNK N   1      31.842  14.064   5.058  0.00  0.00     0.001 C 
BRANCH  10  11
HETATM   11  C   UNK N   1      32.575  13.029   5.877  0.00  0.00    -0.000 C 
BRANCH  11  12
HETATM   12  C   UNK N   1      33.539  13.733   6.805  0.00  0.00    -0.005 C 
HETATM   13  C   UNK N   1      32.847  14.023   8.118  0.00  0.00     0.005 C 
ENDBRANCH  11  12
ENDBRANCH  10  11
ENDBRANCH   9  10
ENDBRANCH   7   9
ENDBRANCH   4   7
BRANCH   6  14
HETATM   14  O   UNK N   1      34.593  17.251   6.012  0.00  0.00    -0.358 OA
HETATM   15  H   UNK N   1      35.400  17.200   6.484  0.00  0.00     0.217 HD
ENDBRANCH   6  14
BRANCH   3  16
HETATM   16  N   UNK N   1      29.793  17.816   8.803  0.00  0.00    -0.116 N 
HETATM   17  O   UNK N   1      28.802  17.293   8.392  0.00  0.00    -0.532 OA
HETATM   18  O   UNK N   1      29.745  18.459   9.809  0.00  0.00    -0.532 OA
ENDBRANCH   3  16
BRANCH   5  19
HETATM   19  N   UNK N   1      34.667  18.254   8.667  0.00  0.00    -0.113 N 
HETATM   20  O   UNK N   1      35.109  17.568   9.539  0.00  0.00    -0.532 OA
HETATM   21  O   UNK N   1      35.253  19.246   8.354  0.00  0.00    -0.532 OA
ENDBRANCH   5  19
TORSDOF 8
ENDMDL
