MODEL 1
REMARK VINA RESULT:      -6.9      0.000      0.000
REMARK  17 active torsions:
REMARK  status: ('A' for Active; 'I' for Inactive)
REMARK    1  A    between atoms: C_15  and  C_9 
REMARK    2  A    between atoms: C_17  and  C_9 
REMARK    3  A    between atoms: C_16  and  C_10 
REMARK    4  A    between atoms: C_14  and  C_11 
REMARK    5  A    between atoms: O_35  and  C_11 
REMARK    6  A    between atoms: C_18  and  C_12 
REMARK    7  A    between atoms: C_19  and  C_13 
REMARK    8  A    between atoms: N_23  and  C_13 
REMARK    9  A    between atoms: C_16  and  C_15 
REMARK   10  A    between atoms: C_15  and  N_25 
REMARK   11  A    between atoms: O_31  and  C_17 
REMARK   12  A    between atoms: C_20  and  C_18 
REMARK   13  A    between atoms: C_18  and  N_27 
REMARK   14  A    between atoms: C_19  and  O_32 
REMARK   15  A    between atoms: C_20  and  O_33 
REMARK   16  A    between atoms: C_21  and  O_34 
REMARK   17  A    between atoms: O_35  and  C_21 
ROOT
HETATM    1  C   UNK N   1      35.183  13.722  10.880  0.00  0.00     0.135 C 
HETATM    2  N   UNK N   1      34.967  13.391   9.645  0.00  0.00    -0.361 N 
ATOM      3  HN  UNK N   1      35.751  13.018   9.110  1.00  0.00     0.162 HD
ENDROOT
BRANCH   1   4
HETATM    4  C   UNK N   1      36.527  13.443  11.532  0.00  0.00     0.163 C 
BRANCH   4   5
HETATM    5  C   UNK N   1      37.439  12.490  10.724  0.00  0.00     0.008 C 
HETATM    6  C   UNK N   1      38.808  13.114  10.478  0.00  0.00     0.012 C 
HETATM    7  C   UNK N   1      37.662  11.185  11.470  0.00  0.00     0.012 C 
ENDBRANCH   4   5
BRANCH   4   8
HETATM    8  N   UNK N   1      36.323  12.952  12.892  0.00  0.00    -0.338 N 
HETATM    9  C   UNK N   1      36.471  13.649  13.976  0.00  0.00     0.259 C 
ATOM     10  HN  UNK N   1      36.041  11.978  12.999  1.00  0.00     0.164 HD
BRANCH   9  11
HETATM   11  O   UNK N   1      36.857  14.940  13.923  0.00  0.00    -0.327 OA
HETATM   12  H   UNK N   1      37.517  15.463  14.335  0.00  0.00     0.221 HD
ENDBRANCH   9  11
BRANCH   9  13
HETATM   13  O   UNK N   1      36.285  13.043  15.172  0.00  0.00    -0.312 OA
BRANCH  13  14
HETATM   14  C   UNK N   1      35.109  13.180  15.878  0.00  0.00     0.218 C 
BRANCH  14  15
HETATM   15  C   UNK N   1      35.211  12.578  17.244  0.00  0.00    -0.034 A 
HETATM   16  C   UNK N   1      35.338  11.191  17.419  0.00  0.00     0.009 A 
HETATM   17  C   UNK N   1      35.394  10.647  18.705  0.00  0.00     0.001 A 
HETATM   18  C   UNK N   1      35.326  11.484  19.823  0.00  0.00     0.000 A 
HETATM   19  C   UNK N   1      35.202  12.866  19.654  0.00  0.00     0.001 A 
HETATM   20  C   UNK N   1      35.140  13.411  18.367  0.00  0.00     0.009 A 
ENDBRANCH  14  15
ENDBRANCH  13  14
ENDBRANCH   9  13
ENDBRANCH   4   8
ENDBRANCH   1   4
BRANCH   1  21
HETATM   21  O   UNK N   1      34.203  14.278  11.623  0.00  0.00    -0.348 OA
HETATM   22  H   UNK N   1      33.889  14.360  12.502  0.00  0.00     0.219 HD
ENDBRANCH   1  21
BRANCH   2  23
HETATM   23  C   UNK N   1      33.685  13.515   8.973  0.00  0.00     0.153 C 
HETATM   24  C   UNK N   1      33.251  12.184   8.363  0.00  0.00     0.041 C 
BRANCH  23  25
HETATM   25  C   UNK N   1      33.754  14.649   7.979  0.00  0.00     0.135 C 
HETATM   26  N   UNK N   1      33.105  15.751   8.171  0.00  0.00    -0.361 N 
ATOM     27  HN  UNK N   1      32.572  15.863   9.034  1.00  0.00     0.162 HD
BRANCH  26  28
HETATM   28  C   UNK N   1      33.106  16.838   7.204  0.00  0.00     0.165 C 
BRANCH  28  29
HETATM   29  C   UNK N   1      33.259  18.152   7.975  0.00  0.00     0.143 C 
BRANCH  29  30
HETATM   30  C   UNK N   1      34.586  18.310   8.660  0.00  0.00     0.141 C 
HETATM   31  O   UNK N   1      35.344  19.215   8.355  0.00  0.00    -0.650 OA
BRANCH  30  32
HETATM   32  O   UNK N   1      34.931  17.458   9.643  0.00  0.00    -0.776 OA
HETATM   33  H   UNK N   1      34.632  16.569   9.671  0.00  0.00     0.167 HD
ENDBRANCH  30  32
ENDBRANCH  29  30
ENDBRANCH  28  29
BRANCH  28  34
HETATM   34  C   UNK N   1      31.825  16.815   6.382  0.00  0.00     0.178 C 
HETATM   35  O   UNK N   1      30.752  16.586   6.923  0.00  0.00    -0.293 OA
BRANCH  34  36
HETATM   36  C   UNK N   1      31.862  17.050   4.903  0.00  0.00     0.302 C 
HETATM   37  F   UNK N   1      32.739  18.071   4.580  0.00  0.00    -0.247 F 
ENDBRANCH  34  36
ENDBRANCH  28  34
ENDBRANCH  26  28
BRANCH  25  38
HETATM   38  O   UNK N   1      34.513  14.489   6.873  0.00  0.00    -0.348 OA
HETATM   39  H   UNK N   1      34.649  14.700   5.969  0.00  0.00     0.219 HD
ENDBRANCH  25  38
ENDBRANCH  23  25
ENDBRANCH   2  23
TORSDOF 17
ENDMDL
MODEL 2
REMARK VINA RESULT:      -6.9      1.618      1.954
REMARK  17 active torsions:
REMARK  status: ('A' for Active; 'I' for Inactive)
REMARK    1  A    between atoms: C_15  and  C_9 
REMARK    2  A    between atoms: C_17  and  C_9 
REMARK    3  A    between atoms: C_16  and  C_10 
REMARK    4  A    between atoms: C_14  and  C_11 
REMARK    5  A    between atoms: O_35  and  C_11 
REMARK    6  A    between atoms: C_18  and  C_12 
REMARK    7  A    between atoms: C_19  and  C_13 
REMARK    8  A    between atoms: N_23  and  C_13 
REMARK    9  A    between atoms: C_16  and  C_15 
REMARK   10  A    between atoms: C_15  and  N_25 
REMARK   11  A    between atoms: O_31  and  C_17 
REMARK   12  A    between atoms: C_20  and  C_18 
REMARK   13  A    between atoms: C_18  and  N_27 
REMARK   14  A    between atoms: C_19  and  O_32 
REMARK   15  A    between atoms: C_20  and  O_33 
REMARK   16  A    between atoms: C_21  and  O_34 
REMARK   17  A    between atoms: O_35  and  C_21 
ROOT
HETATM    1  C   UNK N   1      35.288  12.691   9.805  0.00  0.00     0.135 C 
HETATM    2  N   UNK N   1      35.816  12.825   8.630  0.00  0.00    -0.361 N 
ATOM      3  HN  UNK N   1      36.815  12.645   8.535  1.00  0.00     0.162 HD
ENDROOT
BRANCH   1   4
HETATM    4  C   UNK N   1      36.110  12.163  10.968  0.00  0.00     0.163 C 
BRANCH   4   5
HETATM    5  C   UNK N   1      36.677  10.740  10.749  0.00  0.00     0.008 C 
HETATM    6  C   UNK N   1      37.701  10.384  11.820  0.00  0.00     0.012 C 
HETATM    7  C   UNK N   1      35.573   9.696  10.813  0.00  0.00     0.012 C 
ENDBRANCH   4   5
BRANCH   4   8
HETATM    8  N   UNK N   1      35.328  12.236  12.200  0.00  0.00    -0.338 N 
HETATM    9  C   UNK N   1      35.417  13.169  13.095  0.00  0.00     0.259 C 
ATOM     10  HN  UNK N   1      34.655  11.489  12.370  1.00  0.00     0.164 HD
BRANCH   9  11
HETATM   11  O   UNK N   1      36.294  14.185  12.954  0.00  0.00    -0.327 OA
HETATM   12  H   UNK N   1      37.000  14.390  12.372  0.00  0.00     0.221 HD
ENDBRANCH   9  11
BRANCH   9  13
HETATM   13  O   UNK N   1      34.653  13.080  14.209  0.00  0.00    -0.312 OA
BRANCH  13  14
HETATM   14  C   UNK N   1      34.552  11.908  14.926  0.00  0.00     0.218 C 
BRANCH  14  15
HETATM   15  C   UNK N   1      34.874  12.115  16.373  0.00  0.00    -0.034 A 
HETATM   16  C   UNK N   1      35.140  11.029  17.221  0.00  0.00     0.009 A 
HETATM   17  C   UNK N   1      35.401  11.243  18.577  0.00  0.00     0.001 A 
HETATM   18  C   UNK N   1      35.398  12.542  19.093  0.00  0.00     0.000 A 
HETATM   19  C   UNK N   1      35.136  13.628  18.252  0.00  0.00     0.001 A 
HETATM   20  C   UNK N   1      34.869  13.414  16.896  0.00  0.00     0.009 A 
ENDBRANCH  14  15
ENDBRANCH  13  14
ENDBRANCH   9  13
ENDBRANCH   4   8
ENDBRANCH   1   4
BRANCH   1  21
HETATM   21  O   UNK N   1      33.983  12.975  10.008  0.00  0.00    -0.348 OA
HETATM   22  H   UNK N   1      33.165  12.587  10.248  0.00  0.00     0.219 HD
ENDBRANCH   1  21
BRANCH   2  23
HETATM   23  C   UNK N   1      35.082  13.214   7.437  0.00  0.00     0.153 C 
HETATM   24  C   UNK N   1      35.613  12.491   6.202  0.00  0.00     0.041 C 
BRANCH  23  25
HETATM   25  C   UNK N   1      35.095  14.719   7.317  0.00  0.00     0.135 C 
HETATM   26  N   UNK N   1      34.492  15.468   8.182  0.00  0.00    -0.361 N 
ATOM     27  HN  UNK N   1      34.037  15.026   8.981  1.00  0.00     0.162 HD
BRANCH  26  28
HETATM   28  C   UNK N   1      34.438  16.916   8.060  0.00  0.00     0.165 C 
BRANCH  28  29
HETATM   29  C   UNK N   1      34.861  17.516   9.403  0.00  0.00     0.143 C 
BRANCH  29  30
HETATM   30  C   UNK N   1      35.276  16.498  10.427  0.00  0.00     0.141 C 
HETATM   31  O   UNK N   1      36.453  16.314  10.687  0.00  0.00    -0.650 OA
BRANCH  30  32
HETATM   32  O   UNK N   1      34.333  15.799  11.085  0.00  0.00    -0.776 OA
HETATM   33  H   UNK N   1      33.682  15.287  10.645  0.00  0.00     0.167 HD
ENDBRANCH  30  32
ENDBRANCH  29  30
ENDBRANCH  28  29
BRANCH  28  34
HETATM   34  C   UNK N   1      33.038  17.362   7.662  0.00  0.00     0.178 C 
HETATM   35  O   UNK N   1      32.227  17.676   8.522  0.00  0.00    -0.293 OA
BRANCH  34  36
HETATM   36  C   UNK N   1      32.628  17.399   6.222  0.00  0.00     0.302 C 
HETATM   37  F   UNK N   1      33.725  17.562   5.393  0.00  0.00    -0.247 F 
ENDBRANCH  34  36
ENDBRANCH  28  34
ENDBRANCH  26  28
BRANCH  25  38
HETATM   38  O   UNK N   1      35.753  15.275   6.276  0.00  0.00    -0.348 OA
HETATM   39  H   UNK N   1      36.413  15.182   5.616  0.00  0.00     0.219 HD
ENDBRANCH  25  38
ENDBRANCH  23  25
ENDBRANCH   2  23
TORSDOF 17
ENDMDL
MODEL 3
REMARK VINA RESULT:      -6.8      8.040     12.703
REMARK  17 active torsions:
REMARK  status: ('A' for Active; 'I' for Inactive)
REMARK    1  A    between atoms: C_15  and  C_9 
REMARK    2  A    between atoms: C_17  and  C_9 
REMARK    3  A    between atoms: C_16  and  C_10 
REMARK    4  A    between atoms: C_14  and  C_11 
REMARK    5  A    between atoms: O_35  and  C_11 
REMARK    6  A    between atoms: C_18  and  C_12 
REMARK    7  A    between atoms: C_19  and  C_13 
REMARK    8  A    between atoms: N_23  and  C_13 
REMARK    9  A    between atoms: C_16  and  C_15 
REMARK   10  A    between atoms: C_15  and  N_25 
REMARK   11  A    between atoms: O_31  and  C_17 
REMARK   12  A    between atoms: C_20  and  C_18 
REMARK   13  A    between atoms: C_18  and  N_27 
REMARK   14  A    between atoms: C_19  and  O_32 
REMARK   15  A    between atoms: C_20  and  O_33 
REMARK   16  A    between atoms: C_21  and  O_34 
REMARK   17  A    between atoms: O_35  and  C_21 
ROOT
HETATM    1  C   UNK N   1      26.725  18.392   5.831  0.00  0.00     0.135 C 
HETATM    2  N   UNK N   1      25.473  18.468   5.504  0.00  0.00    -0.361 N 
ATOM      3  HN  UNK N   1      24.936  19.257   5.864  1.00  0.00     0.162 HD
ENDROOT
BRANCH   1   4
HETATM    4  C   UNK N   1      27.389  19.508   6.619  0.00  0.00     0.163 C 
BRANCH   4   5
HETATM    5  C   UNK N   1      27.741  20.757   5.777  0.00  0.00     0.008 C 
HETATM    6  C   UNK N   1      27.517  20.501   4.291  0.00  0.00     0.012 C 
HETATM    7  C   UNK N   1      26.873  21.942   6.168  0.00  0.00     0.012 C 
ENDBRANCH   4   5
BRANCH   4   8
HETATM    8  N   UNK N   1      28.565  18.991   7.313  0.00  0.00    -0.338 N 
HETATM    9  C   UNK N   1      28.578  18.502   8.514  0.00  0.00     0.259 C 
ATOM     10  HN  UNK N   1      29.452  19.015   6.810  1.00  0.00     0.164 HD
BRANCH   9  11
HETATM   11  O   UNK N   1      27.452  18.447   9.253  0.00  0.00    -0.327 OA
HETATM   12  H   UNK N   1      26.874  19.070   9.649  0.00  0.00     0.221 HD
ENDBRANCH   9  11
BRANCH   9  13
HETATM   13  O   UNK N   1      29.758  18.096   9.040  0.00  0.00    -0.312 OA
BRANCH  13  14
HETATM   14  C   UNK N   1      30.343  16.903   8.674  0.00  0.00     0.218 C 
BRANCH  14  15
HETATM   15  C   UNK N   1      31.519  17.117   7.774  0.00  0.00    -0.034 A 
HETATM   16  C   UNK N   1      32.739  17.598   8.276  0.00  0.00     0.009 A 
HETATM   17  C   UNK N   1      33.813  17.826   7.412  0.00  0.00     0.001 A 
HETATM   18  C   UNK N   1      33.676  17.575   6.043  0.00  0.00     0.000 A 
HETATM   19  C   UNK N   1      32.465  17.094   5.539  0.00  0.00     0.001 A 
HETATM   20  C   UNK N   1      31.387  16.871   6.402  0.00  0.00     0.009 A 
ENDBRANCH  14  15
ENDBRANCH  13  14
ENDBRANCH   9  13
ENDBRANCH   4   8
ENDBRANCH   1   4
BRANCH   1  21
HETATM   21  O   UNK N   1      27.474  17.341   5.436  0.00  0.00    -0.348 OA
HETATM   22  H   UNK N   1      28.029  17.039   4.744  0.00  0.00     0.219 HD
ENDBRANCH   1  21
BRANCH   2  23
HETATM   23  C   UNK N   1      24.783  17.508   4.659  0.00  0.00     0.153 C 
HETATM   24  C   UNK N   1      25.549  17.265   3.361  0.00  0.00     0.041 C 
BRANCH  23  25
HETATM   25  C   UNK N   1      23.359  17.963   4.451  0.00  0.00     0.135 C 
HETATM   26  N   UNK N   1      23.040  18.748   3.474  0.00  0.00    -0.361 N 
ATOM     27  HN  UNK N   1      23.764  19.026   2.811  1.00  0.00     0.162 HD
BRANCH  26  28
HETATM   28  C   UNK N   1      21.688  19.249   3.283  0.00  0.00     0.165 C 
BRANCH  28  29
HETATM   29  C   UNK N   1      20.913  18.209   2.468  0.00  0.00     0.143 C 
BRANCH  29  30
HETATM   30  C   UNK N   1      19.580  17.840   3.053  0.00  0.00     0.141 C 
HETATM   31  O   UNK N   1      19.501  17.066   3.993  0.00  0.00    -0.650 OA
BRANCH  30  32
HETATM   32  O   UNK N   1      18.460  18.392   2.552  0.00  0.00    -0.776 OA
HETATM   33  H   UNK N   1      17.925  18.986   3.041  0.00  0.00     0.167 HD
ENDBRANCH  30  32
ENDBRANCH  29  30
ENDBRANCH  28  29
BRANCH  28  34
HETATM   34  C   UNK N   1      21.718  20.600   2.583  0.00  0.00     0.178 C 
HETATM   35  O   UNK N   1      22.629  21.386   2.805  0.00  0.00    -0.293 OA
BRANCH  34  36
HETATM   36  C   UNK N   1      20.627  20.996   1.636  0.00  0.00     0.302 C 
HETATM   37  F   UNK N   1      20.997  20.764   0.322  0.00  0.00    -0.247 F 
ENDBRANCH  34  36
ENDBRANCH  28  34
ENDBRANCH  26  28
BRANCH  25  38
HETATM   38  O   UNK N   1      22.414  17.533   5.316  0.00  0.00    -0.348 OA
HETATM   39  H   UNK N   1      21.573  17.136   5.435  0.00  0.00     0.219 HD
ENDBRANCH  25  38
ENDBRANCH  23  25
ENDBRANCH   2  23
TORSDOF 17
ENDMDL
MODEL 4
REMARK VINA RESULT:      -6.7      1.313      2.108
REMARK  17 active torsions:
REMARK  status: ('A' for Active; 'I' for Inactive)
REMARK    1  A    between atoms: C_15  and  C_9 
REMARK    2  A    between atoms: C_17  and  C_9 
REMARK    3  A    between atoms: C_16  and  C_10 
REMARK    4  A    between atoms: C_14  and  C_11 
REMARK    5  A    between atoms: O_35  and  C_11 
REMARK    6  A    between atoms: C_18  and  C_12 
REMARK    7  A    between atoms: C_19  and  C_13 
REMARK    8  A    between atoms: N_23  and  C_13 
REMARK    9  A    between atoms: C_16  and  C_15 
REMARK   10  A    between atoms: C_15  and  N_25 
REMARK   11  A    between atoms: O_31  and  C_17 
REMARK   12  A    between atoms: C_20  and  C_18 
REMARK   13  A    between atoms: C_18  and  N_27 
REMARK   14  A    between atoms: C_19  and  O_32 
REMARK   15  A    between atoms: C_20  and  O_33 
REMARK   16  A    between atoms: C_21  and  O_34 
REMARK   17  A    between atoms: O_35  and  C_21 
ROOT
HETATM    1  C   UNK N   1      35.358  13.330  11.058  0.00  0.00     0.135 C 
HETATM    2  N   UNK N   1      35.143  14.020   9.982  0.00  0.00    -0.361 N 
ATOM      3  HN  UNK N   1      35.855  14.693   9.701  1.00  0.00     0.162 HD
ENDROOT
BRANCH   1   4
HETATM    4  C   UNK N   1      36.681  13.438  11.797  0.00  0.00     0.163 C 
BRANCH   4   5
HETATM    5  C   UNK N   1      37.822  12.595  11.181  0.00  0.00     0.008 C 
HETATM    6  C   UNK N   1      37.277  11.347  10.496  0.00  0.00     0.012 C 
HETATM    7  C   UNK N   1      38.585  13.391  10.134  0.00  0.00     0.012 C 
ENDBRANCH   4   5
BRANCH   4   8
HETATM    8  N   UNK N   1      36.487  13.113  13.208  0.00  0.00    -0.338 N 
HETATM    9  C   UNK N   1      36.565  13.953  14.193  0.00  0.00     0.259 C 
ATOM     10  HN  UNK N   1      36.271  12.144  13.438  1.00  0.00     0.164 HD
BRANCH   9  11
HETATM   11  O   UNK N   1      36.862  15.251  13.976  0.00  0.00    -0.327 OA
HETATM   12  H   UNK N   1      36.382  16.022  13.742  0.00  0.00     0.221 HD
ENDBRANCH   9  11
BRANCH   9  13
HETATM   13  O   UNK N   1      36.401  13.494  15.456  0.00  0.00    -0.312 OA
BRANCH  13  14
HETATM   14  C   UNK N   1      35.180  13.043  15.909  0.00  0.00     0.218 C 
BRANCH  14  15
HETATM   15  C   UNK N   1      35.287  12.426  17.268  0.00  0.00    -0.034 A 
HETATM   16  C   UNK N   1      35.490  11.046  17.425  0.00  0.00     0.009 A 
HETATM   17  C   UNK N   1      35.550  10.486  18.704  0.00  0.00     0.001 A 
HETATM   18  C   UNK N   1      35.410  11.300  19.832  0.00  0.00     0.000 A 
HETATM   19  C   UNK N   1      35.210  12.675  19.681  0.00  0.00     0.001 A 
HETATM   20  C   UNK N   1      35.144  13.236  18.401  0.00  0.00     0.009 A 
ENDBRANCH  14  15
ENDBRANCH  13  14
ENDBRANCH   9  13
ENDBRANCH   4   8
ENDBRANCH   1   4
BRANCH   1  21
HETATM   21  O   UNK N   1      34.426  12.467  11.517  0.00  0.00    -0.348 OA
HETATM   22  H   UNK N   1      33.877  12.285  12.254  0.00  0.00     0.219 HD
ENDBRANCH   1  21
BRANCH   2  23
HETATM   23  C   UNK N   1      33.958  13.899   9.150  0.00  0.00     0.153 C 
HETATM   24  C   UNK N   1      34.244  13.070   7.899  0.00  0.00     0.041 C 
BRANCH  23  25
HETATM   25  C   UNK N   1      33.414  15.276   8.859  0.00  0.00     0.135 C 
HETATM   26  N   UNK N   1      32.925  15.574   7.699  0.00  0.00    -0.361 N 
ATOM     27  HN  UNK N   1      32.872  14.846   6.986  1.00  0.00     0.162 HD
BRANCH  26  28
HETATM   28  C   UNK N   1      32.446  16.908   7.371  0.00  0.00     0.165 C 
BRANCH  28  29
HETATM   29  C   UNK N   1      30.921  16.844   7.255  0.00  0.00     0.143 C 
BRANCH  29  30
HETATM   30  C   UNK N   1      30.191  17.352   8.466  0.00  0.00     0.141 C 
HETATM   31  O   UNK N   1      28.974  17.304   8.529  0.00  0.00    -0.650 OA
BRANCH  30  32
HETATM   32  O   UNK N   1      30.892  17.842   9.505  0.00  0.00    -0.776 OA
HETATM   33  H   UNK N   1      30.670  17.659  10.397  0.00  0.00     0.167 HD
ENDBRANCH  30  32
ENDBRANCH  29  30
ENDBRANCH  28  29
BRANCH  28  34
HETATM   34  C   UNK N   1      33.087  17.397   6.080  0.00  0.00     0.178 C 
HETATM   35  O   UNK N   1      34.218  17.862   6.094  0.00  0.00    -0.293 OA
BRANCH  34  36
HETATM   36  C   UNK N   1      32.337  17.339   4.785  0.00  0.00     0.302 C 
HETATM   37  F   UNK N   1      33.168  17.619   3.713  0.00  0.00    -0.247 F 
ENDBRANCH  34  36
ENDBRANCH  28  34
ENDBRANCH  26  28
BRANCH  25  38
HETATM   38  O   UNK N   1      33.449  16.202   9.842  0.00  0.00    -0.348 OA
HETATM   39  H   UNK N   1      33.839  16.985  10.177  0.00  0.00     0.219 HD
ENDBRANCH  25  38
ENDBRANCH  23  25
ENDBRANCH   2  23
TORSDOF 17
ENDMDL
MODEL 5
REMARK VINA RESULT:      -6.6      2.075      2.708
REMARK  17 active torsions:
REMARK  status: ('A' for Active; 'I' for Inactive)
REMARK    1  A    between atoms: C_15  and  C_9 
REMARK    2  A    between atoms: C_17  and  C_9 
REMARK    3  A    between atoms: C_16  and  C_10 
REMARK    4  A    between atoms: C_14  and  C_11 
REMARK    5  A    between atoms: O_35  and  C_11 
REMARK    6  A    between atoms: C_18  and  C_12 
REMARK    7  A    between atoms: C_19  and  C_13 
REMARK    8  A    between atoms: N_23  and  C_13 
REMARK    9  A    between atoms: C_16  and  C_15 
REMARK   10  A    between atoms: C_15  and  N_25 
REMARK   11  A    between atoms: O_31  and  C_17 
REMARK   12  A    between atoms: C_20  and  C_18 
REMARK   13  A    between atoms: C_18  and  N_27 
REMARK   14  A    between atoms: C_19  and  O_32 
REMARK   15  A    between atoms: C_20  and  O_33 
REMARK   16  A    between atoms: C_21  and  O_34 
REMARK   17  A    between atoms: O_35  and  C_21 
ROOT
HETATM    1  C   UNK N   1      35.464  12.988  11.041  0.00  0.00     0.135 C 
HETATM    2  N   UNK N   1      34.725  14.053  11.046  0.00  0.00    -0.361 N 
ATOM      3  HN  UNK N   1      34.040  14.152  11.795  1.00  0.00     0.162 HD
ENDROOT
BRANCH   1   4
HETATM    4  C   UNK N   1      35.391  11.990  12.184  0.00  0.00     0.163 C 
BRANCH   4   5
HETATM    5  C   UNK N   1      34.254  10.950  12.045  0.00  0.00     0.008 C 
HETATM    6  C   UNK N   1      34.706   9.744  11.229  0.00  0.00     0.012 C 
HETATM    7  C   UNK N   1      33.814  10.436  13.407  0.00  0.00     0.012 C 
ENDBRANCH   4   5
BRANCH   4   8
HETATM    8  N   UNK N   1      35.304  12.700  13.456  0.00  0.00    -0.338 N 
HETATM    9  C   UNK N   1      36.309  13.019  14.212  0.00  0.00     0.259 C 
ATOM     10  HN  UNK N   1      34.375  12.969  13.779  1.00  0.00     0.164 HD
BRANCH   9  11
HETATM   11  O   UNK N   1      37.570  12.688  13.867  0.00  0.00    -0.327 OA
HETATM   12  H   UNK N   1      38.292  13.121  13.455  0.00  0.00     0.221 HD
ENDBRANCH   9  11
BRANCH   9  13
HETATM   13  O   UNK N   1      36.068  13.645  15.388  0.00  0.00    -0.312 OA
BRANCH  13  14
HETATM   14  C   UNK N   1      34.902  13.437  16.093  0.00  0.00     0.218 C 
BRANCH  14  15
HETATM   15  C   UNK N   1      35.149  12.687  17.364  0.00  0.00    -0.034 A 
HETATM   16  C   UNK N   1      35.376  11.302  17.357  0.00  0.00     0.009 A 
HETATM   17  C   UNK N   1      35.569  10.616  18.559  0.00  0.00     0.001 A 
HETATM   18  C   UNK N   1      35.536  11.308  19.773  0.00  0.00     0.000 A 
HETATM   19  C   UNK N   1      35.312  12.688  19.785  0.00  0.00     0.001 A 
HETATM   20  C   UNK N   1      35.114  13.375  18.583  0.00  0.00     0.009 A 
ENDBRANCH  14  15
ENDBRANCH  13  14
ENDBRANCH   9  13
ENDBRANCH   4   8
ENDBRANCH   1   4
BRANCH   1  21
HETATM   21  O   UNK N   1      36.346  12.770  10.043  0.00  0.00    -0.348 OA
HETATM   22  H   UNK N   1      36.420  12.728   9.110  0.00  0.00     0.219 HD
ENDBRANCH   1  21
BRANCH   2  23
HETATM   23  C   UNK N   1      34.806  15.115  10.058  0.00  0.00     0.153 C 
HETATM   24  C   UNK N   1      35.147  16.453  10.712  0.00  0.00     0.041 C 
BRANCH  23  25
HETATM   25  C   UNK N   1      33.532  15.138   9.249  0.00  0.00     0.135 C 
HETATM   26  N   UNK N   1      33.325  16.042   8.347  0.00  0.00    -0.361 N 
ATOM     27  HN  UNK N   1      34.059  16.724   8.157  1.00  0.00     0.162 HD
BRANCH  26  28
HETATM   28  C   UNK N   1      32.084  16.124   7.593  0.00  0.00     0.165 C 
BRANCH  28  29
HETATM   29  C   UNK N   1      32.443  16.201   6.106  0.00  0.00     0.143 C 
BRANCH  29  30
HETATM   30  C   UNK N   1      33.850  16.655   5.837  0.00  0.00     0.141 C 
HETATM   31  O   UNK N   1      34.683  15.882   5.394  0.00  0.00    -0.650 OA
BRANCH  30  32
HETATM   32  O   UNK N   1      34.187  17.938   6.063  0.00  0.00    -0.776 OA
HETATM   33  H   UNK N   1      33.608  18.653   5.882  0.00  0.00     0.167 HD
ENDBRANCH  30  32
ENDBRANCH  29  30
ENDBRANCH  28  29
BRANCH  28  34
HETATM   34  C   UNK N   1      31.273  17.333   8.037  0.00  0.00     0.178 C 
HETATM   35  O   UNK N   1      31.787  18.191   8.741  0.00  0.00    -0.293 OA
BRANCH  34  36
HETATM   36  C   UNK N   1      29.835  17.477   7.641  0.00  0.00     0.302 C 
HETATM   37  F   UNK N   1      29.248  18.559   8.275  0.00  0.00    -0.247 F 
ENDBRANCH  34  36
ENDBRANCH  28  34
ENDBRANCH  26  28
BRANCH  25  38
HETATM   38  O   UNK N   1      32.602  14.187   9.487  0.00  0.00    -0.348 OA
HETATM   39  H   UNK N   1      31.973  13.589   9.132  0.00  0.00     0.219 HD
ENDBRANCH  25  38
ENDBRANCH  23  25
ENDBRANCH   2  23
TORSDOF 17
ENDMDL
MODEL 6
REMARK VINA RESULT:      -6.6      8.094     12.469
REMARK  17 active torsions:
REMARK  status: ('A' for Active; 'I' for Inactive)
REMARK    1  A    between atoms: C_15  and  C_9 
REMARK    2  A    between atoms: C_17  and  C_9 
REMARK    3  A    between atoms: C_16  and  C_10 
REMARK    4  A    between atoms: C_14  and  C_11 
REMARK    5  A    between atoms: O_35  and  C_11 
REMARK    6  A    between atoms: C_18  and  C_12 
REMARK    7  A    between atoms: C_19  and  C_13 
REMARK    8  A    between atoms: N_23  and  C_13 
REMARK    9  A    between atoms: C_16  and  C_15 
REMARK   10  A    between atoms: C_15  and  N_25 
REMARK   11  A    between atoms: O_31  and  C_17 
REMARK   12  A    between atoms: C_20  and  C_18 
REMARK   13  A    between atoms: C_18  and  N_27 
REMARK   14  A    between atoms: C_19  and  O_32 
REMARK   15  A    between atoms: C_20  and  O_33 
REMARK   16  A    between atoms: C_21  and  O_34 
REMARK   17  A    between atoms: O_35  and  C_21 
ROOT
HETATM    1  C   UNK N   1      26.641  17.792   5.861  0.00  0.00     0.135 C 
HETATM    2  N   UNK N   1      25.459  17.663   5.345  0.00  0.00    -0.361 N 
ATOM      3  HN  UNK N   1      24.799  18.429   5.475  1.00  0.00     0.162 HD
ENDROOT
BRANCH   1   4
HETATM    4  C   UNK N   1      27.059  19.093   6.525  0.00  0.00     0.163 C 
BRANCH   4   5
HETATM    5  C   UNK N   1      27.070  20.315   5.576  0.00  0.00     0.008 C 
HETATM    6  C   UNK N   1      27.489  21.581   6.313  0.00  0.00     0.012 C 
HETATM    7  C   UNK N   1      28.051  20.109   4.433  0.00  0.00     0.012 C 
ENDBRANCH   4   5
BRANCH   4   8
HETATM    8  N   UNK N   1      28.353  18.920   7.179  0.00  0.00    -0.338 N 
HETATM    9  C   UNK N   1      28.534  18.629   8.429  0.00  0.00     0.259 C 
ATOM     10  HN  UNK N   1      29.187  19.039   6.603  1.00  0.00     0.164 HD
BRANCH   9  11
HETATM   11  O   UNK N   1      27.486  18.470   9.263  0.00  0.00    -0.327 OA
HETATM   12  H   UNK N   1      26.578  18.253   9.172  0.00  0.00     0.221 HD
ENDBRANCH   9  11
BRANCH   9  13
HETATM   13  O   UNK N   1      29.799  18.540   8.903  0.00  0.00    -0.312 OA
BRANCH  13  14
HETATM   14  C   UNK N   1      30.497  17.352   8.888  0.00  0.00     0.218 C 
BRANCH  14  15
HETATM   15  C   UNK N   1      31.622  17.383   7.902  0.00  0.00    -0.034 A 
HETATM   16  C   UNK N   1      32.907  17.800   8.280  0.00  0.00     0.009 A 
HETATM   17  C   UNK N   1      33.934  17.857   7.334  0.00  0.00     0.001 A 
HETATM   18  C   UNK N   1      33.684  17.496   6.007  0.00  0.00     0.000 A 
HETATM   19  C   UNK N   1      32.406  17.077   5.626  0.00  0.00     0.001 A 
HETATM   20  C   UNK N   1      31.375  17.026   6.571  0.00  0.00     0.009 A 
ENDBRANCH  14  15
ENDBRANCH  13  14
ENDBRANCH   9  13
ENDBRANCH   4   8
ENDBRANCH   1   4
BRANCH   1  21
HETATM   21  O   UNK N   1      27.540  16.788   5.776  0.00  0.00    -0.348 OA
HETATM   22  H   UNK N   1      27.629  15.885   5.543  0.00  0.00     0.219 HD
ENDBRANCH   1  21
BRANCH   2  23
HETATM   23  C   UNK N   1      25.011  16.503   4.594  0.00  0.00     0.153 C 
HETATM   24  C   UNK N   1      25.627  16.477   3.197  0.00  0.00     0.041 C 
BRANCH  23  25
HETATM   25  C   UNK N   1      23.503  16.462   4.598  0.00  0.00     0.135 C 
HETATM   26  N   UNK N   1      22.807  17.355   5.226  0.00  0.00    -0.361 N 
ATOM     27  HN  UNK N   1      23.296  18.120   5.690  1.00  0.00     0.162 HD
BRANCH  26  28
HETATM   28  C   UNK N   1      21.355  17.309   5.294  0.00  0.00     0.165 C 
BRANCH  28  29
HETATM   29  C   UNK N   1      20.805  18.303   4.268  0.00  0.00     0.143 C 
BRANCH  29  30
HETATM   30  C   UNK N   1      19.773  17.722   3.343  0.00  0.00     0.141 C 
HETATM   31  O   UNK N   1      19.310  18.383   2.429  0.00  0.00    -0.650 OA
BRANCH  30  32
HETATM   32  O   UNK N   1      19.374  16.448   3.511  0.00  0.00    -0.776 OA
HETATM   33  H   UNK N   1      18.525  16.145   3.256  0.00  0.00     0.167 HD
ENDBRANCH  30  32
ENDBRANCH  29  30
ENDBRANCH  28  29
BRANCH  28  34
HETATM   34  C   UNK N   1      20.882  17.637   6.703  0.00  0.00     0.178 C 
HETATM   35  O   UNK N   1      21.024  18.767   7.151  0.00  0.00    -0.293 OA
BRANCH  34  36
HETATM   36  C   UNK N   1      20.260  16.583   7.566  0.00  0.00     0.302 C 
HETATM   37  F   UNK N   1      21.100  16.230   8.609  0.00  0.00    -0.247 F 
ENDBRANCH  34  36
ENDBRANCH  28  34
ENDBRANCH  26  28
BRANCH  25  38
HETATM   38  O   UNK N   1      22.884  15.466   3.926  0.00  0.00    -0.348 OA
HETATM   39  H   UNK N   1      22.965  14.653   3.466  0.00  0.00     0.219 HD
ENDBRANCH  25  38
ENDBRANCH  23  25
ENDBRANCH   2  23
TORSDOF 17
ENDMDL
MODEL 7
REMARK VINA RESULT:      -6.6      4.094      7.006
REMARK  17 active torsions:
REMARK  status: ('A' for Active; 'I' for Inactive)
REMARK    1  A    between atoms: C_15  and  C_9 
REMARK    2  A    between atoms: C_17  and  C_9 
REMARK    3  A    between atoms: C_16  and  C_10 
REMARK    4  A    between atoms: C_14  and  C_11 
REMARK    5  A    between atoms: O_35  and  C_11 
REMARK    6  A    between atoms: C_18  and  C_12 
REMARK    7  A    between atoms: C_19  and  C_13 
REMARK    8  A    between atoms: N_23  and  C_13 
REMARK    9  A    between atoms: C_16  and  C_15 
REMARK   10  A    between atoms: C_15  and  N_25 
REMARK   11  A    between atoms: O_31  and  C_17 
REMARK   12  A    between atoms: C_20  and  C_18 
REMARK   13  A    between atoms: C_18  and  N_27 
REMARK   14  A    between atoms: C_19  and  O_32 
REMARK   15  A    between atoms: C_20  and  O_33 
REMARK   16  A    between atoms: C_21  and  O_34 
REMARK   17  A    between atoms: O_35  and  C_21 
ROOT
HETATM    1  C   UNK N   1      31.341  17.339   8.027  0.00  0.00     0.135 C 
HETATM    2  N   UNK N   1      30.865  18.161   8.908  0.00  0.00    -0.361 N 
ATOM      3  HN  UNK N   1      31.500  18.854   9.303  1.00  0.00     0.162 HD
ENDROOT
BRANCH   1   4
HETATM    4  C   UNK N   1      32.764  17.492   7.515  0.00  0.00     0.163 C 
BRANCH   4   5
HETATM    5  C   UNK N   1      33.054  16.715   6.209  0.00  0.00     0.008 C 
HETATM    6  C   UNK N   1      33.041  17.644   5.001  0.00  0.00     0.012 C 
HETATM    7  C   UNK N   1      34.422  16.054   6.258  0.00  0.00     0.012 C 
ENDBRANCH   4   5
BRANCH   4   8
HETATM    8  N   UNK N   1      33.709  17.128   8.566  0.00  0.00    -0.338 N 
HETATM    9  C   UNK N   1      34.715  17.846   8.958  0.00  0.00     0.259 C 
ATOM     10  HN  UNK N   1      33.566  16.232   9.033  1.00  0.00     0.164 HD
BRANCH   9  11
HETATM   11  O   UNK N   1      34.984  19.036   8.383  0.00  0.00    -0.327 OA
HETATM   12  H   UNK N   1      34.563  19.592   7.756  0.00  0.00     0.221 HD
ENDBRANCH   9  11
BRANCH   9  13
HETATM   13  O   UNK N   1      35.531  17.356   9.921  0.00  0.00    -0.312 OA
BRANCH  13  14
HETATM   14  C   UNK N   1      35.057  16.540  10.926  0.00  0.00     0.218 C 
BRANCH  14  15
HETATM   15  C   UNK N   1      35.922  15.333  11.111  0.00  0.00    -0.034 A 
HETATM   16  C   UNK N   1      36.720  14.844  10.066  0.00  0.00     0.009 A 
HETATM   17  C   UNK N   1      37.492  13.693  10.250  0.00  0.00     0.001 A 
HETATM   18  C   UNK N   1      37.471  13.025  11.478  0.00  0.00     0.000 A 
HETATM   19  C   UNK N   1      36.679  13.510  12.523  0.00  0.00     0.001 A 
HETATM   20  C   UNK N   1      35.902  14.658  12.338  0.00  0.00     0.009 A 
ENDBRANCH  14  15
ENDBRANCH  13  14
ENDBRANCH   9  13
ENDBRANCH   4   8
ENDBRANCH   1   4
BRANCH   1  21
HETATM   21  O   UNK N   1      30.567  16.360   7.512  0.00  0.00    -0.348 OA
HETATM   22  H   UNK N   1      29.744  15.927   7.620  0.00  0.00     0.219 HD
ENDBRANCH   1  21
BRANCH   2  23
HETATM   23  C   UNK N   1      29.488  18.163   9.372  0.00  0.00     0.153 C 
HETATM   24  C   UNK N   1      29.254  17.070  10.413  0.00  0.00     0.041 C 
BRANCH  23  25
HETATM   25  C   UNK N   1      28.564  18.080   8.181  0.00  0.00     0.135 C 
HETATM   26  N   UNK N   1      28.616  18.952   7.227  0.00  0.00    -0.361 N 
ATOM     27  HN  UNK N   1      29.327  19.682   7.268  1.00  0.00     0.162 HD
BRANCH  26  28
HETATM   28  C   UNK N   1      27.701  18.930   6.097  0.00  0.00     0.165 C 
BRANCH  28  29
HETATM   29  C   UNK N   1      28.534  18.780   4.821  0.00  0.00     0.143 C 
BRANCH  29  30
HETATM   30  C   UNK N   1      28.934  17.365   4.512  0.00  0.00     0.141 C 
HETATM   31  O   UNK N   1      28.645  16.454   5.269  0.00  0.00    -0.650 OA
BRANCH  30  32
HETATM   32  O   UNK N   1      29.597  17.098   3.372  0.00  0.00    -0.776 OA
HETATM   33  H   UNK N   1      30.016  17.763   2.862  0.00  0.00     0.167 HD
ENDBRANCH  30  32
ENDBRANCH  29  30
ENDBRANCH  28  29
BRANCH  28  34
HETATM   34  C   UNK N   1      26.861  20.199   6.073  0.00  0.00     0.178 C 
HETATM   35  O   UNK N   1      26.952  21.013   6.981  0.00  0.00    -0.293 OA
BRANCH  34  36
HETATM   36  C   UNK N   1      25.898  20.457   4.954  0.00  0.00     0.302 C 
HETATM   37  F   UNK N   1      26.562  20.836   3.800  0.00  0.00    -0.247 F 
ENDBRANCH  34  36
ENDBRANCH  28  34
ENDBRANCH  26  28
BRANCH  25  38
HETATM   38  O   UNK N   1      27.670  17.067   8.131  0.00  0.00    -0.348 OA
HETATM   39  H   UNK N   1      27.524  16.141   8.115  0.00  0.00     0.219 HD
ENDBRANCH  25  38
ENDBRANCH  23  25
ENDBRANCH   2  23
TORSDOF 17
ENDMDL
MODEL 8
REMARK VINA RESULT:      -6.5      9.273     13.877
REMARK  17 active torsions:
REMARK  status: ('A' for Active; 'I' for Inactive)
REMARK    1  A    between atoms: C_15  and  C_9 
REMARK    2  A    between atoms: C_17  and  C_9 
REMARK    3  A    between atoms: C_16  and  C_10 
REMARK    4  A    between atoms: C_14  and  C_11 
REMARK    5  A    between atoms: O_35  and  C_11 
REMARK    6  A    between atoms: C_18  and  C_12 
REMARK    7  A    between atoms: C_19  and  C_13 
REMARK    8  A    between atoms: N_23  and  C_13 
REMARK    9  A    between atoms: C_16  and  C_15 
REMARK   10  A    between atoms: C_15  and  N_25 
REMARK   11  A    between atoms: O_31  and  C_17 
REMARK   12  A    between atoms: C_20  and  C_18 
REMARK   13  A    between atoms: C_18  and  N_27 
REMARK   14  A    between atoms: C_19  and  O_32 
REMARK   15  A    between atoms: C_20  and  O_33 
REMARK   16  A    between atoms: C_21  and  O_34 
REMARK   17  A    between atoms: O_35  and  C_21 
ROOT
HETATM    1  C   UNK N   1      24.614  17.832   4.627  0.00  0.00     0.135 C 
HETATM    2  N   UNK N   1      23.502  17.956   5.281  0.00  0.00    -0.361 N 
ATOM      3  HN  UNK N   1      23.420  18.734   5.935  1.00  0.00     0.162 HD
ENDROOT
BRANCH   1   4
HETATM    4  C   UNK N   1      25.704  18.883   4.746  0.00  0.00     0.163 C 
BRANCH   4   5
HETATM    5  C   UNK N   1      26.050  19.591   3.414  0.00  0.00     0.008 C 
HETATM    6  C   UNK N   1      24.864  20.395   2.894  0.00  0.00     0.012 C 
HETATM    7  C   UNK N   1      27.209  20.557   3.594  0.00  0.00     0.012 C 
ENDBRANCH   4   5
BRANCH   4   8
HETATM    8  N   UNK N   1      26.893  18.295   5.355  0.00  0.00    -0.338 N 
HETATM    9  C   UNK N   1      27.468  18.710   6.441  0.00  0.00     0.259 C 
ATOM     10  HN  UNK N   1      27.308  17.489   4.888  1.00  0.00     0.164 HD
BRANCH   9  11
HETATM   11  O   UNK N   1      26.993  19.779   7.113  0.00  0.00    -0.327 OA
HETATM   12  H   UNK N   1      26.166  20.214   7.190  0.00  0.00     0.221 HD
ENDBRANCH   9  11
BRANCH   9  13
HETATM   13  O   UNK N   1      28.593  18.086   6.864  0.00  0.00    -0.312 OA
BRANCH  13  14
HETATM   14  C   UNK N   1      29.106  16.991   6.202  0.00  0.00     0.218 C 
BRANCH  14  15
HETATM   15  C   UNK N   1      30.535  17.200   5.813  0.00  0.00    -0.034 A 
HETATM   16  C   UNK N   1      30.894  17.470   4.483  0.00  0.00     0.009 A 
HETATM   17  C   UNK N   1      32.239  17.625   4.136  0.00  0.00     0.001 A 
HETATM   18  C   UNK N   1      33.232  17.512   5.113  0.00  0.00     0.000 A 
HETATM   19  C   UNK N   1      32.880  17.245   6.439  0.00  0.00     0.001 A 
HETATM   20  C   UNK N   1      31.534  17.084   6.787  0.00  0.00     0.009 A 
ENDBRANCH  14  15
ENDBRANCH  13  14
ENDBRANCH   9  13
ENDBRANCH   4   8
ENDBRANCH   1   4
BRANCH   1  21
HETATM   21  O   UNK N   1      24.806  16.788   3.793  0.00  0.00    -0.348 OA
HETATM   22  H   UNK N   1      24.499  16.404   2.996  0.00  0.00     0.219 HD
ENDBRANCH   1  21
BRANCH   2  23
HETATM   23  C   UNK N   1      22.363  17.064   5.144  0.00  0.00     0.153 C 
HETATM   24  C   UNK N   1      21.252  17.708   4.318  0.00  0.00     0.041 C 
BRANCH  23  25
HETATM   25  C   UNK N   1      21.920  16.612   6.515  0.00  0.00     0.135 C 
HETATM   26  N   UNK N   1      20.894  17.141   7.099  0.00  0.00    -0.361 N 
ATOM     27  HN  UNK N   1      20.355  17.847   6.598  1.00  0.00     0.162 HD
BRANCH  26  28
HETATM   28  C   UNK N   1      20.479  16.766   8.441  0.00  0.00     0.165 C 
BRANCH  28  29
HETATM   29  C   UNK N   1      19.839  15.377   8.364  0.00  0.00     0.143 C 
BRANCH  29  30
HETATM   30  C   UNK N   1      20.334  14.415   9.407  0.00  0.00     0.141 C 
HETATM   31  O   UNK N   1      21.521  14.332   9.670  0.00  0.00    -0.650 OA
BRANCH  30  32
HETATM   32  O   UNK N   1      19.450  13.653  10.078  0.00  0.00    -0.776 OA
HETATM   33  H   UNK N   1      19.433  12.718  10.010  0.00  0.00     0.167 HD
ENDBRANCH  30  32
ENDBRANCH  29  30
ENDBRANCH  28  29
BRANCH  28  34
HETATM   34  C   UNK N   1      19.513  17.798   9.003  0.00  0.00     0.178 C 
HETATM   35  O   UNK N   1      19.914  18.912   9.310  0.00  0.00    -0.293 OA
BRANCH  34  36
HETATM   36  C   UNK N   1      18.068  17.460   9.210  0.00  0.00     0.302 C 
HETATM   37  F   UNK N   1      17.628  17.883  10.454  0.00  0.00    -0.247 F 
ENDBRANCH  34  36
ENDBRANCH  28  34
ENDBRANCH  26  28
BRANCH  25  38
HETATM   38  O   UNK N   1      22.624  15.635   7.128  0.00  0.00    -0.348 OA
HETATM   39  H   UNK N   1      23.160  14.871   7.039  0.00  0.00     0.219 HD
ENDBRANCH  25  38
ENDBRANCH  23  25
ENDBRANCH   2  23
TORSDOF 17
ENDMDL
MODEL 9
REMARK VINA RESULT:      -6.5      6.232     11.943
REMARK  17 active torsions:
REMARK  status: ('A' for Active; 'I' for Inactive)
REMARK    1  A    between atoms: C_15  and  C_9 
REMARK    2  A    between atoms: C_17  and  C_9 
REMARK    3  A    between atoms: C_16  and  C_10 
REMARK    4  A    between atoms: C_14  and  C_11 
REMARK    5  A    between atoms: O_35  and  C_11 
REMARK    6  A    between atoms: C_18  and  C_12 
REMARK    7  A    between atoms: C_19  and  C_13 
REMARK    8  A    between atoms: N_23  and  C_13 
REMARK    9  A    between atoms: C_16  and  C_15 
REMARK   10  A    between atoms: C_15  and  N_25 
REMARK   11  A    between atoms: O_31  and  C_17 
REMARK   12  A    between atoms: C_20  and  C_18 
REMARK   13  A    between atoms: C_18  and  N_27 
REMARK   14  A    between atoms: C_19  and  O_32 
REMARK   15  A    between atoms: C_20  and  O_33 
REMARK   16  A    between atoms: C_21  and  O_34 
REMARK   17  A    between atoms: O_35  and  C_21 
ROOT
HETATM    1  C   UNK N   1      27.822  17.697   6.819  0.00  0.00     0.135 C 
HETATM    2  N   UNK N   1      29.039  18.027   7.121  0.00  0.00    -0.361 N 
ATOM      3  HN  UNK N   1      29.553  18.605   6.457  1.00  0.00     0.162 HD
ENDROOT
BRANCH   1   4
HETATM    4  C   UNK N   1      27.153  18.261   5.577  0.00  0.00     0.163 C 
BRANCH   4   5
HETATM    5  C   UNK N   1      27.494  19.742   5.290  0.00  0.00     0.008 C 
HETATM    6  C   UNK N   1      27.169  20.113   3.848  0.00  0.00     0.012 C 
HETATM    7  C   UNK N   1      26.694  20.671   6.189  0.00  0.00     0.012 C 
ENDBRANCH   4   5
BRANCH   4   8
HETATM    8  N   UNK N   1      25.709  18.058   5.658  0.00  0.00    -0.338 N 
HETATM    9  C   UNK N   1      25.024  17.219   4.945  0.00  0.00     0.259 C 
ATOM     10  HN  UNK N   1      25.196  18.623   6.334  1.00  0.00     0.164 HD
BRANCH   9  11
HETATM   11  O   UNK N   1      25.624  16.444   4.018  0.00  0.00    -0.327 OA
HETATM   12  H   UNK N   1      26.359  15.863   3.999  0.00  0.00     0.221 HD
ENDBRANCH   9  11
BRANCH   9  13
HETATM   13  O   UNK N   1      23.681  17.172   5.105  0.00  0.00    -0.312 OA
BRANCH  13  14
HETATM   14  C   UNK N   1      23.023  15.987   5.356  0.00  0.00     0.218 C 
BRANCH  14  15
HETATM   15  C   UNK N   1      22.047  16.124   6.482  0.00  0.00    -0.034 A 
HETATM   16  C   UNK N   1      21.274  17.285   6.636  0.00  0.00     0.009 A 
HETATM   17  C   UNK N   1      20.396  17.407   7.717  0.00  0.00     0.001 A 
HETATM   18  C   UNK N   1      20.285  16.370   8.649  0.00  0.00     0.000 A 
HETATM   19  C   UNK N   1      21.051  15.211   8.498  0.00  0.00     0.001 A 
HETATM   20  C   UNK N   1      21.935  15.090   7.420  0.00  0.00     0.009 A 
ENDBRANCH  14  15
ENDBRANCH  13  14
ENDBRANCH   9  13
ENDBRANCH   4   8
ENDBRANCH   1   4
BRANCH   1  21
HETATM   21  O   UNK N   1      27.111  16.883   7.628  0.00  0.00    -0.348 OA
HETATM   22  H   UNK N   1      26.374  16.305   7.641  0.00  0.00     0.219 HD
ENDBRANCH   1  21
BRANCH   2  23
HETATM   23  C   UNK N   1      29.720  17.629   8.341  0.00  0.00     0.153 C 
HETATM   24  C   UNK N   1      29.749  18.771   9.355  0.00  0.00     0.041 C 
BRANCH  23  25
HETATM   25  C   UNK N   1      31.084  17.086   7.993  0.00  0.00     0.135 C 
HETATM   26  N   UNK N   1      31.897  16.670   8.910  0.00  0.00    -0.361 N 
ATOM     27  HN  UNK N   1      31.585  16.675   9.882  1.00  0.00     0.162 HD
BRANCH  26  28
HETATM   28  C   UNK N   1      33.239  16.196   8.610  0.00  0.00     0.165 C 
BRANCH  28  29
HETATM   29  C   UNK N   1      33.445  14.872   9.350  0.00  0.00     0.143 C 
BRANCH  29  30
HETATM   30  C   UNK N   1      32.739  13.703   8.723  0.00  0.00     0.141 C 
HETATM   31  O   UNK N   1      32.296  13.774   7.590  0.00  0.00    -0.650 OA
BRANCH  30  32
HETATM   32  O   UNK N   1      32.619  12.553   9.413  0.00  0.00    -0.776 OA
HETATM   33  H   UNK N   1      32.768  11.712   9.026  0.00  0.00     0.167 HD
ENDBRANCH  30  32
ENDBRANCH  29  30
ENDBRANCH  28  29
BRANCH  28  34
HETATM   34  C   UNK N   1      34.271  17.236   9.023  0.00  0.00     0.178 C 
HETATM   35  O   UNK N   1      34.842  17.141  10.100  0.00  0.00    -0.293 OA
BRANCH  34  36
HETATM   36  C   UNK N   1      34.586  18.397   8.130  0.00  0.00     0.302 C 
HETATM   37  F   UNK N   1      35.531  19.229   8.706  0.00  0.00    -0.247 F 
ENDBRANCH  34  36
ENDBRANCH  28  34
ENDBRANCH  26  28
BRANCH  25  38
HETATM   38  O   UNK N   1      31.447  17.043   6.692  0.00  0.00    -0.348 OA
HETATM   39  H   UNK N   1      31.461  17.475   5.860  0.00  0.00     0.219 HD
ENDBRANCH  25  38
ENDBRANCH  23  25
ENDBRANCH   2  23
TORSDOF 17
ENDMDL
