MODEL 1
REMARK VINA RESULT:      -6.3      0.000      0.000
REMARK  5 active torsions:
REMARK  status: ('A' for Active; 'I' for Inactive)
REMARK    1  A    between atoms: C_7  and  C_3 
REMARK    2  A    between atoms: O_13  and  C_4 
REMARK    3  A    between atoms: C_8  and  C_7 
REMARK    4  A    between atoms: C_10  and  C_8 
REMARK    5  A    between atoms: O_12  and  C_10 
ROOT
HETATM    1  C   UNK N   1      30.943  18.129   8.987  0.00  0.00     0.010 A 
HETATM    2  C   UNK N   1      29.689  18.482   9.490  0.00  0.00     0.037 A 
HETATM    3  C   UNK N   1      31.064  17.449   7.773  0.00  0.00    -0.051 A 
HETATM    4  C   UNK N   1      28.536  18.154   8.777  0.00  0.00     0.065 A 
HETATM    5  C   UNK N   1      29.900  17.124   7.064  0.00  0.00     0.010 A 
HETATM    6  C   UNK N   1      28.641  17.474   7.561  0.00  0.00     0.037 A 
ENDROOT
BRANCH   3   7
HETATM    7  C   UNK N   1      32.385  17.036   7.167  0.00  0.00     0.129 C 
BRANCH   7   8
HETATM    8  C   UNK N   1      33.732  17.749   7.223  0.00  0.00     0.226 C 
HETATM    9  O   UNK N   1      34.241  18.006   6.142  0.00  0.00    -0.286 OA
BRANCH   8  10
HETATM   10  C   UNK N   1      34.496  18.166   8.434  0.00  0.00     0.213 C 
HETATM   11  O   UNK N   1      35.240  19.127   8.435  0.00  0.00    -0.644 OA
BRANCH  10  12
HETATM   12  O   UNK N   1      34.359  17.455   9.569  0.00  0.00    -0.771 OA
HETATM   13  H   UNK N   1      34.201  16.532   9.527  0.00  0.00     0.167 HD
ENDBRANCH  10  12
ENDBRANCH   8  10
ENDBRANCH   7   8
ENDBRANCH   3   7
BRANCH   4  14
HETATM   14  O   UNK N   1      27.330  18.493   9.259  0.00  0.00    -0.361 OA
HETATM   15  H   UNK N   1      26.622  17.880   9.223  0.00  0.00     0.217 HD
ENDBRANCH   4  14
TORSDOF 5
ENDMDL
MODEL 2
REMARK VINA RESULT:      -5.5      3.484      4.906
REMARK  5 active torsions:
REMARK  status: ('A' for Active; 'I' for Inactive)
REMARK    1  A    between atoms: C_7  and  C_3 
REMARK    2  A    between atoms: O_13  and  C_4 
REMARK    3  A    between atoms: C_8  and  C_7 
REMARK    4  A    between atoms: C_10  and  C_8 
REMARK    5  A    between atoms: O_12  and  C_10 
ROOT
HETATM    1  C   UNK N   1      34.223  15.970   5.884  0.00  0.00     0.010 A 
HETATM    2  C   UNK N   1      34.240  15.266   4.679  0.00  0.00     0.037 A 
HETATM    3  C   UNK N   1      33.525  17.174   6.003  0.00  0.00    -0.051 A 
HETATM    4  C   UNK N   1      33.554  15.766   3.572  0.00  0.00     0.065 A 
HETATM    5  C   UNK N   1      32.839  17.668   4.886  0.00  0.00     0.010 A 
HETATM    6  C   UNK N   1      32.852  16.968   3.675  0.00  0.00     0.037 A 
ENDROOT
BRANCH   3   7
HETATM    7  C   UNK N   1      33.462  17.989   7.274  0.00  0.00     0.129 C 
BRANCH   7   8
HETATM    8  C   UNK N   1      34.494  18.110   8.390  0.00  0.00     0.226 C 
HETATM    9  O   UNK N   1      35.226  19.086   8.333  0.00  0.00    -0.286 OA
BRANCH   8  10
HETATM   10  C   UNK N   1      34.713  17.181   9.536  0.00  0.00     0.213 C 
HETATM   11  O   UNK N   1      35.649  17.303  10.302  0.00  0.00    -0.644 OA
BRANCH  10  12
HETATM   12  O   UNK N   1      33.846  16.170   9.732  0.00  0.00    -0.771 OA
HETATM   13  H   UNK N   1      34.090  15.441  10.268  0.00  0.00     0.167 HD
ENDBRANCH  10  12
ENDBRANCH   8  10
ENDBRANCH   7   8
ENDBRANCH   3   7
BRANCH   4  14
HETATM   14  O   UNK N   1      33.570  15.090   2.412  0.00  0.00    -0.361 OA
HETATM   15  H   UNK N   1      33.380  15.533   1.609  0.00  0.00     0.217 HD
ENDBRANCH   4  14
TORSDOF 5
ENDMDL
MODEL 3
REMARK VINA RESULT:      -5.4      9.540     10.856
REMARK  5 active torsions:
REMARK  status: ('A' for Active; 'I' for Inactive)
REMARK    1  A    between atoms: C_7  and  C_3 
REMARK    2  A    between atoms: O_13  and  C_4 
REMARK    3  A    between atoms: C_8  and  C_7 
REMARK    4  A    between atoms: C_10  and  C_8 
REMARK    5  A    between atoms: O_12  and  C_10 
ROOT
HETATM    1  C   UNK N   1      35.589  11.172  17.571  0.00  0.00     0.010 A 
HETATM    2  C   UNK N   1      35.395  11.484  18.918  0.00  0.00     0.037 A 
HETATM    3  C   UNK N   1      35.559  12.167  16.591  0.00  0.00    -0.051 A 
HETATM    4  C   UNK N   1      35.167  12.806  19.299  0.00  0.00     0.065 A 
HETATM    5  C   UNK N   1      35.330  13.493  16.984  0.00  0.00     0.010 A 
HETATM    6  C   UNK N   1      35.134  13.813  18.332  0.00  0.00     0.037 A 
ENDROOT
BRANCH   3   7
HETATM    7  C   UNK N   1      35.761  11.905  15.117  0.00  0.00     0.129 C 
BRANCH   7   8
HETATM    8  C   UNK N   1      35.551  12.846  13.936  0.00  0.00     0.226 C 
HETATM    9  O   UNK N   1      34.507  12.698  13.319  0.00  0.00    -0.286 OA
BRANCH   8  10
HETATM   10  C   UNK N   1      36.465  13.920  13.450  0.00  0.00     0.213 C 
HETATM   11  O   UNK N   1      36.578  14.986  14.023  0.00  0.00    -0.644 OA
BRANCH  10  12
HETATM   12  O   UNK N   1      37.191  13.705  12.337  0.00  0.00    -0.771 OA
HETATM   13  H   UNK N   1      36.918  14.076  11.521  0.00  0.00     0.167 HD
ENDBRANCH  10  12
ENDBRANCH   8  10
ENDBRANCH   7   8
ENDBRANCH   3   7
BRANCH   4  14
HETATM   14  O   UNK N   1      34.980  13.108  20.594  0.00  0.00    -0.361 OA
HETATM   15  H   UNK N   1      34.111  13.170  20.940  0.00  0.00     0.217 HD
ENDBRANCH   4  14
TORSDOF 5
ENDMDL
MODEL 4
REMARK VINA RESULT:      -5.4      1.623      3.056
REMARK  5 active torsions:
REMARK  status: ('A' for Active; 'I' for Inactive)
REMARK    1  A    between atoms: C_7  and  C_3 
REMARK    2  A    between atoms: O_13  and  C_4 
REMARK    3  A    between atoms: C_8  and  C_7 
REMARK    4  A    between atoms: C_10  and  C_8 
REMARK    5  A    between atoms: O_12  and  C_10 
ROOT
HETATM    1  C   UNK N   1      29.733  16.894   7.020  0.00  0.00     0.010 A 
HETATM    2  C   UNK N   1      28.533  17.291   7.613  0.00  0.00     0.037 A 
HETATM    3  C   UNK N   1      30.962  17.271   7.566  0.00  0.00    -0.051 A 
HETATM    4  C   UNK N   1      28.552  18.074   8.767  0.00  0.00     0.065 A 
HETATM    5  C   UNK N   1      30.972  18.057   8.726  0.00  0.00     0.010 A 
HETATM    6  C   UNK N   1      29.773  18.458   9.325  0.00  0.00     0.037 A 
ENDROOT
BRANCH   3   7
HETATM    7  C   UNK N   1      32.299  16.880   6.981  0.00  0.00     0.129 C 
BRANCH   7   8
HETATM    8  C   UNK N   1      33.007  17.434   5.749  0.00  0.00     0.226 C 
HETATM    9  O   UNK N   1      34.118  17.905   5.943  0.00  0.00    -0.286 OA
BRANCH   8  10
HETATM   10  C   UNK N   1      32.506  17.468   4.345  0.00  0.00     0.213 C 
HETATM   11  O   UNK N   1      33.111  16.953   3.425  0.00  0.00    -0.644 OA
BRANCH  10  12
HETATM   12  O   UNK N   1      31.342  18.091   4.082  0.00  0.00    -0.771 OA
HETATM   13  H   UNK N   1      30.548  17.595   4.022  0.00  0.00     0.167 HD
ENDBRANCH  10  12
ENDBRANCH   8  10
ENDBRANCH   7   8
ENDBRANCH   3   7
BRANCH   4  14
HETATM   14  O   UNK N   1      27.399  18.455   9.338  0.00  0.00    -0.361 OA
HETATM   15  H   UNK N   1      26.645  18.621   8.806  0.00  0.00     0.217 HD
ENDBRANCH   4  14
TORSDOF 5
ENDMDL
MODEL 5
REMARK VINA RESULT:      -5.4     10.048     11.407
REMARK  5 active torsions:
REMARK  status: ('A' for Active; 'I' for Inactive)
REMARK    1  A    between atoms: C_7  and  C_3 
REMARK    2  A    between atoms: O_13  and  C_4 
REMARK    3  A    between atoms: C_8  and  C_7 
REMARK    4  A    between atoms: C_10  and  C_8 
REMARK    5  A    between atoms: O_12  and  C_10 
ROOT
HETATM    1  C   UNK N   1      35.091  13.350  18.280  0.00  0.00     0.010 A 
HETATM    2  C   UNK N   1      35.266  12.829  19.564  0.00  0.00     0.037 A 
HETATM    3  C   UNK N   1      35.183  12.529  17.154  0.00  0.00    -0.051 A 
HETATM    4  C   UNK N   1      35.536  11.471  19.732  0.00  0.00     0.065 A 
HETATM    5  C   UNK N   1      35.455  11.166  17.333  0.00  0.00     0.010 A 
HETATM    6  C   UNK N   1      35.632  10.638  18.616  0.00  0.00     0.037 A 
ENDROOT
BRANCH   3   7
HETATM    7  C   UNK N   1      35.006  13.022  15.736  0.00  0.00     0.129 C 
BRANCH   7   8
HETATM    8  C   UNK N   1      36.033  13.654  14.804  0.00  0.00     0.226 C 
HETATM    9  O   UNK N   1      37.045  14.080  15.340  0.00  0.00    -0.286 OA
BRANCH   8  10
HETATM   10  C   UNK N   1      35.948  13.813  13.324  0.00  0.00     0.213 C 
HETATM   11  O   UNK N   1      34.887  13.943  12.743  0.00  0.00    -0.644 OA
BRANCH  10  12
HETATM   12  O   UNK N   1      37.083  13.813  12.600  0.00  0.00    -0.771 OA
HETATM   13  H   UNK N   1      37.273  13.097  12.026  0.00  0.00     0.167 HD
ENDBRANCH  10  12
ENDBRANCH   8  10
ENDBRANCH   7   8
ENDBRANCH   3   7
BRANCH   4  14
HETATM   14  O   UNK N   1      35.705  10.969  20.966  0.00  0.00    -0.361 OA
HETATM   15  H   UNK N   1      36.566  10.776  21.280  0.00  0.00     0.217 HD
ENDBRANCH   4  14
TORSDOF 5
ENDMDL
MODEL 6
REMARK VINA RESULT:      -5.3      9.339     11.621
REMARK  5 active torsions:
REMARK  status: ('A' for Active; 'I' for Inactive)
REMARK    1  A    between atoms: C_7  and  C_3 
REMARK    2  A    between atoms: O_13  and  C_4 
REMARK    3  A    between atoms: C_8  and  C_7 
REMARK    4  A    between atoms: C_10  and  C_8 
REMARK    5  A    between atoms: O_12  and  C_10 
ROOT
HETATM    1  C   UNK N   1      23.530  13.394   8.968  0.00  0.00     0.010 A 
HETATM    2  C   UNK N   1      24.582  12.883   9.731  0.00  0.00     0.037 A 
HETATM    3  C   UNK N   1      22.206  13.276   9.399  0.00  0.00    -0.051 A 
HETATM    4  C   UNK N   1      24.316  12.244  10.942  0.00  0.00     0.065 A 
HETATM    5  C   UNK N   1      21.950  12.633  10.617  0.00  0.00     0.010 A 
HETATM    6  C   UNK N   1      22.999  12.118  11.386  0.00  0.00     0.037 A 
ENDROOT
BRANCH   3   7
HETATM    7  C   UNK N   1      21.019  13.804   8.628  0.00  0.00     0.129 C 
BRANCH   7   8
HETATM    8  C   UNK N   1      20.056  14.926   8.997  0.00  0.00     0.226 C 
HETATM    9  O   UNK N   1      19.085  14.595   9.661  0.00  0.00    -0.286 OA
BRANCH   8  10
HETATM   10  C   UNK N   1      20.160  16.372   8.646  0.00  0.00     0.213 C 
HETATM   11  O   UNK N   1      21.057  16.810   7.953  0.00  0.00    -0.644 OA
BRANCH  10  12
HETATM   12  O   UNK N   1      19.228  17.225   9.110  0.00  0.00    -0.771 OA
HETATM   13  H   UNK N   1      19.019  17.238  10.024  0.00  0.00     0.167 HD
ENDBRANCH  10  12
ENDBRANCH   8  10
ENDBRANCH   7   8
ENDBRANCH   3   7
BRANCH   4  14
HETATM   14  O   UNK N   1      25.327  11.753  11.676  0.00  0.00    -0.361 OA
HETATM   15  H   UNK N   1      25.284  10.876  12.004  0.00  0.00     0.217 HD
ENDBRANCH   4  14
TORSDOF 5
ENDMDL
MODEL 7
REMARK VINA RESULT:      -5.2     10.781     12.165
REMARK  5 active torsions:
REMARK  status: ('A' for Active; 'I' for Inactive)
REMARK    1  A    between atoms: C_7  and  C_3 
REMARK    2  A    between atoms: O_13  and  C_4 
REMARK    3  A    between atoms: C_8  and  C_7 
REMARK    4  A    between atoms: C_10  and  C_8 
REMARK    5  A    between atoms: O_12  and  C_10 
ROOT
HETATM    1  C   UNK N   1      21.854  14.102   8.602  0.00  0.00     0.010 A 
HETATM    2  C   UNK N   1      22.540  13.052   9.215  0.00  0.00     0.037 A 
HETATM    3  C   UNK N   1      20.585  14.485   9.043  0.00  0.00    -0.051 A 
HETATM    4  C   UNK N   1      21.957  12.370  10.283  0.00  0.00     0.065 A 
HETATM    5  C   UNK N   1      20.007  13.794  10.116  0.00  0.00     0.010 A 
HETATM    6  C   UNK N   1      20.689  12.741  10.735  0.00  0.00     0.037 A 
ENDROOT
BRANCH   3   7
HETATM    7  C   UNK N   1      19.784  15.610   8.429  0.00  0.00     0.129 C 
BRANCH   7   8
HETATM    8  C   UNK N   1      20.081  17.106   8.419  0.00  0.00     0.226 C 
HETATM    9  O   UNK N   1      20.967  17.465   7.659  0.00  0.00    -0.286 OA
BRANCH   8  10
HETATM   10  C   UNK N   1      19.420  18.174   9.223  0.00  0.00     0.213 C 
HETATM   11  O   UNK N   1      20.042  19.092   9.721  0.00  0.00    -0.644 OA
BRANCH  10  12
HETATM   12  O   UNK N   1      18.087  18.123   9.406  0.00  0.00    -0.771 OA
HETATM   13  H   UNK N   1      17.543  18.811   9.077  0.00  0.00     0.167 HD
ENDBRANCH  10  12
ENDBRANCH   8  10
ENDBRANCH   7   8
ENDBRANCH   3   7
BRANCH   4  14
HETATM   14  O   UNK N   1      22.616  11.360  10.873  0.00  0.00    -0.361 OA
HETATM   15  H   UNK N   1      23.112  10.759  10.355  0.00  0.00     0.217 HD
ENDBRANCH   4  14
TORSDOF 5
ENDMDL
MODEL 8
REMARK VINA RESULT:      -5.2     16.259     17.376
REMARK  5 active torsions:
REMARK  status: ('A' for Active; 'I' for Inactive)
REMARK    1  A    between atoms: C_7  and  C_3 
REMARK    2  A    between atoms: O_13  and  C_4 
REMARK    3  A    between atoms: C_8  and  C_7 
REMARK    4  A    between atoms: C_10  and  C_8 
REMARK    5  A    between atoms: O_12  and  C_10 
ROOT
HETATM    1  C   UNK N   1      26.439  25.345  -3.918  0.00  0.00     0.010 A 
HETATM    2  C   UNK N   1      26.333  26.596  -3.306  0.00  0.00     0.037 A 
HETATM    3  C   UNK N   1      25.863  25.106  -5.168  0.00  0.00    -0.051 A 
HETATM    4  C   UNK N   1      25.644  27.626  -3.945  0.00  0.00     0.065 A 
HETATM    5  C   UNK N   1      25.173  26.147  -5.801  0.00  0.00     0.010 A 
HETATM    6  C   UNK N   1      25.062  27.403  -5.194  0.00  0.00     0.037 A 
ENDROOT
BRANCH   3   7
HETATM    7  C   UNK N   1      25.937  23.781  -5.889  0.00  0.00     0.129 C 
BRANCH   7   8
HETATM    8  C   UNK N   1      26.155  23.506  -7.373  0.00  0.00     0.226 C 
HETATM    9  O   UNK N   1      27.319  23.470  -7.741  0.00  0.00    -0.286 OA
BRANCH   8  10
HETATM   10  C   UNK N   1      25.119  23.278  -8.421  0.00  0.00     0.213 C 
HETATM   11  O   UNK N   1      25.084  23.920  -9.453  0.00  0.00    -0.644 OA
BRANCH  10  12
HETATM   12  O   UNK N   1      24.187  22.327  -8.222  0.00  0.00    -0.771 OA
HETATM   13  H   UNK N   1      24.075  21.952  -7.371  0.00  0.00     0.167 HD
ENDBRANCH  10  12
ENDBRANCH   8  10
ENDBRANCH   7   8
ENDBRANCH   3   7
BRANCH   4  14
HETATM   14  O   UNK N   1      25.541  28.829  -3.357  0.00  0.00    -0.361 OA
HETATM   15  H   UNK N   1      24.839  29.404  -3.588  0.00  0.00     0.217 HD
ENDBRANCH   4  14
TORSDOF 5
ENDMDL
MODEL 9
REMARK VINA RESULT:      -5.1      9.859     11.174
REMARK  5 active torsions:
REMARK  status: ('A' for Active; 'I' for Inactive)
REMARK    1  A    between atoms: C_7  and  C_3 
REMARK    2  A    between atoms: O_13  and  C_4 
REMARK    3  A    between atoms: C_8  and  C_7 
REMARK    4  A    between atoms: C_10  and  C_8 
REMARK    5  A    between atoms: O_12  and  C_10 
ROOT
HETATM    1  C   UNK N   1      35.300  13.379  16.971  0.00  0.00     0.010 A 
HETATM    2  C   UNK N   1      35.148  13.809  18.291  0.00  0.00     0.037 A 
HETATM    3  C   UNK N   1      35.480  12.027  16.672  0.00  0.00    -0.051 A 
HETATM    4  C   UNK N   1      35.174  12.880  19.331  0.00  0.00     0.065 A 
HETATM    5  C   UNK N   1      35.505  11.102  17.724  0.00  0.00     0.010 A 
HETATM    6  C   UNK N   1      35.353  11.525  19.049  0.00  0.00     0.037 A 
ENDROOT
BRANCH   3   7
HETATM    7  C   UNK N   1      35.651  11.490  15.270  0.00  0.00     0.129 C 
BRANCH   7   8
HETATM    8  C   UNK N   1      34.637  11.432  14.133  0.00  0.00     0.226 C 
HETATM    9  O   UNK N   1      33.616  10.802  14.364  0.00  0.00    -0.286 OA
BRANCH   8  10
HETATM   10  C   UNK N   1      34.744  12.052  12.781  0.00  0.00     0.213 C 
HETATM   11  O   UNK N   1      35.069  11.415  11.797  0.00  0.00    -0.644 OA
BRANCH  10  12
HETATM   12  O   UNK N   1      34.472  13.362  12.639  0.00  0.00    -0.771 OA
HETATM   13  H   UNK N   1      34.854  13.986  13.226  0.00  0.00     0.167 HD
ENDBRANCH  10  12
ENDBRANCH   8  10
ENDBRANCH   7   8
ENDBRANCH   3   7
BRANCH   4  14
HETATM   14  O   UNK N   1      35.028  13.292  20.600  0.00  0.00    -0.361 OA
HETATM   15  H   UNK N   1      35.035  12.668  21.299  0.00  0.00     0.217 HD
ENDBRANCH   4  14
TORSDOF 5
ENDMDL
