MODEL 1
REMARK VINA RESULT:      -7.6      0.000      0.000
REMARK  8 active torsions:
REMARK  status: ('A' for Active; 'I' for Inactive)
REMARK    1  A    between atoms: C_9  and  C_4 
REMARK    2  A    between atoms: C_10  and  C_4 
REMARK    3  A    between atoms: C_10  and  C_6 
REMARK    4  A    between atoms: C_15  and  C_6 
REMARK    5  A    between atoms: C_14  and  C_8 
REMARK    6  A    between atoms: C_17  and  C_8 
REMARK    7  A    between atoms: C_10  and  N_24 
REMARK       I    between atoms: N_27  and  C_15 
REMARK    8  A    between atoms: O_29  and  C_16 
ROOT
HETATM    1  C   UNK N   1      21.123  14.765   3.211  0.00  0.00     0.039 C 
HETATM    2  C   UNK N   1      19.878  15.132   4.015  0.00  0.00     0.123 C 
HETATM    3  C   UNK N   1      22.322  15.592   3.667  0.00  0.00     0.128 C 
HETATM    4  C   UNK N   1      21.172  17.802   3.493  0.00  0.00     0.169 C 
HETATM    5  C   UNK N   1      22.070  16.945   5.670  0.00  0.00     0.222 C 
HETATM    6  C   UNK N   1      19.723  17.429   3.169  0.00  0.00     0.135 C 
HETATM    7  N   UNK N   1      19.203  16.264   3.415  0.00  0.00    -0.373 N 
ATOM      8  HN  UNK N   1      18.224  16.133   3.159  1.00  0.00     0.161 HD
HETATM    9  N   UNK N   1      21.889  16.820   4.314  0.00  0.00    -0.340 N 
HETATM   10  O   UNK N   1      21.639  17.911   6.274  0.00  0.00    -0.273 OA
ENDROOT
BRANCH   5  11
HETATM   11  C   UNK N   1      22.783  15.889   6.472  0.00  0.00     0.127 C 
BRANCH  11  12
HETATM   12  C   UNK N   1      21.950  15.244   7.585  0.00  0.00     0.087 C 
BRANCH  12  13
HETATM   13  C   UNK N   1      22.291  13.746   7.612  0.00  0.00     0.067 C 
BRANCH  13  14
HETATM   14  C   UNK N   1      22.474  13.177   8.984  0.00  0.00    -0.015 A 
HETATM   15  C   UNK N   1      21.350  12.876   9.758  0.00  0.00     0.055 A 
HETATM   16  C   UNK N   1      21.505  12.314  11.027  0.00  0.00     0.155 A 
HETATM   17  C   UNK N   1      22.787  12.051  11.526  0.00  0.00     0.157 A 
HETATM   18  F   UNK N   1      20.411  12.016  11.768  0.00  0.00    -0.203 F 
HETATM   19  C   UNK N   1      23.912  12.361  10.758  0.00  0.00     0.088 A 
HETATM   20  F   UNK N   1      22.941  11.496  12.752  0.00  0.00    -0.203 F 
HETATM   21  C   UNK N   1      23.761  12.926   9.490  0.00  0.00     0.125 A 
HETATM   22  F   UNK N   1      24.863  13.214   8.751  0.00  0.00    -0.205 F 
ENDBRANCH  13  14
ENDBRANCH  12  13
BRANCH  12  23
HETATM   23  N   UNK N   1      20.518  15.487   7.414  0.00  0.00    -0.425 N 
HETATM   24  H   UNK N   1      19.688  15.356   6.836  0.00  0.00     0.150 HD
HETATM   25  H   UNK N   1      20.218  16.023   8.228  0.00  0.00     0.150 HD
ENDBRANCH  12  23
ENDBRANCH  11  12
ENDBRANCH   5  11
BRANCH   4  26
HETATM   26  C   UNK N   1      21.426  19.286   3.864  0.00  0.00     0.151 C 
BRANCH  26  27
HETATM   27  C   UNK N   1      21.634  20.334   2.764  0.00  0.00     0.390 C 
HETATM   28  F   UNK N   1      22.908  20.854   2.881  0.00  0.00    -0.171 F 
HETATM   29  F   UNK N   1      21.479  19.816   1.490  0.00  0.00    -0.171 F 
HETATM   30  F   UNK N   1      20.727  21.360   2.950  0.00  0.00    -0.171 F 
ENDBRANCH  26  27
ENDBRANCH   4  26
BRANCH   6  31
HETATM   31  O   UNK N   1      18.962  18.341   2.537  0.00  0.00    -0.348 OA
HETATM   32  H   UNK N   1      19.123  18.634   1.661  0.00  0.00     0.219 HD
ENDBRANCH   6  31
TORSDOF 8
ENDMDL
MODEL 2
REMARK VINA RESULT:      -7.3      2.081      2.655
REMARK  8 active torsions:
REMARK  status: ('A' for Active; 'I' for Inactive)
REMARK    1  A    between atoms: C_9  and  C_4 
REMARK    2  A    between atoms: C_10  and  C_4 
REMARK    3  A    between atoms: C_10  and  C_6 
REMARK    4  A    between atoms: C_15  and  C_6 
REMARK    5  A    between atoms: C_14  and  C_8 
REMARK    6  A    between atoms: C_17  and  C_8 
REMARK    7  A    between atoms: C_10  and  N_24 
REMARK       I    between atoms: N_27  and  C_15 
REMARK    8  A    between atoms: O_29  and  C_16 
ROOT
HETATM    1  C   UNK N   1      20.448  17.318   2.478  0.00  0.00     0.039 C 
HETATM    2  C   UNK N   1      19.865  18.581   3.108  0.00  0.00     0.123 C 
HETATM    3  C   UNK N   1      21.456  16.664   3.419  0.00  0.00     0.128 C 
HETATM    4  C   UNK N   1      22.787  18.737   3.828  0.00  0.00     0.169 C 
HETATM    5  C   UNK N   1      21.619  17.525   5.685  0.00  0.00     0.222 C 
HETATM    6  C   UNK N   1      21.977  19.829   3.123  0.00  0.00     0.135 C 
HETATM    7  N   UNK N   1      20.715  19.721   2.834  0.00  0.00    -0.373 N 
ATOM      8  HN  UNK N   1      20.281  20.518   2.367  1.00  0.00     0.161 HD
HETATM    9  N   UNK N   1      21.986  17.631   4.365  0.00  0.00    -0.340 N 
HETATM   10  O   UNK N   1      21.957  18.365   6.500  0.00  0.00    -0.273 OA
ENDROOT
BRANCH   5  11
HETATM   11  C   UNK N   1      20.764  16.387   6.178  0.00  0.00     0.127 C 
BRANCH  11  12
HETATM   12  C   UNK N   1      21.029  15.953   7.624  0.00  0.00     0.087 C 
BRANCH  12  13
HETATM   13  C   UNK N   1      20.660  14.466   7.737  0.00  0.00     0.067 C 
BRANCH  13  14
HETATM   14  C   UNK N   1      21.368  13.734   8.833  0.00  0.00    -0.015 A 
HETATM   15  C   UNK N   1      20.637  13.258   9.925  0.00  0.00     0.055 A 
HETATM   16  C   UNK N   1      21.278  12.544  10.939  0.00  0.00     0.155 A 
HETATM   17  C   UNK N   1      22.657  12.305  10.864  0.00  0.00     0.157 A 
HETATM   18  F   UNK N   1      20.562  12.077  11.990  0.00  0.00    -0.203 F 
HETATM   19  C   UNK N   1      23.392  12.789   9.779  0.00  0.00     0.088 A 
HETATM   20  F   UNK N   1      23.281  11.603  11.840  0.00  0.00    -0.203 F 
HETATM   21  C   UNK N   1      22.753  13.505   8.764  0.00  0.00     0.125 A 
HETATM   22  F   UNK N   1      23.477  13.962   7.712  0.00  0.00    -0.205 F 
ENDBRANCH  13  14
ENDBRANCH  12  13
BRANCH  12  23
HETATM   23  N   UNK N   1      20.309  16.783   8.589  0.00  0.00    -0.425 N 
HETATM   24  H   UNK N   1      19.440  16.953   9.095  0.00  0.00     0.150 HD
HETATM   25  H   UNK N   1      20.961  17.508   8.887  0.00  0.00     0.150 HD
ENDBRANCH  12  23
ENDBRANCH  11  12
ENDBRANCH   5  11
BRANCH   4  26
HETATM   26  C   UNK N   1      23.936  19.228   4.745  0.00  0.00     0.151 C 
BRANCH  26  27
HETATM   27  C   UNK N   1      25.375  19.290   4.215  0.00  0.00     0.390 C 
HETATM   28  F   UNK N   1      25.629  20.574   3.773  0.00  0.00    -0.171 F 
HETATM   29  F   UNK N   1      26.316  18.953   5.171  0.00  0.00    -0.171 F 
HETATM   30  F   UNK N   1      25.491  18.430   3.139  0.00  0.00    -0.171 F 
ENDBRANCH  26  27
ENDBRANCH   4  26
BRANCH   6  31
HETATM   31  O   UNK N   1      22.626  20.939   2.725  0.00  0.00    -0.348 OA
HETATM   32  H   UNK N   1      23.533  21.102   2.901  0.00  0.00     0.219 HD
ENDBRANCH   6  31
TORSDOF 8
ENDMDL
MODEL 3
REMARK VINA RESULT:      -7.2      2.287      3.286
REMARK  8 active torsions:
REMARK  status: ('A' for Active; 'I' for Inactive)
REMARK    1  A    between atoms: C_9  and  C_4 
REMARK    2  A    between atoms: C_10  and  C_4 
REMARK    3  A    between atoms: C_10  and  C_6 
REMARK    4  A    between atoms: C_15  and  C_6 
REMARK    5  A    between atoms: C_14  and  C_8 
REMARK    6  A    between atoms: C_17  and  C_8 
REMARK    7  A    between atoms: C_10  and  N_24 
REMARK       I    between atoms: N_27  and  C_15 
REMARK    8  A    between atoms: O_29  and  C_16 
ROOT
HETATM    1  C   UNK N   1      20.235  17.931   2.417  0.00  0.00     0.039 C 
HETATM    2  C   UNK N   1      19.904  19.231   3.145  0.00  0.00     0.123 C 
HETATM    3  C   UNK N   1      21.188  17.076   3.248  0.00  0.00     0.128 C 
HETATM    4  C   UNK N   1      22.855  18.892   3.648  0.00  0.00     0.169 C 
HETATM    5  C   UNK N   1      21.638  17.773   5.532  0.00  0.00     0.222 C 
HETATM    6  C   UNK N   1      22.183  20.133   3.057  0.00  0.00     0.135 C 
HETATM    7  N   UNK N   1      20.904  20.239   2.859  0.00  0.00    -0.373 N 
ATOM      8  HN  UNK N   1      20.571  21.119   2.462  1.00  0.00     0.161 HD
HETATM    9  N   UNK N   1      21.928  17.894   4.195  0.00  0.00    -0.340 N 
HETATM   10  O   UNK N   1      22.159  18.503   6.356  0.00  0.00    -0.273 OA
ENDROOT
BRANCH   5  11
HETATM   11  C   UNK N   1      20.649  16.755   6.036  0.00  0.00     0.127 C 
BRANCH  11  12
HETATM   12  C   UNK N   1      20.878  16.282   7.476  0.00  0.00     0.087 C 
BRANCH  12  13
HETATM   13  C   UNK N   1      20.515  14.791   7.538  0.00  0.00     0.067 C 
BRANCH  13  14
HETATM   14  C   UNK N   1      21.315  13.999   8.525  0.00  0.00    -0.015 A 
HETATM   15  C   UNK N   1      22.624  13.627   8.205  0.00  0.00     0.055 A 
HETATM   16  C   UNK N   1      23.394  12.916   9.129  0.00  0.00     0.155 A 
HETATM   17  C   UNK N   1      22.854  12.575  10.376  0.00  0.00     0.157 A 
HETATM   18  F   UNK N   1      24.664  12.567   8.817  0.00  0.00    -0.203 F 
HETATM   19  C   UNK N   1      21.543  12.936  10.693  0.00  0.00     0.088 A 
HETATM   20  F   UNK N   1      23.601  11.895  11.279  0.00  0.00    -0.203 F 
HETATM   21  C   UNK N   1      20.770  13.645   9.771  0.00  0.00     0.125 A 
HETATM   22  F   UNK N   1      19.500  13.998  10.095  0.00  0.00    -0.205 F 
ENDBRANCH  13  14
ENDBRANCH  12  13
BRANCH  12  23
HETATM   23  N   UNK N   1      20.127  17.081   8.445  0.00  0.00    -0.425 N 
HETATM   24  H   UNK N   1      19.796  17.178   9.405  0.00  0.00     0.150 HD
HETATM   25  H   UNK N   1      19.786  17.899   7.940  0.00  0.00     0.150 HD
ENDBRANCH  12  23
ENDBRANCH  11  12
ENDBRANCH   5  11
BRANCH   4  26
HETATM   26  C   UNK N   1      24.127  19.146   4.497  0.00  0.00     0.151 C 
BRANCH  26  27
HETATM   27  C   UNK N   1      25.519  18.930   3.889  0.00  0.00     0.390 C 
HETATM   28  F   UNK N   1      26.436  18.800   4.913  0.00  0.00    -0.171 F 
HETATM   29  F   UNK N   1      25.587  17.808   3.083  0.00  0.00    -0.171 F 
HETATM   30  F   UNK N   1      25.856  20.045   3.144  0.00  0.00    -0.171 F 
ENDBRANCH  26  27
ENDBRANCH   4  26
BRANCH   6  31
HETATM   31  O   UNK N   1      22.972  21.150   2.661  0.00  0.00    -0.348 OA
HETATM   32  H   UNK N   1      23.200  21.313   1.766  0.00  0.00     0.219 HD
ENDBRANCH   6  31
TORSDOF 8
ENDMDL
MODEL 4
REMARK VINA RESULT:      -7.2      9.130     11.441
REMARK  8 active torsions:
REMARK  status: ('A' for Active; 'I' for Inactive)
REMARK    1  A    between atoms: C_9  and  C_4 
REMARK    2  A    between atoms: C_10  and  C_4 
REMARK    3  A    between atoms: C_10  and  C_6 
REMARK    4  A    between atoms: C_15  and  C_6 
REMARK    5  A    between atoms: C_14  and  C_8 
REMARK    6  A    between atoms: C_17  and  C_8 
REMARK    7  A    between atoms: C_10  and  N_24 
REMARK       I    between atoms: N_27  and  C_15 
REMARK    8  A    between atoms: O_29  and  C_16 
ROOT
HETATM    1  C   UNK N   1      34.586  17.654   8.888  0.00  0.00     0.039 C 
HETATM    2  C   UNK N   1      34.214  16.193   9.127  0.00  0.00     0.123 C 
HETATM    3  C   UNK N   1      33.546  18.336   8.002  0.00  0.00     0.128 C 
HETATM    4  C   UNK N   1      33.577  16.597   6.210  0.00  0.00     0.169 C 
HETATM    5  C   UNK N   1      31.500  17.119   7.512  0.00  0.00     0.222 C 
HETATM    6  C   UNK N   1      34.476  15.501   6.788  0.00  0.00     0.135 C 
HETATM    7  N   UNK N   1      34.722  15.360   8.056  0.00  0.00    -0.373 N 
ATOM      8  HN  UNK N   1      35.334  14.588   8.323  1.00  0.00     0.161 HD
HETATM    9  N   UNK N   1      32.819  17.359   7.209  0.00  0.00    -0.340 N 
HETATM   10  O   UNK N   1      30.875  16.243   6.942  0.00  0.00    -0.273 OA
ENDROOT
BRANCH   5  11
HETATM   11  C   UNK N   1      30.779  17.907   8.574  0.00  0.00     0.127 C 
BRANCH  11  12
HETATM   12  C   UNK N   1      29.540  17.223   9.162  0.00  0.00     0.087 C 
BRANCH  12  13
HETATM   13  C   UNK N   1      28.354  18.183   8.990  0.00  0.00     0.067 C 
BRANCH  13  14
HETATM   14  C   UNK N   1      27.984  18.462   7.566  0.00  0.00    -0.015 A 
HETATM   15  C   UNK N   1      27.947  19.783   7.112  0.00  0.00     0.055 A 
HETATM   16  C   UNK N   1      27.637  20.057   5.778  0.00  0.00     0.155 A 
HETATM   17  C   UNK N   1      27.360  19.006   4.894  0.00  0.00     0.157 A 
HETATM   18  F   UNK N   1      27.612  21.339   5.343  0.00  0.00    -0.203 F 
HETATM   19  C   UNK N   1      27.385  17.686   5.348  0.00  0.00     0.088 A 
HETATM   20  F   UNK N   1      27.069  19.266   3.597  0.00  0.00    -0.203 F 
HETATM   21  C   UNK N   1      27.694  17.409   6.682  0.00  0.00     0.125 A 
HETATM   22  F   UNK N   1      27.723  16.121   7.107  0.00  0.00    -0.205 F 
ENDBRANCH  13  14
ENDBRANCH  12  13
BRANCH  12  23
HETATM   23  N   UNK N   1      29.739  16.825  10.556  0.00  0.00    -0.425 N 
HETATM   24  H   UNK N   1      30.345  16.842  11.375  0.00  0.00     0.150 HD
HETATM   25  H   UNK N   1      28.906  16.302  10.826  0.00  0.00     0.150 HD
ENDBRANCH  12  23
ENDBRANCH  11  12
ENDBRANCH   5  11
BRANCH   4  26
HETATM   26  C   UNK N   1      32.792  16.226   4.926  0.00  0.00     0.151 C 
BRANCH  26  27
HETATM   27  C   UNK N   1      32.355  17.321   3.943  0.00  0.00     0.390 C 
HETATM   28  F   UNK N   1      32.482  16.837   2.655  0.00  0.00    -0.171 F 
HETATM   29  F   UNK N   1      31.049  17.731   4.139  0.00  0.00    -0.171 F 
HETATM   30  F   UNK N   1      33.199  18.407   4.084  0.00  0.00    -0.171 F 
ENDBRANCH  26  27
ENDBRANCH   4  26
BRANCH   6  31
HETATM   31  O   UNK N   1      35.097  14.674   5.926  0.00  0.00    -0.348 OA
HETATM   32  H   UNK N   1      34.736  14.419   5.099  0.00  0.00     0.219 HD
ENDBRANCH   6  31
TORSDOF 8
ENDMDL
MODEL 5
REMARK VINA RESULT:      -7.2      1.610      2.537
REMARK  8 active torsions:
REMARK  status: ('A' for Active; 'I' for Inactive)
REMARK    1  A    between atoms: C_9  and  C_4 
REMARK    2  A    between atoms: C_10  and  C_4 
REMARK    3  A    between atoms: C_10  and  C_6 
REMARK    4  A    between atoms: C_15  and  C_6 
REMARK    5  A    between atoms: C_14  and  C_8 
REMARK    6  A    between atoms: C_17  and  C_8 
REMARK    7  A    between atoms: C_10  and  N_24 
REMARK       I    between atoms: N_27  and  C_15 
REMARK    8  A    between atoms: O_29  and  C_16 
ROOT
HETATM    1  C   UNK N   1      22.100  14.539   2.149  0.00  0.00     0.039 C 
HETATM    2  C   UNK N   1      20.650  14.338   1.716  0.00  0.00     0.123 C 
HETATM    3  C   UNK N   1      22.173  15.415   3.396  0.00  0.00     0.128 C 
HETATM    4  C   UNK N   1      20.742  17.249   2.488  0.00  0.00     0.169 C 
HETATM    5  C   UNK N   1      20.092  15.950   4.531  0.00  0.00     0.222 C 
HETATM    6  C   UNK N   1      20.249  16.691   1.151  0.00  0.00     0.135 C 
HETATM    7  N   UNK N   1      20.223  15.426   0.860  0.00  0.00    -0.373 N 
ATOM      8  HN  UNK N   1      19.868  15.173  -0.063  1.00  0.00     0.161 HD
HETATM    9  N   UNK N   1      20.982  16.237   3.524  0.00  0.00    -0.340 N 
HETATM   10  O   UNK N   1      19.033  16.545   4.622  0.00  0.00    -0.273 OA
ENDROOT
BRANCH   5  11
HETATM   11  C   UNK N   1      20.371  14.874   5.548  0.00  0.00     0.127 C 
BRANCH  11  12
HETATM   12  C   UNK N   1      21.029  15.360   6.845  0.00  0.00     0.087 C 
BRANCH  12  13
HETATM   13  C   UNK N   1      20.520  14.465   7.985  0.00  0.00     0.067 C 
BRANCH  13  14
HETATM   14  C   UNK N   1      21.599  13.785   8.768  0.00  0.00    -0.015 A 
HETATM   15  C   UNK N   1      22.891  13.717   8.240  0.00  0.00     0.055 A 
HETATM   16  C   UNK N   1      23.916  13.115   8.973  0.00  0.00     0.155 A 
HETATM   17  C   UNK N   1      23.649  12.578  10.239  0.00  0.00     0.157 A 
HETATM   18  F   UNK N   1      25.168  13.061   8.459  0.00  0.00    -0.203 F 
HETATM   19  C   UNK N   1      22.357  12.635  10.764  0.00  0.00     0.088 A 
HETATM   20  F   UNK N   1      24.643  12.002  10.958  0.00  0.00    -0.203 F 
HETATM   21  C   UNK N   1      21.329  13.234  10.032  0.00  0.00     0.125 A 
HETATM   22  F   UNK N   1      20.079  13.291  10.559  0.00  0.00    -0.205 F 
ENDBRANCH  13  14
ENDBRANCH  12  13
BRANCH  12  23
HETATM   23  N   UNK N   1      20.778  16.779   7.093  0.00  0.00    -0.425 N 
HETATM   24  H   UNK N   1      20.150  17.486   7.476  0.00  0.00     0.150 HD
HETATM   25  H   UNK N   1      21.583  17.282   6.720  0.00  0.00     0.150 HD
ENDBRANCH  12  23
ENDBRANCH  11  12
ENDBRANCH   5  11
BRANCH   4  26
HETATM   26  C   UNK N   1      20.052  18.547   2.980  0.00  0.00     0.151 C 
BRANCH  26  27
HETATM   27  C   UNK N   1      20.868  19.634   3.693  0.00  0.00     0.390 C 
HETATM   28  F   UNK N   1      21.062  19.254   5.007  0.00  0.00    -0.171 F 
HETATM   29  F   UNK N   1      22.101  19.854   3.105  0.00  0.00    -0.171 F 
HETATM   30  F   UNK N   1      20.144  20.811   3.684  0.00  0.00    -0.171 F 
ENDBRANCH  26  27
ENDBRANCH   4  26
BRANCH   6  31
HETATM   31  O   UNK N   1      19.879  17.568   0.199  0.00  0.00    -0.348 OA
HETATM   32  H   UNK N   1      19.147  17.437  -0.372  0.00  0.00     0.219 HD
ENDBRANCH   6  31
TORSDOF 8
ENDMDL
MODEL 6
REMARK VINA RESULT:      -7.1     13.261     14.971
REMARK  8 active torsions:
REMARK  status: ('A' for Active; 'I' for Inactive)
REMARK    1  A    between atoms: C_9  and  C_4 
REMARK    2  A    between atoms: C_10  and  C_4 
REMARK    3  A    between atoms: C_10  and  C_6 
REMARK    4  A    between atoms: C_15  and  C_6 
REMARK    5  A    between atoms: C_14  and  C_8 
REMARK    6  A    between atoms: C_17  and  C_8 
REMARK    7  A    between atoms: C_10  and  N_24 
REMARK       I    between atoms: N_27  and  C_15 
REMARK    8  A    between atoms: O_29  and  C_16 
ROOT
HETATM    1  C   UNK N   1      37.238  13.253   8.965  0.00  0.00     0.039 C 
HETATM    2  C   UNK N   1      35.929  12.474   9.057  0.00  0.00     0.123 C 
HETATM    3  C   UNK N   1      37.150  14.551   9.763  0.00  0.00     0.128 C 
HETATM    4  C   UNK N   1      35.013  15.326   8.728  0.00  0.00     0.169 C 
HETATM    5  C   UNK N   1      35.208  14.878  11.187  0.00  0.00     0.222 C 
HETATM    6  C   UNK N   1      34.583  14.140   7.861  0.00  0.00     0.135 C 
HETATM    7  N   UNK N   1      35.001  12.923   8.040  0.00  0.00    -0.373 N 
ATOM      8  HN  UNK N   1      34.641  12.214   7.400  1.00  0.00     0.161 HD
HETATM    9  N   UNK N   1      35.766  14.962   9.934  0.00  0.00    -0.340 N 
HETATM   10  O   UNK N   1      34.027  15.117  11.365  0.00  0.00    -0.273 OA
ENDROOT
BRANCH   5  11
HETATM   11  C   UNK N   1      36.019  14.463  12.386  0.00  0.00     0.127 C 
BRANCH  11  12
HETATM   12  C   UNK N   1      35.380  13.380  13.262  0.00  0.00     0.087 C 
BRANCH  12  13
HETATM   13  C   UNK N   1      36.497  12.745  14.104  0.00  0.00     0.067 C 
BRANCH  13  14
HETATM   14  C   UNK N   1      36.110  12.442  15.518  0.00  0.00    -0.015 A 
HETATM   15  C   UNK N   1      35.685  13.480  16.351  0.00  0.00     0.055 A 
HETATM   16  C   UNK N   1      35.290  13.208  17.663  0.00  0.00     0.155 A 
HETATM   17  C   UNK N   1      35.321  11.893  18.145  0.00  0.00     0.157 A 
HETATM   18  F   UNK N   1      34.869  14.218  18.461  0.00  0.00    -0.203 F 
HETATM   19  C   UNK N   1      35.756  10.855  17.318  0.00  0.00     0.088 A 
HETATM   20  F   UNK N   1      34.928  11.623  19.413  0.00  0.00    -0.203 F 
HETATM   21  C   UNK N   1      36.154  11.125  16.006  0.00  0.00     0.125 A 
HETATM   22  F   UNK N   1      36.566  10.106  15.211  0.00  0.00    -0.205 F 
ENDBRANCH  13  14
ENDBRANCH  12  13
BRANCH  12  23
HETATM   23  N   UNK N   1      34.646  12.393  12.470  0.00  0.00    -0.425 N 
HETATM   24  H   UNK N   1      33.794  12.164  11.960  0.00  0.00     0.150 HD
HETATM   25  H   UNK N   1      35.253  11.576  12.397  0.00  0.00     0.150 HD
ENDBRANCH  12  23
ENDBRANCH  11  12
ENDBRANCH   5  11
BRANCH   4  26
HETATM   26  C   UNK N   1      33.958  16.445   8.921  0.00  0.00     0.151 C 
BRANCH  26  27
HETATM   27  C   UNK N   1      34.087  17.769   8.156  0.00  0.00     0.390 C 
HETATM   28  F   UNK N   1      35.165  18.470   8.661  0.00  0.00    -0.171 F 
HETATM   29  F   UNK N   1      34.268  17.590   6.797  0.00  0.00    -0.171 F 
HETATM   30  F   UNK N   1      32.944  18.518   8.368  0.00  0.00    -0.171 F 
ENDBRANCH  26  27
ENDBRANCH   4  26
BRANCH   6  31
HETATM   31  O   UNK N   1      33.774  14.385   6.813  0.00  0.00    -0.348 OA
HETATM   32  H   UNK N   1      34.028  14.896   6.069  0.00  0.00     0.219 HD
ENDBRANCH   6  31
TORSDOF 8
ENDMDL
MODEL 7
REMARK VINA RESULT:      -7.1     11.560     15.212
REMARK  8 active torsions:
REMARK  status: ('A' for Active; 'I' for Inactive)
REMARK    1  A    between atoms: C_9  and  C_4 
REMARK    2  A    between atoms: C_10  and  C_4 
REMARK    3  A    between atoms: C_10  and  C_6 
REMARK    4  A    between atoms: C_15  and  C_6 
REMARK    5  A    between atoms: C_14  and  C_8 
REMARK    6  A    between atoms: C_17  and  C_8 
REMARK    7  A    between atoms: C_10  and  N_24 
REMARK       I    between atoms: N_27  and  C_15 
REMARK    8  A    between atoms: O_29  and  C_16 
ROOT
HETATM    1  C   UNK N   1      37.245  12.942   9.027  0.00  0.00     0.039 C 
HETATM    2  C   UNK N   1      37.741  13.972  10.038  0.00  0.00     0.123 C 
HETATM    3  C   UNK N   1      35.741  12.730   9.168  0.00  0.00     0.128 C 
HETATM    4  C   UNK N   1      35.783  12.328  11.633  0.00  0.00     0.169 C 
HETATM    5  C   UNK N   1      34.513  14.240  10.624  0.00  0.00     0.222 C 
HETATM    6  C   UNK N   1      37.236  12.615  12.018  0.00  0.00     0.135 C 
HETATM    7  N   UNK N   1      38.047  13.333  11.302  0.00  0.00    -0.373 N 
ATOM      8  HN  UNK N   1      38.993  13.459  11.664  1.00  0.00     0.161 HD
HETATM    9  N   UNK N   1      35.285  13.110  10.495  0.00  0.00    -0.340 N 
HETATM   10  O   UNK N   1      34.188  14.655  11.721  0.00  0.00    -0.273 OA
ENDROOT
BRANCH   5  11
HETATM   11  C   UNK N   1      34.060  15.027   9.422  0.00  0.00     0.127 C 
BRANCH  11  12
HETATM   12  C   UNK N   1      33.837  16.523   9.671  0.00  0.00     0.087 C 
BRANCH  12  13
HETATM   13  C   UNK N   1      33.543  17.180   8.314  0.00  0.00     0.067 C 
BRANCH  13  14
HETATM   14  C   UNK N   1      32.091  17.244   7.957  0.00  0.00    -0.015 A 
HETATM   15  C   UNK N   1      31.231  18.037   8.722  0.00  0.00     0.055 A 
HETATM   16  C   UNK N   1      29.880  18.132   8.381  0.00  0.00     0.155 A 
HETATM   17  C   UNK N   1      29.385  17.432   7.273  0.00  0.00     0.157 A 
HETATM   18  F   UNK N   1      29.054  18.910   9.121  0.00  0.00    -0.203 F 
HETATM   19  C   UNK N   1      30.241  16.631   6.514  0.00  0.00     0.088 A 
HETATM   20  F   UNK N   1      28.077  17.531   6.933  0.00  0.00    -0.203 F 
HETATM   21  C   UNK N   1      31.592  16.531   6.853  0.00  0.00     0.125 A 
HETATM   22  F   UNK N   1      32.414  15.756   6.102  0.00  0.00    -0.205 F 
ENDBRANCH  13  14
ENDBRANCH  12  13
BRANCH  12  23
HETATM   23  N   UNK N   1      34.969  17.143  10.359  0.00  0.00    -0.425 N 
HETATM   24  H   UNK N   1      35.294  17.691  11.155  0.00  0.00     0.150 HD
HETATM   25  H   UNK N   1      35.794  16.937   9.796  0.00  0.00     0.150 HD
ENDBRANCH  12  23
ENDBRANCH  11  12
ENDBRANCH   5  11
BRANCH   4  26
HETATM   26  C   UNK N   1      34.786  12.165  12.808  0.00  0.00     0.151 C 
BRANCH  26  27
HETATM   27  C   UNK N   1      34.256  10.775  13.185  0.00  0.00     0.390 C 
HETATM   28  F   UNK N   1      33.477  10.301  12.147  0.00  0.00    -0.171 F 
HETATM   29  F   UNK N   1      35.265   9.864  13.439  0.00  0.00    -0.171 F 
HETATM   30  F   UNK N   1      33.457  10.894  14.307  0.00  0.00    -0.171 F 
ENDBRANCH  26  27
ENDBRANCH   4  26
BRANCH   6  31
HETATM   31  O   UNK N   1      37.719  12.037  13.134  0.00  0.00    -0.348 OA
HETATM   32  H   UNK N   1      38.306  11.306  13.129  0.00  0.00     0.219 HD
ENDBRANCH   6  31
TORSDOF 8
ENDMDL
MODEL 8
REMARK VINA RESULT:      -7.0     11.850     15.567
REMARK  8 active torsions:
REMARK  status: ('A' for Active; 'I' for Inactive)
REMARK    1  A    between atoms: C_9  and  C_4 
REMARK    2  A    between atoms: C_10  and  C_4 
REMARK    3  A    between atoms: C_10  and  C_6 
REMARK    4  A    between atoms: C_15  and  C_6 
REMARK    5  A    between atoms: C_14  and  C_8 
REMARK    6  A    between atoms: C_17  and  C_8 
REMARK    7  A    between atoms: C_10  and  N_24 
REMARK       I    between atoms: N_27  and  C_15 
REMARK    8  A    between atoms: O_29  and  C_16 
ROOT
HETATM    1  C   UNK N   1      37.297  13.332   8.781  0.00  0.00     0.039 C 
HETATM    2  C   UNK N   1      37.842  14.251   9.872  0.00  0.00     0.123 C 
HETATM    3  C   UNK N   1      35.788  13.154   8.932  0.00  0.00     0.128 C 
HETATM    4  C   UNK N   1      35.859  12.530  11.350  0.00  0.00     0.169 C 
HETATM    5  C   UNK N   1      34.635  14.563  10.541  0.00  0.00     0.222 C 
HETATM    6  C   UNK N   1      37.327  12.737  11.731  0.00  0.00     0.135 C 
HETATM    7  N   UNK N   1      38.148  13.492  11.066  0.00  0.00    -0.373 N 
ATOM      8  HN  UNK N   1      39.104  13.556  11.420  1.00  0.00     0.161 HD
HETATM    9  N   UNK N   1      35.367  13.427  10.296  0.00  0.00    -0.340 N 
HETATM   10  O   UNK N   1      34.341  14.887  11.678  0.00  0.00    -0.273 OA
ENDROOT
BRANCH   5  11
HETATM   11  C   UNK N   1      34.186  15.469   9.425  0.00  0.00     0.127 C 
BRANCH  11  12
HETATM   12  C   UNK N   1      32.683  15.440   9.127  0.00  0.00     0.087 C 
BRANCH  12  13
HETATM   13  C   UNK N   1      32.280  16.840   8.640  0.00  0.00     0.067 C 
BRANCH  13  14
HETATM   14  C   UNK N   1      32.243  16.991   7.151  0.00  0.00    -0.015 A 
HETATM   15  C   UNK N   1      31.076  16.664   6.456  0.00  0.00     0.055 A 
HETATM   16  C   UNK N   1      31.016  16.831   5.071  0.00  0.00     0.155 A 
HETATM   17  C   UNK N   1      32.127  17.326   4.376  0.00  0.00     0.157 A 
HETATM   18  F   UNK N   1      29.878  16.520   4.405  0.00  0.00    -0.203 F 
HETATM   19  C   UNK N   1      33.298  17.644   5.067  0.00  0.00     0.088 A 
HETATM   20  F   UNK N   1      32.070  17.500   3.034  0.00  0.00    -0.203 F 
HETATM   21  C   UNK N   1      33.362  17.476   6.452  0.00  0.00     0.125 A 
HETATM   22  F   UNK N   1      34.504  17.797   7.112  0.00  0.00    -0.205 F 
ENDBRANCH  13  14
ENDBRANCH  12  13
BRANCH  12  23
HETATM   23  N   UNK N   1      31.900  15.004  10.283  0.00  0.00    -0.425 N 
HETATM   24  H   UNK N   1      31.493  14.224  10.799  0.00  0.00     0.150 HD
HETATM   25  H   UNK N   1      31.653  15.849  10.798  0.00  0.00     0.150 HD
ENDBRANCH  12  23
ENDBRANCH  11  12
ENDBRANCH   5  11
BRANCH   4  26
HETATM   26  C   UNK N   1      34.877  12.292  12.525  0.00  0.00     0.151 C 
BRANCH  26  27
HETATM   27  C   UNK N   1      34.694  10.883  13.106  0.00  0.00     0.390 C 
HETATM   28  F   UNK N   1      33.352  10.682  13.366  0.00  0.00    -0.171 F 
HETATM   29  F   UNK N   1      35.138   9.888  12.255  0.00  0.00    -0.171 F 
HETATM   30  F   UNK N   1      35.385  10.802  14.300  0.00  0.00    -0.171 F 
ENDBRANCH  26  27
ENDBRANCH   4  26
BRANCH   6  31
HETATM   31  O   UNK N   1      37.809  12.046  12.781  0.00  0.00    -0.348 OA
HETATM   32  H   UNK N   1      37.297  11.820  13.533  0.00  0.00     0.219 HD
ENDBRANCH   6  31
TORSDOF 8
ENDMDL
MODEL 9
REMARK VINA RESULT:      -7.0     13.677     17.046
REMARK  8 active torsions:
REMARK  status: ('A' for Active; 'I' for Inactive)
REMARK    1  A    between atoms: C_9  and  C_4 
REMARK    2  A    between atoms: C_10  and  C_4 
REMARK    3  A    between atoms: C_10  and  C_6 
REMARK    4  A    between atoms: C_15  and  C_6 
REMARK    5  A    between atoms: C_14  and  C_8 
REMARK    6  A    between atoms: C_17  and  C_8 
REMARK    7  A    between atoms: C_10  and  N_24 
REMARK       I    between atoms: N_27  and  C_15 
REMARK    8  A    between atoms: O_29  and  C_16 
ROOT
HETATM    1  C   UNK N   1      35.613  11.105  11.448  0.00  0.00     0.039 C 
HETATM    2  C   UNK N   1      37.049  11.616  11.359  0.00  0.00     0.123 C 
HETATM    3  C   UNK N   1      34.744  12.075  12.244  0.00  0.00     0.128 C 
HETATM    4  C   UNK N   1      36.278  12.216  14.210  0.00  0.00     0.169 C 
HETATM    5  C   UNK N   1      35.698  14.230  12.835  0.00  0.00     0.222 C 
HETATM    6  C   UNK N   1      37.511  11.427  13.761  0.00  0.00     0.135 C 
HETATM    7  N   UNK N   1      37.808  11.194  12.518  0.00  0.00    -0.373 N 
ATOM      8  HN  UNK N   1      38.660  10.660  12.341  1.00  0.00     0.161 HD
HETATM    9  N   UNK N   1      35.557  12.895  13.127  0.00  0.00    -0.340 N 
HETATM   10  O   UNK N   1      36.445  14.939  13.486  0.00  0.00    -0.273 OA
ENDROOT
BRANCH   5  11
HETATM   11  C   UNK N   1      34.962  14.870  11.687  0.00  0.00     0.127 C 
BRANCH  11  12
HETATM   12  C   UNK N   1      35.840  15.286  10.502  0.00  0.00     0.087 C 
BRANCH  12  13
HETATM   13  C   UNK N   1      35.328  14.539   9.261  0.00  0.00     0.067 C 
BRANCH  13  14
HETATM   14  C   UNK N   1      34.811  15.427   8.173  0.00  0.00    -0.015 A 
HETATM   15  C   UNK N   1      34.235  16.656   8.505  0.00  0.00     0.055 A 
HETATM   16  C   UNK N   1      33.779  17.510   7.498  0.00  0.00     0.155 A 
HETATM   17  C   UNK N   1      33.896  17.134   6.154  0.00  0.00     0.157 A 
HETATM   18  F   UNK N   1      33.231  18.704   7.827  0.00  0.00    -0.203 F 
HETATM   19  C   UNK N   1      34.461  15.901   5.820  0.00  0.00     0.088 A 
HETATM   20  F   UNK N   1      33.465  17.963   5.174  0.00  0.00    -0.203 F 
HETATM   21  C   UNK N   1      34.916  15.044   6.825  0.00  0.00     0.125 A 
HETATM   22  F   UNK N   1      35.471  13.852   6.486  0.00  0.00    -0.205 F 
ENDBRANCH  13  14
ENDBRANCH  12  13
BRANCH  12  23
HETATM   23  N   UNK N   1      37.260  15.042  10.754  0.00  0.00    -0.425 N 
HETATM   24  H   UNK N   1      38.142  15.406  11.112  0.00  0.00     0.150 HD
HETATM   25  H   UNK N   1      37.450  14.094  10.431  0.00  0.00     0.150 HD
ENDBRANCH  12  23
ENDBRANCH  11  12
ENDBRANCH   5  11
BRANCH   4  26
HETATM   26  C   UNK N   1      36.433  13.036  15.516  0.00  0.00     0.151 C 
BRANCH  26  27
HETATM   27  C   UNK N   1      35.343  12.986  16.594  0.00  0.00     0.390 C 
HETATM   28  F   UNK N   1      34.109  13.094  15.983  0.00  0.00    -0.171 F 
HETATM   29  F   UNK N   1      35.373  11.819  17.337  0.00  0.00    -0.171 F 
HETATM   30  F   UNK N   1      35.504  14.067  17.440  0.00  0.00    -0.171 F 
ENDBRANCH  26  27
ENDBRANCH   4  26
BRANCH   6  31
HETATM   31  O   UNK N   1      38.298  10.891  14.712  0.00  0.00    -0.348 OA
HETATM   32  H   UNK N   1      38.236  11.110  15.622  0.00  0.00     0.219 HD
ENDBRANCH   6  31
TORSDOF 8
ENDMDL
