REMARK  5 active torsions:
REMARK  status: ('A' for Active; 'I' for Inactive)
REMARK    1  A    between atoms: C_6  and  C_2 
REMARK    2  A    between atoms: C_14  and  C_6 
REMARK    3  A    between atoms: S_24  and  C_13 
REMARK    4  A    between atoms: S_24  and  C_17 
REMARK    5  A    between atoms: O_22  and  C_18 
ROOT
HETATM    1  C   UNK N   1      -0.488  -0.842   0.005  0.00  0.00     0.026 A 
HETATM    2  C   UNK N   1       0.652  -1.613   0.240  0.00  0.00     0.032 A 
HETATM    3  C   UNK N   1       0.893   1.131  -0.221  0.00  0.00     0.039 A 
HETATM    4  C   UNK N   1      -0.367   0.530  -0.222  0.00  0.00     0.035 A 
HETATM    5  C   UNK N   1       4.458   0.138   0.325  0.00  0.00     0.013 A 
HETATM    6  C   UNK N   1       2.051   0.370   0.022  0.00  0.00     0.012 A 
HETATM    7  C   UNK N   1       1.915  -1.015   0.256  0.00  0.00     0.045 A 
HETATM    8  C   UNK N   1       3.333   0.973   0.047  0.00  0.00     0.054 A 
HETATM    9  C   UNK N   1       4.252  -1.242   0.552  0.00  0.00     0.148 A 
HETATM   10 Cl   UNK N   1      -1.798   1.502  -0.489  0.00  0.00    -0.084 Cl
HETATM   11  N   UNK N   1       3.008  -1.773   0.506  0.00  0.00    -0.336 N 
ATOM     12  HN  UNK N   1       2.890  -2.774   0.664  1.00  0.00     0.168 HD
ENDROOT
BRANCH   8  13
HETATM   13  S   UNK N   1       3.404   2.781  -0.313  0.00  0.00     0.056 S 
HETATM   14  O   UNK N   1       2.773   3.109   1.052  0.00  0.00    -0.252 OA
BRANCH  13  15
HETATM   15  C   UNK N   1       5.038   3.400   0.217  0.00  0.00     0.084 C 
HETATM   16  C   UNK N   1       4.902   4.885   0.581  0.00  0.00     0.018 C 
HETATM   17  C   UNK N   1       6.253   5.488   0.956  0.00  0.00     0.001 C 
HETATM   18  C   UNK N   1       7.243   5.322  -0.193  0.00  0.00     0.000 C 
HETATM   19  C   UNK N   1       7.378   3.848  -0.559  0.00  0.00     0.001 C 
HETATM   20  C   UNK N   1       6.014   3.292  -0.957  0.00  0.00     0.018 C 
ENDBRANCH  13  15
ENDBRANCH   8  13
BRANCH   5  21
HETATM   21  C   UNK N   1       5.856   0.663   0.419  0.00  0.00     0.044 C 
BRANCH  21  22
HETATM   22  C   UNK N   1       6.770   0.035  -0.620  0.00  0.00     0.000 C 
HETATM   23  C   UNK N   1       8.193   0.054  -0.104  0.00  0.00     0.005 C 
ENDBRANCH  21  22
ENDBRANCH   5  21
BRANCH   9  24
HETATM   24  O   UNK N   1       5.294  -2.051   0.822  0.00  0.00    -0.346 OA
HETATM   25  H   UNK N   1       5.169  -2.960   1.011  0.00  0.00     0.219 HD
ENDBRANCH   9  24
TORSDOF 5
