MODEL 1
REMARK VINA RESULT:      -7.1      0.000      0.000
REMARK  8 active torsions:
REMARK  status: ('A' for Active; 'I' for Inactive)
REMARK    1  A    between atoms: C_11  and  O_31 
REMARK    2  A    between atoms: C_12  and  O_32 
REMARK    3  A    between atoms: C_17  and  C_13 
REMARK    4  A    between atoms: O_22  and  C_13 
REMARK    5  A    between atoms: C_18  and  C_14 
REMARK    6  A    between atoms: O_24  and  C_14 
REMARK       I    between atoms: N_19  and  C_15 
REMARK    7  A    between atoms: O_31  and  C_15 
REMARK       I    between atoms: N_20  and  C_16 
REMARK    8  A    between atoms: O_32  and  C_16 
ROOT
HETATM    1  C   UNK N   1      37.867  13.018   8.724  0.00  0.00     0.148 C 
HETATM    2  C   UNK N   1      35.932  14.120   9.838  0.00  0.00     0.148 C 
HETATM    3  C   UNK N   1      37.038  12.877   7.448  0.00  0.00     0.148 C 
HETATM    4  C   UNK N   1      35.100  13.893   8.582  0.00  0.00     0.148 C 
HETATM    5  C   UNK N   1      37.120  12.282  10.930  0.00  0.00     0.363 C 
HETATM    6  C   UNK N   1      35.983  14.864   6.494  0.00  0.00     0.363 C 
HETATM    7  N   UNK N   1      36.988  13.131   9.874  0.00  0.00    -0.325 N 
HETATM    8  N   UNK N   1      35.999  13.887   7.455  0.00  0.00    -0.325 N 
HETATM    9  O   UNK N   1      37.941  11.377  10.881  0.00  0.00    -0.238 OA
HETATM   10  O   UNK N   1      36.864  14.881   5.648  0.00  0.00    -0.238 OA
ENDROOT
BRANCH   5  11
HETATM   11  O   UNK N   1      36.365  12.412  12.054  0.00  0.00    -0.294 OA
BRANCH  11  12
HETATM   12  C   UNK N   1      36.812  13.016  13.221  0.00  0.00     0.181 C 
HETATM   13  C   UNK N   1      37.122  11.970  14.270  0.00  0.00     0.207 C 
HETATM   14  O   UNK N   1      36.008  11.122  14.432  0.00  0.00    -0.344 OA
HETATM   15  C   UNK N   1      34.857  11.842  14.861  0.00  0.00     0.248 C 
HETATM   16  C   UNK N   1      33.691  10.886  14.659  0.00  0.00     0.091 C 
HETATM   17  O   UNK N   1      34.560  12.969  14.036  0.00  0.00    -0.344 OA
HETATM   18  C   UNK N   1      35.681  13.804  13.838  0.00  0.00     0.207 C 
BRANCH  15  19
HETATM   19  C   UNK N   1      34.952  12.222  16.332  0.00  0.00     0.205 C 
HETATM   20  O   UNK N   1      34.506  13.288  16.733  0.00  0.00    -0.646 OA
BRANCH  19  21
HETATM   21  O   UNK N   1      35.522  11.377  17.213  0.00  0.00    -0.772 OA
HETATM   22  H   UNK N   1      35.201  11.060  18.034  0.00  0.00     0.167 HD
ENDBRANCH  19  21
ENDBRANCH  15  19
ENDBRANCH  11  12
ENDBRANCH   5  11
BRANCH   6  23
HETATM   23  O   UNK N   1      35.042  15.856   6.452  0.00  0.00    -0.294 OA
BRANCH  23  24
HETATM   24  C   UNK N   1      34.074  16.079   5.487  0.00  0.00     0.181 C 
HETATM   25  C   UNK N   1      32.936  15.102   5.713  0.00  0.00     0.207 C 
HETATM   26  O   UNK N   1      32.342  15.372   6.957  0.00  0.00    -0.344 OA
HETATM   27  C   UNK N   1      31.745  16.667   6.971  0.00  0.00     0.248 C 
HETATM   28  C   UNK N   1      30.236  16.471   6.897  0.00  0.00     0.091 C 
HETATM   29  O   UNK N   1      32.110  17.489   5.858  0.00  0.00    -0.344 OA
HETATM   30  C   UNK N   1      33.510  17.491   5.670  0.00  0.00     0.207 C 
BRANCH  27  31
HETATM   31  C   UNK N   1      32.126  17.345   8.278  0.00  0.00     0.205 C 
HETATM   32  O   UNK N   1      31.473  18.281   8.714  0.00  0.00    -0.646 OA
BRANCH  31  33
HETATM   33  O   UNK N   1      33.179  16.892   8.986  0.00  0.00    -0.772 OA
HETATM   34  H   UNK N   1      34.031  16.794   8.607  0.00  0.00     0.167 HD
ENDBRANCH  31  33
ENDBRANCH  27  31
ENDBRANCH  23  24
ENDBRANCH   6  23
TORSDOF 8
ENDMDL
MODEL 2
REMARK VINA RESULT:      -6.9      3.493      5.432
REMARK  8 active torsions:
REMARK  status: ('A' for Active; 'I' for Inactive)
REMARK    1  A    between atoms: C_11  and  O_31 
REMARK    2  A    between atoms: C_12  and  O_32 
REMARK    3  A    between atoms: C_17  and  C_13 
REMARK    4  A    between atoms: O_22  and  C_13 
REMARK    5  A    between atoms: C_18  and  C_14 
REMARK    6  A    between atoms: O_24  and  C_14 
REMARK       I    between atoms: N_19  and  C_15 
REMARK    7  A    between atoms: O_31  and  C_15 
REMARK       I    between atoms: N_20  and  C_16 
REMARK    8  A    between atoms: O_32  and  C_16 
ROOT
HETATM    1  C   UNK N   1      35.188  13.396  12.188  0.00  0.00     0.148 C 
HETATM    2  C   UNK N   1      34.632  12.936   9.805  0.00  0.00     0.148 C 
HETATM    3  C   UNK N   1      36.141  14.503  11.741  0.00  0.00     0.148 C 
HETATM    4  C   UNK N   1      35.650  13.988   9.382  0.00  0.00     0.148 C 
HETATM    5  C   UNK N   1      35.237  11.113  11.319  0.00  0.00     0.363 C 
HETATM    6  C   UNK N   1      35.305  16.263  10.266  0.00  0.00     0.363 C 
HETATM    7  N   UNK N   1      35.003  12.438  11.112  0.00  0.00    -0.325 N 
HETATM    8  N   UNK N   1      35.729  14.971  10.433  0.00  0.00    -0.325 N 
HETATM    9  O   UNK N   1      35.668  10.735  12.400  0.00  0.00    -0.238 OA
HETATM   10  O   UNK N   1      35.262  17.005  11.237  0.00  0.00    -0.238 OA
ENDROOT
BRANCH   5  11
HETATM   11  O   UNK N   1      34.999  10.183  10.356  0.00  0.00    -0.294 OA
BRANCH  11  12
HETATM   12  C   UNK N   1      34.065   9.163  10.480  0.00  0.00     0.181 C 
HETATM   13  C   UNK N   1      34.190   8.193   9.324  0.00  0.00     0.207 C 
HETATM   14  O   UNK N   1      34.135   8.901   8.108  0.00  0.00    -0.344 OA
HETATM   15  C   UNK N   1      32.902   9.599   7.961  0.00  0.00     0.248 C 
HETATM   16  C   UNK N   1      33.125  10.564   6.805  0.00  0.00     0.091 C 
HETATM   17  O   UNK N   1      32.588  10.427   9.080  0.00  0.00    -0.344 OA
HETATM   18  C   UNK N   1      32.678   9.733  10.307  0.00  0.00     0.207 C 
BRANCH  15  19
HETATM   19  C   UNK N   1      31.762   8.650   7.616  0.00  0.00     0.205 C 
HETATM   20  O   UNK N   1      31.966   7.640   6.957  0.00  0.00    -0.646 OA
BRANCH  19  21
HETATM   21  O   UNK N   1      30.512   8.911   8.044  0.00  0.00    -0.772 OA
HETATM   22  H   UNK N   1      29.692   8.808   7.601  0.00  0.00     0.167 HD
ENDBRANCH  19  21
ENDBRANCH  15  19
ENDBRANCH  11  12
ENDBRANCH   5  11
BRANCH   6  23
HETATM   23  O   UNK N   1      34.887  16.764   9.064  0.00  0.00    -0.294 OA
BRANCH  23  24
HETATM   24  C   UNK N   1      33.620  17.200   8.710  0.00  0.00     0.181 C 
HETATM   25  C   UNK N   1      33.764  18.358   7.741  0.00  0.00     0.207 C 
HETATM   26  O   UNK N   1      34.381  17.897   6.566  0.00  0.00    -0.344 OA
HETATM   27  C   UNK N   1      33.564  16.937   5.899  0.00  0.00     0.248 C 
HETATM   28  C   UNK N   1      32.966  17.623   4.678  0.00  0.00     0.091 C 
HETATM   29  O   UNK N   1      32.466  16.462   6.684  0.00  0.00    -0.344 OA
HETATM   30  C   UNK N   1      32.898  16.070   7.971  0.00  0.00     0.207 C 
BRANCH  27  31
HETATM   31  C   UNK N   1      34.452  15.779   5.473  0.00  0.00     0.205 C 
HETATM   32  O   UNK N   1      34.121  15.034   4.563  0.00  0.00    -0.646 OA
BRANCH  31  33
HETATM   33  O   UNK N   1      35.638  15.584   6.084  0.00  0.00    -0.772 OA
HETATM   34  H   UNK N   1      36.356  16.178   5.982  0.00  0.00     0.167 HD
ENDBRANCH  31  33
ENDBRANCH  27  31
ENDBRANCH  23  24
ENDBRANCH   6  23
TORSDOF 8
ENDMDL
MODEL 3
REMARK VINA RESULT:      -6.8      1.352      2.192
REMARK  8 active torsions:
REMARK  status: ('A' for Active; 'I' for Inactive)
REMARK    1  A    between atoms: C_11  and  O_31 
REMARK    2  A    between atoms: C_12  and  O_32 
REMARK    3  A    between atoms: C_17  and  C_13 
REMARK    4  A    between atoms: O_22  and  C_13 
REMARK    5  A    between atoms: C_18  and  C_14 
REMARK    6  A    between atoms: O_24  and  C_14 
REMARK       I    between atoms: N_19  and  C_15 
REMARK    7  A    between atoms: O_31  and  C_15 
REMARK       I    between atoms: N_20  and  C_16 
REMARK    8  A    between atoms: O_32  and  C_16 
ROOT
HETATM    1  C   UNK N   1      37.101  14.489   9.547  0.00  0.00     0.148 C 
HETATM    2  C   UNK N   1      35.040  14.340  10.936  0.00  0.00     0.148 C 
HETATM    3  C   UNK N   1      36.266  14.222   8.297  0.00  0.00     0.148 C 
HETATM    4  C   UNK N   1      34.242  13.993   9.684  0.00  0.00     0.148 C 
HETATM    5  C   UNK N   1      37.051  13.092  11.552  0.00  0.00     0.363 C 
HETATM    6  C   UNK N   1      34.323  15.634   7.846  0.00  0.00     0.363 C 
HETATM    7  N   UNK N   1      36.420  13.965  10.718  0.00  0.00    -0.325 N 
HETATM    8  N   UNK N   1      34.896  14.615   8.560  0.00  0.00    -0.325 N 
HETATM    9  O   UNK N   1      38.175  12.697  11.277  0.00  0.00    -0.238 OA
HETATM   10  O   UNK N   1      34.987  16.215   7.000  0.00  0.00    -0.238 OA
ENDROOT
BRANCH   5  11
HETATM   11  O   UNK N   1      36.469  12.645  12.696  0.00  0.00    -0.294 OA
BRANCH  11  12
HETATM   12  C   UNK N   1      36.962  12.905  13.968  0.00  0.00     0.181 C 
HETATM   13  C   UNK N   1      37.176  11.611  14.724  0.00  0.00     0.207 C 
HETATM   14  O   UNK N   1      35.992  10.847  14.693  0.00  0.00    -0.344 OA
HETATM   15  C   UNK N   1      34.906  11.536  15.305  0.00  0.00     0.248 C 
HETATM   16  C   UNK N   1      33.662  10.761  14.895  0.00  0.00     0.091 C 
HETATM   17  O   UNK N   1      34.711  12.852  14.786  0.00  0.00    -0.344 OA
HETATM   18  C   UNK N   1      35.902  13.611  14.779  0.00  0.00     0.207 C 
BRANCH  15  19
HETATM   19  C   UNK N   1      35.028  11.534  16.822  0.00  0.00     0.205 C 
HETATM   20  O   UNK N   1      34.921  12.572  17.460  0.00  0.00    -0.646 OA
BRANCH  19  21
HETATM   21  O   UNK N   1      35.244  10.379  17.482  0.00  0.00    -0.772 OA
HETATM   22  H   UNK N   1      35.394  10.229  18.394  0.00  0.00     0.167 HD
ENDBRANCH  19  21
ENDBRANCH  15  19
ENDBRANCH  11  12
ENDBRANCH   5  11
BRANCH   6  23
HETATM   23  O   UNK N   1      33.042  16.066   8.055  0.00  0.00    -0.294 OA
BRANCH  23  24
HETATM   24  C   UNK N   1      31.860  15.491   7.616  0.00  0.00     0.181 C 
HETATM   25  C   UNK N   1      30.808  16.578   7.510  0.00  0.00     0.207 C 
HETATM   26  O   UNK N   1      31.203  17.501   6.527  0.00  0.00    -0.344 OA
HETATM   27  C   UNK N   1      31.256  16.890   5.239  0.00  0.00     0.248 C 
HETATM   28  C   UNK N   1      30.047  17.383   4.454  0.00  0.00     0.091 C 
HETATM   29  O   UNK N   1      31.173  15.462   5.269  0.00  0.00    -0.344 OA
HETATM   30  C   UNK N   1      32.079  14.923   6.211  0.00  0.00     0.207 C 
BRANCH  27  31
HETATM   31  C   UNK N   1      32.543  17.333   4.562  0.00  0.00     0.205 C 
HETATM   32  O   UNK N   1      32.679  17.243   3.351  0.00  0.00    -0.646 OA
BRANCH  31  33
HETATM   33  O   UNK N   1      33.540  17.862   5.298  0.00  0.00    -0.772 OA
HETATM   34  H   UNK N   1      34.403  17.497   5.307  0.00  0.00     0.167 HD
ENDBRANCH  31  33
ENDBRANCH  27  31
ENDBRANCH  23  24
ENDBRANCH   6  23
TORSDOF 8
ENDMDL
MODEL 4
REMARK VINA RESULT:      -6.6      8.475     13.126
REMARK  8 active torsions:
REMARK  status: ('A' for Active; 'I' for Inactive)
REMARK    1  A    between atoms: C_11  and  O_31 
REMARK    2  A    between atoms: C_12  and  O_32 
REMARK    3  A    between atoms: C_17  and  C_13 
REMARK    4  A    between atoms: O_22  and  C_13 
REMARK    5  A    between atoms: C_18  and  C_14 
REMARK    6  A    between atoms: O_24  and  C_14 
REMARK       I    between atoms: N_19  and  C_15 
REMARK    7  A    between atoms: O_31  and  C_15 
REMARK       I    between atoms: N_20  and  C_16 
REMARK    8  A    between atoms: O_32  and  C_16 
ROOT
HETATM    1  C   UNK N   1      24.239  14.475   2.945  0.00  0.00     0.148 C 
HETATM    2  C   UNK N   1      24.172  15.566   5.182  0.00  0.00     0.148 C 
HETATM    3  C   UNK N   1      25.137  15.600   2.435  0.00  0.00     0.148 C 
HETATM    4  C   UNK N   1      25.000  16.719   4.626  0.00  0.00     0.148 C 
HETATM    5  C   UNK N   1      22.111  14.835   4.090  0.00  0.00     0.363 C 
HETATM    6  C   UNK N   1      27.188  16.127   3.656  0.00  0.00     0.363 C 
HETATM    7  N   UNK N   1      23.468  14.937   4.087  0.00  0.00    -0.325 N 
HETATM    8  N   UNK N   1      25.823  16.197   3.564  0.00  0.00    -0.325 N 
HETATM    9  O   UNK N   1      21.532  14.411   3.099  0.00  0.00    -0.238 OA
HETATM   10  O   UNK N   1      27.814  15.541   2.784  0.00  0.00    -0.238 OA
ENDROOT
BRANCH   5  11
HETATM   11  O   UNK N   1      21.367  15.185   5.173  0.00  0.00    -0.294 OA
BRANCH  11  12
HETATM   12  C   UNK N   1      20.585  16.331   5.237  0.00  0.00     0.181 C 
HETATM   13  C   UNK N   1      21.197  17.333   6.192  0.00  0.00     0.207 C 
HETATM   14  O   UNK N   1      21.440  16.712   7.433  0.00  0.00    -0.344 OA
HETATM   15  C   UNK N   1      20.238  16.226   8.023  0.00  0.00     0.248 C 
HETATM   16  C   UNK N   1      20.690  15.305   9.147  0.00  0.00     0.091 C 
HETATM   17  O   UNK N   1      19.479  15.395   7.145  0.00  0.00    -0.344 OA
HETATM   18  C   UNK N   1      19.263  15.995   5.885  0.00  0.00     0.207 C 
BRANCH  15  19
HETATM   19  C   UNK N   1      19.402  17.359   8.601  0.00  0.00     0.205 C 
HETATM   20  O   UNK N   1      18.198  17.226   8.767  0.00  0.00    -0.646 OA
BRANCH  19  21
HETATM   21  O   UNK N   1      19.986  18.523   8.946  0.00  0.00    -0.772 OA
HETATM   22  H   UNK N   1      19.598  19.341   9.184  0.00  0.00     0.167 HD
ENDBRANCH  19  21
ENDBRANCH  15  19
ENDBRANCH  11  12
ENDBRANCH   5  11
BRANCH   6  23
HETATM   23  O   UNK N   1      27.895  16.653   4.701  0.00  0.00    -0.294 OA
BRANCH  23  24
HETATM   24  C   UNK N   1      28.325  16.016   5.854  0.00  0.00     0.181 C 
HETATM   25  C   UNK N   1      29.717  16.516   6.188  0.00  0.00     0.207 C 
HETATM   26  O   UNK N   1      29.651  17.889   6.481  0.00  0.00    -0.344 OA
HETATM   27  C   UNK N   1      28.866  18.129   7.647  0.00  0.00     0.248 C 
HETATM   28  C   UNK N   1      29.827  18.481   8.776  0.00  0.00     0.091 C 
HETATM   29  O   UNK N   1      28.113  16.993   8.085  0.00  0.00    -0.344 OA
HETATM   30  C   UNK N   1      27.404  16.412   7.011  0.00  0.00     0.207 C 
BRANCH  27  31
HETATM   31  C   UNK N   1      27.940  19.299   7.357  0.00  0.00     0.205 C 
HETATM   32  O   UNK N   1      27.934  19.839   6.261  0.00  0.00    -0.646 OA
BRANCH  31  33
HETATM   33  O   UNK N   1      27.088  19.732   8.308  0.00  0.00    -0.772 OA
HETATM   34  H   UNK N   1      27.318  19.745   9.216  0.00  0.00     0.167 HD
ENDBRANCH  31  33
ENDBRANCH  27  31
ENDBRANCH  23  24
ENDBRANCH   6  23
TORSDOF 8
ENDMDL
MODEL 5
REMARK VINA RESULT:      -6.5     16.132     20.045
REMARK  8 active torsions:
REMARK  status: ('A' for Active; 'I' for Inactive)
REMARK    1  A    between atoms: C_11  and  O_31 
REMARK    2  A    between atoms: C_12  and  O_32 
REMARK    3  A    between atoms: C_17  and  C_13 
REMARK    4  A    between atoms: O_22  and  C_13 
REMARK    5  A    between atoms: C_18  and  C_14 
REMARK    6  A    between atoms: O_24  and  C_14 
REMARK       I    between atoms: N_19  and  C_15 
REMARK    7  A    between atoms: O_31  and  C_15 
REMARK       I    between atoms: N_20  and  C_16 
REMARK    8  A    between atoms: O_32  and  C_16 
ROOT
HETATM    1  C   UNK N   1      27.859  21.699  -9.199  0.00  0.00     0.148 C 
HETATM    2  C   UNK N   1      28.844  22.870  -7.235  0.00  0.00     0.148 C 
HETATM    3  C   UNK N   1      26.508  21.665  -8.488  0.00  0.00     0.148 C 
HETATM    4  C   UNK N   1      27.507  22.749  -6.513  0.00  0.00     0.148 C 
HETATM    5  C   UNK N   1      29.950  20.917  -8.206  0.00  0.00     0.363 C 
HETATM    6  C   UNK N   1      25.559  23.752  -7.643  0.00  0.00     0.363 C 
HETATM    7  N   UNK N   1      28.928  21.817  -8.223  0.00  0.00    -0.325 N 
HETATM    8  N   UNK N   1      26.468  22.736  -7.513  0.00  0.00    -0.325 N 
HETATM    9  O   UNK N   1      29.932  19.966  -8.974  0.00  0.00    -0.238 OA
HETATM   10  O   UNK N   1      24.798  23.751  -8.600  0.00  0.00    -0.238 OA
ENDROOT
BRANCH   5  11
HETATM   11  O   UNK N   1      31.004  21.045  -7.357  0.00  0.00    -0.294 OA
BRANCH  11  12
HETATM   12  C   UNK N   1      31.349  20.098  -6.401  0.00  0.00     0.181 C 
HETATM   13  C   UNK N   1      30.725  20.447  -5.067  0.00  0.00     0.207 C 
HETATM   14  O   UNK N   1      31.051  21.775  -4.728  0.00  0.00    -0.344 OA
HETATM   15  C   UNK N   1      32.459  21.958  -4.613  0.00  0.00     0.248 C 
HETATM   16  C   UNK N   1      32.664  23.466  -4.591  0.00  0.00     0.091 C 
HETATM   17  O   UNK N   1      33.180  21.502  -5.758  0.00  0.00    -0.344 OA
HETATM   18  C   UNK N   1      32.831  20.185  -6.126  0.00  0.00     0.207 C 
BRANCH  15  19
HETATM   19  C   UNK N   1      32.997  21.354  -3.323  0.00  0.00     0.205 C 
HETATM   20  O   UNK N   1      34.101  20.830  -3.291  0.00  0.00    -0.646 OA
BRANCH  19  21
HETATM   21  O   UNK N   1      32.260  21.401  -2.196  0.00  0.00    -0.772 OA
HETATM   22  H   UNK N   1      31.434  21.003  -2.003  0.00  0.00     0.167 HD
ENDBRANCH  19  21
ENDBRANCH  15  19
ENDBRANCH  11  12
ENDBRANCH   5  11
BRANCH   6  23
HETATM   23  O   UNK N   1      25.478  24.801  -6.770  0.00  0.00    -0.294 OA
BRANCH  23  24
HETATM   24  C   UNK N   1      25.641  26.152  -7.033  0.00  0.00     0.181 C 
HETATM   25  C   UNK N   1      24.916  26.941  -5.960  0.00  0.00     0.207 C 
HETATM   26  O   UNK N   1      25.525  26.691  -4.718  0.00  0.00    -0.344 OA
HETATM   27  C   UNK N   1      26.870  27.164  -4.701  0.00  0.00     0.248 C 
HETATM   28  C   UNK N   1      26.893  28.429  -3.853  0.00  0.00     0.091 C 
HETATM   29  O   UNK N   1      27.377  27.522  -5.990  0.00  0.00    -0.344 OA
HETATM   30  C   UNK N   1      27.129  26.499  -6.933  0.00  0.00     0.207 C 
BRANCH  27  31
HETATM   31  C   UNK N   1      27.738  26.088  -4.069  0.00  0.00     0.205 C 
HETATM   32  O   UNK N   1      27.256  25.028  -3.699  0.00  0.00    -0.646 OA
BRANCH  31  33
HETATM   33  O   UNK N   1      29.065  26.286  -3.942  0.00  0.00    -0.772 OA
HETATM   34  H   UNK N   1      29.589  25.791  -3.342  0.00  0.00     0.167 HD
ENDBRANCH  31  33
ENDBRANCH  27  31
ENDBRANCH  23  24
ENDBRANCH   6  23
TORSDOF 8
ENDMDL
MODEL 6
REMARK VINA RESULT:      -6.5     15.360     19.978
REMARK  8 active torsions:
REMARK  status: ('A' for Active; 'I' for Inactive)
REMARK    1  A    between atoms: C_11  and  O_31 
REMARK    2  A    between atoms: C_12  and  O_32 
REMARK    3  A    between atoms: C_17  and  C_13 
REMARK    4  A    between atoms: O_22  and  C_13 
REMARK    5  A    between atoms: C_18  and  C_14 
REMARK    6  A    between atoms: O_24  and  C_14 
REMARK       I    between atoms: N_19  and  C_15 
REMARK    7  A    between atoms: O_31  and  C_15 
REMARK       I    between atoms: N_20  and  C_16 
REMARK    8  A    between atoms: O_32  and  C_16 
ROOT
HETATM    1  C   UNK N   1      30.296  24.326  -3.007  0.00  0.00     0.148 C 
HETATM    2  C   UNK N   1      30.211  23.356  -5.299  0.00  0.00     0.148 C 
HETATM    3  C   UNK N   1      30.295  22.916  -2.422  0.00  0.00     0.148 C 
HETATM    4  C   UNK N   1      30.127  21.962  -4.688  0.00  0.00     0.148 C 
HETATM    5  C   UNK N   1      28.665  25.133  -4.639  0.00  0.00     0.363 C 
HETATM    6  C   UNK N   1      31.972  21.312  -3.188  0.00  0.00     0.363 C 
HETATM    7  N   UNK N   1      29.707  24.310  -4.335  0.00  0.00    -0.325 N 
HETATM    8  N   UNK N   1      30.809  21.998  -3.418  0.00  0.00    -0.325 N 
HETATM    9  O   UNK N   1      28.180  25.842  -3.768  0.00  0.00    -0.238 OA
HETATM   10  O   UNK N   1      32.577  21.500  -2.142  0.00  0.00    -0.238 OA
ENDROOT
BRANCH   5  11
HETATM   11  O   UNK N   1      28.144  25.198  -5.893  0.00  0.00    -0.294 OA
BRANCH  11  12
HETATM   12  C   UNK N   1      26.805  25.448  -6.163  0.00  0.00     0.181 C 
HETATM   13  C   UNK N   1      25.974  24.212  -5.894  0.00  0.00     0.207 C 
HETATM   14  O   UNK N   1      26.523  23.116  -6.589  0.00  0.00    -0.344 OA
HETATM   15  C   UNK N   1      26.534  23.337  -7.996  0.00  0.00     0.248 C 
HETATM   16  C   UNK N   1      27.444  22.256  -8.562  0.00  0.00     0.091 C 
HETATM   17  O   UNK N   1      27.149  24.571  -8.366  0.00  0.00    -0.344 OA
HETATM   18  C   UNK N   1      26.630  25.669  -7.647  0.00  0.00     0.207 C 
BRANCH  15  19
HETATM   19  C   UNK N   1      25.141  23.191  -8.594  0.00  0.00     0.205 C 
HETATM   20  O   UNK N   1      24.766  23.933  -9.492  0.00  0.00    -0.646 OA
BRANCH  19  21
HETATM   21  O   UNK N   1      24.309  22.233  -8.144  0.00  0.00    -0.772 OA
HETATM   22  H   UNK N   1      24.331  21.306  -8.282  0.00  0.00     0.167 HD
ENDBRANCH  19  21
ENDBRANCH  15  19
ENDBRANCH  11  12
ENDBRANCH   5  11
BRANCH   6  23
HETATM   23  O   UNK N   1      32.521  20.445  -4.092  0.00  0.00    -0.294 OA
BRANCH  23  24
HETATM   24  C   UNK N   1      33.323  20.736  -5.184  0.00  0.00     0.181 C 
HETATM   25  C   UNK N   1      34.733  20.994  -4.688  0.00  0.00     0.207 C 
HETATM   26  O   UNK N   1      35.238  19.815  -4.114  0.00  0.00    -0.344 OA
HETATM   27  C   UNK N   1      35.355  18.778  -5.087  0.00  0.00     0.248 C 
HETATM   28  C   UNK N   1      36.837  18.622  -5.404  0.00  0.00     0.091 C 
HETATM   29  O   UNK N   1      34.696  19.065  -6.324  0.00  0.00    -0.344 OA
HETATM   30  C   UNK N   1      33.374  19.511  -6.101  0.00  0.00     0.207 C 
BRANCH  27  31
HETATM   31  C   UNK N   1      34.807  17.498  -4.477  0.00  0.00     0.205 C 
HETATM   32  O   UNK N   1      35.231  16.406  -4.821  0.00  0.00    -0.646 OA
BRANCH  31  33
HETATM   33  O   UNK N   1      33.860  17.564  -3.519  0.00  0.00    -0.772 OA
HETATM   34  H   UNK N   1      32.951  17.661  -3.722  0.00  0.00     0.167 HD
ENDBRANCH  31  33
ENDBRANCH  27  31
ENDBRANCH  23  24
ENDBRANCH   6  23
TORSDOF 8
ENDMDL
MODEL 7
REMARK VINA RESULT:      -6.4      1.094      8.465
REMARK  8 active torsions:
REMARK  status: ('A' for Active; 'I' for Inactive)
REMARK    1  A    between atoms: C_11  and  O_31 
REMARK    2  A    between atoms: C_12  and  O_32 
REMARK    3  A    between atoms: C_17  and  C_13 
REMARK    4  A    between atoms: O_22  and  C_13 
REMARK    5  A    between atoms: C_18  and  C_14 
REMARK    6  A    between atoms: O_24  and  C_14 
REMARK       I    between atoms: N_19  and  C_15 
REMARK    7  A    between atoms: O_31  and  C_15 
REMARK       I    between atoms: N_20  and  C_16 
REMARK    8  A    between atoms: O_32  and  C_16 
ROOT
HETATM    1  C   UNK N   1      37.265  13.309   7.486  0.00  0.00     0.148 C 
HETATM    2  C   UNK N   1      35.311  14.261   8.700  0.00  0.00     0.148 C 
HETATM    3  C   UNK N   1      38.155  13.638   8.682  0.00  0.00     0.148 C 
HETATM    4  C   UNK N   1      36.236  14.655   9.846  0.00  0.00     0.148 C 
HETATM    5  C   UNK N   1      35.787  14.920   6.394  0.00  0.00     0.363 C 
HETATM    6  C   UNK N   1      37.515  12.827  10.896  0.00  0.00     0.363 C 
HETATM    7  N   UNK N   1      36.095  14.171   7.488  0.00  0.00    -0.325 N 
HETATM    8  N   UNK N   1      37.329  13.715   9.870  0.00  0.00    -0.325 N 
HETATM    9  O   UNK N   1      36.537  14.917   5.427  0.00  0.00    -0.238 OA
HETATM   10  O   UNK N   1      38.371  11.962  10.787  0.00  0.00    -0.238 OA
ENDROOT
BRANCH   5  11
HETATM   11  O   UNK N   1      34.658  15.676   6.336  0.00  0.00    -0.294 OA
BRANCH  11  12
HETATM   12  C   UNK N   1      33.651  15.493   5.398  0.00  0.00     0.181 C 
HETATM   13  C   UNK N   1      33.080  16.828   4.972  0.00  0.00     0.207 C 
HETATM   14  O   UNK N   1      32.700  17.563   6.113  0.00  0.00    -0.344 OA
HETATM   15  C   UNK N   1      31.702  16.882   6.867  0.00  0.00     0.248 C 
HETATM   16  C   UNK N   1      31.650  17.606   8.205  0.00  0.00     0.091 C 
HETATM   17  O   UNK N   1      32.059  15.537   7.187  0.00  0.00    -0.344 OA
HETATM   18  C   UNK N   1      32.478  14.806   6.055  0.00  0.00     0.207 C 
BRANCH  15  19
HETATM   19  C   UNK N   1      30.339  16.965   6.194  0.00  0.00     0.205 C 
HETATM   20  O   UNK N   1      30.105  17.829   5.360  0.00  0.00    -0.646 OA
BRANCH  19  21
HETATM   21  O   UNK N   1      29.376  16.075   6.503  0.00  0.00    -0.772 OA
HETATM   22  H   UNK N   1      28.639  15.791   6.000  0.00  0.00     0.167 HD
ENDBRANCH  19  21
ENDBRANCH  15  19
ENDBRANCH  11  12
ENDBRANCH   5  11
BRANCH   6  23
HETATM   23  O   UNK N   1      36.760  12.833  12.037  0.00  0.00    -0.294 OA
BRANCH  23  24
HETATM   24  C   UNK N   1      37.161  13.126  13.330  0.00  0.00     0.181 C 
HETATM   25  C   UNK N   1      36.203  14.148  13.910  0.00  0.00     0.207 C 
HETATM   26  O   UNK N   1      34.923  13.575  14.000  0.00  0.00    -0.344 OA
HETATM   27  C   UNK N   1      34.913  12.478  14.911  0.00  0.00     0.248 C 
HETATM   28  C   UNK N   1      34.206  12.946  16.176  0.00  0.00     0.091 C 
HETATM   29  O   UNK N   1      36.217  12.038  15.306  0.00  0.00    -0.344 OA
HETATM   30  C   UNK N   1      37.051  11.857  14.181  0.00  0.00     0.207 C 
BRANCH  27  31
HETATM   31  C   UNK N   1      34.142  11.338  14.266  0.00  0.00     0.205 C 
HETATM   32  O   UNK N   1      33.609  10.474  14.946  0.00  0.00    -0.646 OA
BRANCH  31  33
HETATM   33  O   UNK N   1      34.014  11.290  12.924  0.00  0.00    -0.772 OA
HETATM   34  H   UNK N   1      33.633  10.555  12.485  0.00  0.00     0.167 HD
ENDBRANCH  31  33
ENDBRANCH  27  31
ENDBRANCH  23  24
ENDBRANCH   6  23
TORSDOF 8
ENDMDL
MODEL 8
REMARK VINA RESULT:      -6.4      2.169      9.177
REMARK  8 active torsions:
REMARK  status: ('A' for Active; 'I' for Inactive)
REMARK    1  A    between atoms: C_11  and  O_31 
REMARK    2  A    between atoms: C_12  and  O_32 
REMARK    3  A    between atoms: C_17  and  C_13 
REMARK    4  A    between atoms: O_22  and  C_13 
REMARK    5  A    between atoms: C_18  and  C_14 
REMARK    6  A    between atoms: O_24  and  C_14 
REMARK       I    between atoms: N_19  and  C_15 
REMARK    7  A    between atoms: O_31  and  C_15 
REMARK       I    between atoms: N_20  and  C_16 
REMARK    8  A    between atoms: O_32  and  C_16 
ROOT
HETATM    1  C   UNK N   1      36.410  15.739  11.106  0.00  0.00     0.148 C 
HETATM    2  C   UNK N   1      34.917  14.325   9.701  0.00  0.00     0.148 C 
HETATM    3  C   UNK N   1      35.902  15.018  12.353  0.00  0.00     0.148 C 
HETATM    4  C   UNK N   1      34.365  13.679  10.967  0.00  0.00     0.148 C 
HETATM    5  C   UNK N   1      34.958  16.754   9.424  0.00  0.00     0.363 C 
HETATM    6  C   UNK N   1      36.009  12.578  12.439  0.00  0.00     0.363 C 
HETATM    7  N   UNK N   1      35.428  15.635  10.040  0.00  0.00    -0.325 N 
HETATM    8  N   UNK N   1      35.404  13.713  11.966  0.00  0.00    -0.325 N 
HETATM    9  O   UNK N   1      35.316  17.857   9.814  0.00  0.00    -0.238 OA
HETATM   10  O   UNK N   1      36.980  12.683  13.174  0.00  0.00    -0.238 OA
ENDROOT
BRANCH   5  11
HETATM   11  O   UNK N   1      34.098  16.686   8.372  0.00  0.00    -0.294 OA
BRANCH  11  12
HETATM   12  C   UNK N   1      33.482  17.793   7.803  0.00  0.00     0.181 C 
HETATM   13  C   UNK N   1      32.007  17.807   8.143  0.00  0.00     0.207 C 
HETATM   14  O   UNK N   1      31.433  16.567   7.798  0.00  0.00    -0.344 OA
HETATM   15  C   UNK N   1      31.557  16.300   6.404  0.00  0.00     0.248 C 
HETATM   16  C   UNK N   1      31.218  14.825   6.250  0.00  0.00     0.091 C 
HETATM   17  O   UNK N   1      32.897  16.425   5.926  0.00  0.00    -0.344 OA
HETATM   18  C   UNK N   1      33.492  17.649   6.299  0.00  0.00     0.207 C 
BRANCH  15  19
HETATM   19  C   UNK N   1      30.580  17.133   5.587  0.00  0.00     0.205 C 
HETATM   20  O   UNK N   1      30.871  17.514   4.462  0.00  0.00    -0.646 OA
BRANCH  19  21
HETATM   21  O   UNK N   1      29.373  17.452   6.095  0.00  0.00    -0.772 OA
HETATM   22  H   UNK N   1      29.067  17.414   6.980  0.00  0.00     0.167 HD
ENDBRANCH  19  21
ENDBRANCH  15  19
ENDBRANCH  11  12
ENDBRANCH   5  11
BRANCH   6  23
HETATM   23  O   UNK N   1      35.601  11.317  12.101  0.00  0.00    -0.294 OA
BRANCH  23  24
HETATM   24  C   UNK N   1      34.563  10.576  12.643  0.00  0.00     0.181 C 
HETATM   25  C   UNK N   1      35.012   9.132  12.754  0.00  0.00     0.207 C 
HETATM   26  O   UNK N   1      36.084   9.054  13.659  0.00  0.00    -0.344 OA
HETATM   27  C   UNK N   1      35.677   9.433  14.972  0.00  0.00     0.248 C 
HETATM   28  C   UNK N   1      35.585   8.159  15.802  0.00  0.00     0.091 C 
HETATM   29  O   UNK N   1      34.389  10.055  15.025  0.00  0.00    -0.344 OA
HETATM   30  C   UNK N   1      34.283  11.082  14.061  0.00  0.00     0.207 C 
BRANCH  27  31
HETATM   31  C   UNK N   1      36.738  10.361  15.543  0.00  0.00     0.205 C 
HETATM   32  O   UNK N   1      36.596  10.879  16.640  0.00  0.00    -0.646 OA
BRANCH  31  33
HETATM   33  O   UNK N   1      37.869  10.595  14.848  0.00  0.00    -0.772 OA
HETATM   34  H   UNK N   1      38.564  11.122  15.189  0.00  0.00     0.167 HD
ENDBRANCH  31  33
ENDBRANCH  27  31
ENDBRANCH  23  24
ENDBRANCH   6  23
TORSDOF 8
ENDMDL
MODEL 9
REMARK VINA RESULT:      -6.3      2.306      8.159
REMARK  8 active torsions:
REMARK  status: ('A' for Active; 'I' for Inactive)
REMARK    1  A    between atoms: C_11  and  O_31 
REMARK    2  A    between atoms: C_12  and  O_32 
REMARK    3  A    between atoms: C_17  and  C_13 
REMARK    4  A    between atoms: O_22  and  C_13 
REMARK    5  A    between atoms: C_18  and  C_14 
REMARK    6  A    between atoms: O_24  and  C_14 
REMARK       I    between atoms: N_19  and  C_15 
REMARK    7  A    between atoms: O_31  and  C_15 
REMARK       I    between atoms: N_20  and  C_16 
REMARK    8  A    between atoms: O_32  and  C_16 
ROOT
HETATM    1  C   UNK N   1      35.147   9.670   9.661  0.00  0.00     0.148 C 
HETATM    2  C   UNK N   1      35.183  11.834  10.891  0.00  0.00     0.148 C 
HETATM    3  C   UNK N   1      36.278   9.158  10.550  0.00  0.00     0.148 C 
HETATM    4  C   UNK N   1      36.366  11.330  11.710  0.00  0.00     0.148 C 
HETATM    5  C   UNK N   1      35.212  11.789   8.446  0.00  0.00     0.363 C 
HETATM    6  C   UNK N   1      36.010   9.246  12.977  0.00  0.00     0.363 C 
HETATM    7  N   UNK N   1      35.160  11.122   9.632  0.00  0.00    -0.325 N 
HETATM    8  N   UNK N   1      36.259   9.895  11.797  0.00  0.00    -0.325 N 
HETATM    9  O   UNK N   1      35.316  11.161   7.402  0.00  0.00    -0.238 OA
HETATM   10  O   UNK N   1      35.787   8.044  12.960  0.00  0.00    -0.238 OA
ENDROOT
BRANCH   5  11
HETATM   11  O   UNK N   1      35.147  13.146   8.383  0.00  0.00    -0.294 OA
BRANCH  11  12
HETATM   12  C   UNK N   1      34.197  13.842   7.646  0.00  0.00     0.181 C 
HETATM   13  C   UNK N   1      34.780  15.139   7.129  0.00  0.00     0.207 C 
HETATM   14  O   UNK N   1      35.344  15.862   8.199  0.00  0.00    -0.344 OA
HETATM   15  C   UNK N   1      34.370  16.184   9.187  0.00  0.00     0.248 C 
HETATM   16  C   UNK N   1      35.169  16.638  10.400  0.00  0.00     0.091 C 
HETATM   17  O   UNK N   1      33.628  15.049   9.635  0.00  0.00    -0.344 OA
HETATM   18  C   UNK N   1      33.091  14.299   8.567  0.00  0.00     0.207 C 
BRANCH  15  19
HETATM   19  C   UNK N   1      33.461  17.314   8.727  0.00  0.00     0.205 C 
HETATM   20  O   UNK N   1      33.885  18.201   7.998  0.00  0.00    -0.646 OA
BRANCH  19  21
HETATM   21  O   UNK N   1      32.170  17.344   9.112  0.00  0.00    -0.772 OA
HETATM   22  H   UNK N   1      31.427  16.902   8.752  0.00  0.00     0.167 HD
ENDBRANCH  19  21
ENDBRANCH  15  19
ENDBRANCH  11  12
ENDBRANCH   5  11
BRANCH   6  23
HETATM   23  O   UNK N   1      35.962   9.884  14.186  0.00  0.00    -0.294 OA
BRANCH  23  24
HETATM   24  C   UNK N   1      34.848  10.191  14.951  0.00  0.00     0.181 C 
HETATM   25  C   UNK N   1      35.302  10.467  16.371  0.00  0.00     0.207 C 
HETATM   26  O   UNK N   1      36.126  11.605  16.375  0.00  0.00    -0.344 OA
HETATM   27  C   UNK N   1      35.401  12.765  15.970  0.00  0.00     0.248 C 
HETATM   28  C   UNK N   1      35.152  13.601  17.219  0.00  0.00     0.091 C 
HETATM   29  O   UNK N   1      34.120  12.481  15.400  0.00  0.00    -0.344 OA
HETATM   30  C   UNK N   1      34.218  11.477  14.411  0.00  0.00     0.207 C 
BRANCH  27  31
HETATM   31  C   UNK N   1      36.262  13.535  14.982  0.00  0.00     0.205 C 
HETATM   32  O   UNK N   1      35.757  14.172  14.070  0.00  0.00    -0.646 OA
BRANCH  31  33
HETATM   33  O   UNK N   1      37.603  13.545  15.125  0.00  0.00    -0.772 OA
HETATM   34  H   UNK N   1      38.106  14.333  15.062  0.00  0.00     0.167 HD
ENDBRANCH  31  33
ENDBRANCH  27  31
ENDBRANCH  23  24
ENDBRANCH   6  23
TORSDOF 8
ENDMDL
