REMARK  6 active torsions:
REMARK  status: ('A' for Active; 'I' for Inactive)
REMARK    1  A    between atoms: C_8  and  C_4 
REMARK    2  A    between atoms: C_10  and  C_7 
REMARK    3  A    between atoms: C_10  and  C_9 
REMARK    4  A    between atoms: C_12  and  C_11 
REMARK    5  A    between atoms: O_14  and  C_11 
REMARK    6  A    between atoms: O_16  and  C_12 
ROOT
HETATM    1  C   UNK N   1       0.134   3.714  -0.000  0.00  0.00     0.007 C 
HETATM    2  C   UNK N   1       0.120   2.376  -0.000  0.00  0.00     0.056 C 
ENDROOT
BRANCH   1   3
HETATM    3  C   UNK N   1      -1.161   4.432  -0.000  0.00  0.00     0.043 C 
HETATM    4  C   UNK N   1      -1.257   5.770   0.000  0.00  0.00     0.139 C 
BRANCH   4   5
HETATM    5  C   UNK N   1      -2.583   6.432   0.000  0.00  0.00     0.200 C 
HETATM    6  O   UNK N   1      -3.612   5.770  -0.000  0.00  0.00    -0.645 OA
BRANCH   5   7
HETATM    7  O   UNK N   1      -2.662   7.774   0.000  0.00  0.00    -0.771 OA
HETATM    8  H   UNK N   1      -1.880   8.290   0.000  0.00  0.00     0.167 HD
ENDBRANCH   5   7
ENDBRANCH   4   5
BRANCH   4   9
HETATM    9  O   UNK N   1      -0.143   6.533   0.000  0.00  0.00    -0.355 OA
HETATM   10  H   UNK N   1       0.702   6.128   0.000  0.00  0.00     0.218 HD
ENDBRANCH   4   9
ENDBRANCH   1   3
BRANCH   2  11
HETATM   11  C   UNK N   1       1.344   1.539  -0.000  0.00  0.00     0.182 C 
HETATM   12  O   UNK N   1       2.450   2.062  -0.000  0.00  0.00    -0.288 OA
BRANCH  11  13
HETATM   13  C   UNK N   1       1.220   0.059  -0.000  0.00  0.00     0.014 A 
HETATM   14  C   UNK N   1       2.362  -0.754  -0.000  0.00  0.00     0.015 A 
HETATM   15  C   UNK N   1       2.234  -2.148   0.000  0.00  0.00     0.001 A 
HETATM   16  C   UNK N   1       0.966  -2.737   0.000  0.00  0.00     0.000 A 
HETATM   17  C   UNK N   1      -0.176  -1.935   0.000  0.00  0.00     0.001 A 
HETATM   18  C   UNK N   1      -0.048  -0.546   0.000  0.00  0.00     0.015 A 
ENDBRANCH  11  13
ENDBRANCH   2  11
TORSDOF 6
