MODEL 1
REMARK VINA RESULT:      -6.6      0.000      0.000
REMARK  6 active torsions:
REMARK  status: ('A' for Active; 'I' for Inactive)
REMARK    1  A    between atoms: C_8  and  C_4 
REMARK    2  A    between atoms: C_10  and  C_7 
REMARK    3  A    between atoms: C_10  and  C_9 
REMARK    4  A    between atoms: C_12  and  C_11 
REMARK    5  A    between atoms: O_14  and  C_11 
REMARK    6  A    between atoms: O_16  and  C_12 
ROOT
HETATM    1  C   UNK N   1      35.170  13.165  13.251  0.00  0.00     0.007 C 
HETATM    2  C   UNK N   1      35.469  13.019  14.547  0.00  0.00     0.056 C 
ENDROOT
BRANCH   1   3
HETATM    3  C   UNK N   1      35.773  14.297  12.512  0.00  0.00     0.043 C 
HETATM    4  C   UNK N   1      35.080  15.068  11.660  0.00  0.00     0.139 C 
BRANCH   4   5
HETATM    5  C   UNK N   1      35.738  16.189  10.949  0.00  0.00     0.200 C 
HETATM    6  O   UNK N   1      35.091  17.155  10.568  0.00  0.00    -0.645 OA
BRANCH   5   7
HETATM    7  O   UNK N   1      37.062  16.149  10.716  0.00  0.00    -0.771 OA
HETATM    8  H   UNK N   1      37.382  16.099   9.837  0.00  0.00     0.167 HD
ENDBRANCH   5   7
ENDBRANCH   4   5
BRANCH   4   9
HETATM    9  O   UNK N   1      33.768  14.832  11.440  0.00  0.00    -0.355 OA
HETATM   10  H   UNK N   1      33.480  13.971  11.208  0.00  0.00     0.218 HD
ENDBRANCH   4   9
ENDBRANCH   1   3
BRANCH   2  11
HETATM   11  C   UNK N   1      34.934  11.930  15.399  0.00  0.00     0.182 C 
HETATM   12  O   UNK N   1      34.357  10.977  14.894  0.00  0.00    -0.288 OA
BRANCH  11  13
HETATM   13  C   UNK N   1      35.102  12.003  16.873  0.00  0.00     0.014 A 
HETATM   14  C   UNK N   1      35.355  10.845  17.621  0.00  0.00     0.015 A 
HETATM   15  C   UNK N   1      35.512  10.924  19.010  0.00  0.00     0.001 A 
HETATM   16  C   UNK N   1      35.418  12.159  19.658  0.00  0.00     0.000 A 
HETATM   17  C   UNK N   1      35.166  13.317  18.921  0.00  0.00     0.001 A 
HETATM   18  C   UNK N   1      35.010  13.237  17.537  0.00  0.00     0.015 A 
ENDBRANCH  11  13
ENDBRANCH   2  11
TORSDOF 6
ENDMDL
MODEL 2
REMARK VINA RESULT:      -6.4      4.201      9.304
REMARK  6 active torsions:
REMARK  status: ('A' for Active; 'I' for Inactive)
REMARK    1  A    between atoms: C_8  and  C_4 
REMARK    2  A    between atoms: C_10  and  C_7 
REMARK    3  A    between atoms: C_10  and  C_9 
REMARK    4  A    between atoms: C_12  and  C_11 
REMARK    5  A    between atoms: O_14  and  C_11 
REMARK    6  A    between atoms: O_16  and  C_12 
ROOT
HETATM    1  C   UNK N   1      35.010  15.801   9.226  0.00  0.00     0.007 C 
HETATM    2  C   UNK N   1      34.962  17.123   9.431  0.00  0.00     0.056 C 
ENDROOT
BRANCH   1   3
HETATM    3  C   UNK N   1      35.492  14.935  10.325  0.00  0.00     0.043 C 
HETATM    4  C   UNK N   1      34.694  14.476  11.301  0.00  0.00     0.139 C 
BRANCH   4   5
HETATM    5  C   UNK N   1      35.235  13.612  12.376  0.00  0.00     0.200 C 
HETATM    6  O   UNK N   1      36.437  13.571  12.600  0.00  0.00    -0.645 OA
BRANCH   5   7
HETATM    7  O   UNK N   1      34.401  12.862  13.116  0.00  0.00    -0.771 OA
HETATM    8  H   UNK N   1      34.510  12.817  14.046  0.00  0.00     0.167 HD
ENDBRANCH   5   7
ENDBRANCH   4   5
BRANCH   4   9
HETATM    9  O   UNK N   1      33.383  14.798  11.316  0.00  0.00    -0.355 OA
HETATM   10  H   UNK N   1      33.075  15.531  10.819  0.00  0.00     0.218 HD
ENDBRANCH   4   9
ENDBRANCH   1   3
BRANCH   2  11
HETATM   11  C   UNK N   1      34.500  18.098   8.414  0.00  0.00     0.182 C 
HETATM   12  O   UNK N   1      35.031  19.197   8.327  0.00  0.00    -0.288 OA
BRANCH  11  13
HETATM   13  C   UNK N   1      33.388  17.733   7.500  0.00  0.00     0.014 A 
HETATM   14  C   UNK N   1      33.623  17.537   6.131  0.00  0.00     0.015 A 
HETATM   15  C   UNK N   1      32.568  17.193   5.278  0.00  0.00     0.001 A 
HETATM   16  C   UNK N   1      31.274  17.043   5.787  0.00  0.00     0.000 A 
HETATM   17  C   UNK N   1      31.032  17.236   7.147  0.00  0.00     0.001 A 
HETATM   18  C   UNK N   1      32.084  17.579   7.997  0.00  0.00     0.015 A 
ENDBRANCH  11  13
ENDBRANCH   2  11
TORSDOF 6
ENDMDL
MODEL 3
REMARK VINA RESULT:      -6.3      8.472     11.945
REMARK  6 active torsions:
REMARK  status: ('A' for Active; 'I' for Inactive)
REMARK    1  A    between atoms: C_8  and  C_4 
REMARK    2  A    between atoms: C_10  and  C_7 
REMARK    3  A    between atoms: C_10  and  C_9 
REMARK    4  A    between atoms: C_12  and  C_11 
REMARK    5  A    between atoms: O_14  and  C_11 
REMARK    6  A    between atoms: O_16  and  C_12 
ROOT
HETATM    1  C   UNK N   1      31.415  17.417   7.209  0.00  0.00     0.007 C 
HETATM    2  C   UNK N   1      30.176  17.755   7.583  0.00  0.00     0.056 C 
ENDROOT
BRANCH   1   3
HETATM    3  C   UNK N   1      32.538  17.733   8.122  0.00  0.00     0.043 C 
HETATM    4  C   UNK N   1      33.781  17.996   7.691  0.00  0.00     0.139 C 
BRANCH   4   5
HETATM    5  C   UNK N   1      34.864  18.307   8.654  0.00  0.00     0.200 C 
HETATM    6  O   UNK N   1      35.468  19.369   8.594  0.00  0.00    -0.645 OA
BRANCH   5   7
HETATM    7  O   UNK N   1      35.190  17.415   9.606  0.00  0.00    -0.771 OA
HETATM    8  H   UNK N   1      34.593  16.729   9.830  0.00  0.00     0.167 HD
ENDBRANCH   5   7
ENDBRANCH   4   5
BRANCH   4   9
HETATM    9  O   UNK N   1      34.061  17.982   6.371  0.00  0.00    -0.355 OA
HETATM   10  H   UNK N   1      34.404  17.205   5.973  0.00  0.00     0.218 HD
ENDBRANCH   4   9
ENDBRANCH   1   3
BRANCH   2  11
HETATM   11  C   UNK N   1      28.968  17.496   6.763  0.00  0.00     0.182 C 
HETATM   12  O   UNK N   1      28.553  16.354   6.619  0.00  0.00    -0.288 OA
BRANCH  11  13
HETATM   13  C   UNK N   1      28.263  18.631   6.117  0.00  0.00     0.014 A 
HETATM   14  C   UNK N   1      27.750  19.686   6.885  0.00  0.00     0.015 A 
HETATM   15  C   UNK N   1      27.088  20.752   6.266  0.00  0.00     0.001 A 
HETATM   16  C   UNK N   1      26.933  20.770   4.876  0.00  0.00     0.000 A 
HETATM   17  C   UNK N   1      27.440  19.725   4.104  0.00  0.00     0.001 A 
HETATM   18  C   UNK N   1      28.101  18.663   4.721  0.00  0.00     0.015 A 
ENDBRANCH  11  13
ENDBRANCH   2  11
TORSDOF 6
ENDMDL
MODEL 4
REMARK VINA RESULT:      -6.1      1.331      2.247
REMARK  6 active torsions:
REMARK  status: ('A' for Active; 'I' for Inactive)
REMARK    1  A    between atoms: C_8  and  C_4 
REMARK    2  A    between atoms: C_10  and  C_7 
REMARK    3  A    between atoms: C_10  and  C_9 
REMARK    4  A    between atoms: C_12  and  C_11 
REMARK    5  A    between atoms: O_14  and  C_11 
REMARK    6  A    between atoms: O_16  and  C_12 
ROOT
HETATM    1  C   UNK N   1      35.719  13.693  12.238  0.00  0.00     0.007 C 
HETATM    2  C   UNK N   1      35.811  13.774  13.570  0.00  0.00     0.056 C 
ENDROOT
BRANCH   1   3
HETATM    3  C   UNK N   1      35.087  14.815  11.506  0.00  0.00     0.043 C 
HETATM    4  C   UNK N   1      35.790  15.783  10.900  0.00  0.00     0.139 C 
BRANCH   4   5
HETATM    5  C   UNK N   1      35.100  16.881  10.182  0.00  0.00     0.200 C 
HETATM    6  O   UNK N   1      35.686  17.923   9.923  0.00  0.00    -0.645 OA
BRANCH   5   7
HETATM    7  O   UNK N   1      33.817  16.735   9.809  0.00  0.00    -0.771 OA
HETATM    8  H   UNK N   1      33.602  16.612   8.906  0.00  0.00     0.167 HD
ENDBRANCH   5   7
ENDBRANCH   4   5
BRANCH   4   9
HETATM    9  O   UNK N   1      37.140  15.770  10.937  0.00  0.00    -0.355 OA
HETATM   10  H   UNK N   1      37.586  15.780  11.761  0.00  0.00     0.218 HD
ENDBRANCH   4   9
ENDBRANCH   1   3
BRANCH   2  11
HETATM   11  C   UNK N   1      36.420  12.723  14.420  0.00  0.00     0.182 C 
HETATM   12  O   UNK N   1      37.234  11.942  13.947  0.00  0.00    -0.288 OA
BRANCH  11  13
HETATM   13  C   UNK N   1      36.035  12.622  15.851  0.00  0.00     0.014 A 
HETATM   14  C   UNK N   1      35.677  13.767  16.577  0.00  0.00     0.015 A 
HETATM   15  C   UNK N   1      35.316  13.661  17.925  0.00  0.00     0.001 A 
HETATM   16  C   UNK N   1      35.310  12.413  18.555  0.00  0.00     0.000 A 
HETATM   17  C   UNK N   1      35.665  11.269  17.840  0.00  0.00     0.001 A 
HETATM   18  C   UNK N   1      36.025  11.375  16.496  0.00  0.00     0.015 A 
ENDBRANCH  11  13
ENDBRANCH   2  11
TORSDOF 6
ENDMDL
MODEL 5
REMARK VINA RESULT:      -6.0      6.252      8.763
REMARK  6 active torsions:
REMARK  status: ('A' for Active; 'I' for Inactive)
REMARK    1  A    between atoms: C_8  and  C_4 
REMARK    2  A    between atoms: C_10  and  C_7 
REMARK    3  A    between atoms: C_10  and  C_9 
REMARK    4  A    between atoms: C_12  and  C_11 
REMARK    5  A    between atoms: O_14  and  C_11 
REMARK    6  A    between atoms: O_16  and  C_12 
ROOT
HETATM    1  C   UNK N   1      32.004  17.587   8.738  0.00  0.00     0.007 C 
HETATM    2  C   UNK N   1      33.000  18.257   8.146  0.00  0.00     0.056 C 
ENDROOT
BRANCH   1   3
HETATM    3  C   UNK N   1      30.618  17.835   8.279  0.00  0.00     0.043 C 
HETATM    4  C   UNK N   1      29.667  18.356   9.069  0.00  0.00     0.139 C 
BRANCH   4   5
HETATM    5  C   UNK N   1      28.297  18.581   8.552  0.00  0.00     0.200 C 
HETATM    6  O   UNK N   1      28.118  19.020   7.423  0.00  0.00    -0.645 OA
BRANCH   5   7
HETATM    7  O   UNK N   1      27.234  18.302   9.327  0.00  0.00    -0.771 OA
HETATM    8  H   UNK N   1      26.785  18.992   9.773  0.00  0.00     0.167 HD
ENDBRANCH   5   7
ENDBRANCH   4   5
BRANCH   4   9
HETATM    9  O   UNK N   1      29.948  18.685  10.348  0.00  0.00    -0.355 OA
HETATM   10  H   UNK N   1      30.573  19.358  10.532  0.00  0.00     0.218 HD
ENDBRANCH   4   9
ENDBRANCH   1   3
BRANCH   2  11
HETATM   11  C   UNK N   1      34.429  18.101   8.511  0.00  0.00     0.182 C 
HETATM   12  O   UNK N   1      35.217  19.019   8.326  0.00  0.00    -0.288 OA
BRANCH  11  13
HETATM   13  C   UNK N   1      34.899  16.824   9.104  0.00  0.00     0.014 A 
HETATM   14  C   UNK N   1      35.279  16.758  10.452  0.00  0.00     0.015 A 
HETATM   15  C   UNK N   1      35.721  15.548  11.000  0.00  0.00     0.001 A 
HETATM   16  C   UNK N   1      35.786  14.399  10.207  0.00  0.00     0.000 A 
HETATM   17  C   UNK N   1      35.410  14.456   8.864  0.00  0.00     0.001 A 
HETATM   18  C   UNK N   1      34.970  15.661   8.318  0.00  0.00     0.015 A 
ENDBRANCH  11  13
ENDBRANCH   2  11
TORSDOF 6
ENDMDL
MODEL 6
REMARK VINA RESULT:      -5.8     19.814     23.221
REMARK  6 active torsions:
REMARK  status: ('A' for Active; 'I' for Inactive)
REMARK    1  A    between atoms: C_8  and  C_4 
REMARK    2  A    between atoms: C_10  and  C_7 
REMARK    3  A    between atoms: C_10  and  C_9 
REMARK    4  A    between atoms: C_12  and  C_11 
REMARK    5  A    between atoms: O_14  and  C_11 
REMARK    6  A    between atoms: O_16  and  C_12 
ROOT
HETATM    1  C   UNK N   1      29.096  23.152  -2.492  0.00  0.00     0.007 C 
HETATM    2  C   UNK N   1      28.643  24.033  -3.391  0.00  0.00     0.056 C 
ENDROOT
BRANCH   1   3
HETATM    3  C   UNK N   1      30.543  22.839  -2.480  0.00  0.00     0.043 C 
HETATM    4  C   UNK N   1      31.070  21.782  -3.116  0.00  0.00     0.139 C 
BRANCH   4   5
HETATM    5  C   UNK N   1      32.528  21.521  -3.067  0.00  0.00     0.200 C 
HETATM    6  O   UNK N   1      33.238  21.758  -4.035  0.00  0.00    -0.645 OA
BRANCH   5   7
HETATM    7  O   UNK N   1      33.082  21.018  -1.950  0.00  0.00    -0.771 OA
HETATM    8  H   UNK N   1      33.564  21.576  -1.373  0.00  0.00     0.167 HD
ENDBRANCH   5   7
ENDBRANCH   4   5
BRANCH   4   9
HETATM    9  O   UNK N   1      30.275  20.940  -3.810  0.00  0.00    -0.355 OA
HETATM   10  H   UNK N   1      30.442  20.781  -4.719  0.00  0.00     0.218 HD
ENDBRANCH   4   9
ENDBRANCH   1   3
BRANCH   2  11
HETATM   11  C   UNK N   1      27.220  24.433  -3.509  0.00  0.00     0.182 C 
HETATM   12  O   UNK N   1      26.353  23.818  -2.902  0.00  0.00    -0.288 OA
BRANCH  11  13
HETATM   13  C   UNK N   1      26.851  25.586  -4.369  0.00  0.00     0.014 A 
HETATM   14  C   UNK N   1      27.697  26.698  -4.475  0.00  0.00     0.015 A 
HETATM   15  C   UNK N   1      27.340  27.780  -5.289  0.00  0.00     0.001 A 
HETATM   16  C   UNK N   1      26.136  27.757  -6.000  0.00  0.00     0.000 A 
HETATM   17  C   UNK N   1      25.288  26.653  -5.900  0.00  0.00     0.001 A 
HETATM   18  C   UNK N   1      25.644  25.576  -5.089  0.00  0.00     0.015 A 
ENDBRANCH  11  13
ENDBRANCH   2  11
TORSDOF 6
ENDMDL
MODEL 7
REMARK VINA RESULT:      -5.8     19.891     23.297
REMARK  6 active torsions:
REMARK  status: ('A' for Active; 'I' for Inactive)
REMARK    1  A    between atoms: C_8  and  C_4 
REMARK    2  A    between atoms: C_10  and  C_7 
REMARK    3  A    between atoms: C_10  and  C_9 
REMARK    4  A    between atoms: C_12  and  C_11 
REMARK    5  A    between atoms: O_14  and  C_11 
REMARK    6  A    between atoms: O_16  and  C_12 
ROOT
HETATM    1  C   UNK N   1      28.790  23.656  -3.319  0.00  0.00     0.007 C 
HETATM    2  C   UNK N   1      28.140  24.200  -4.355  0.00  0.00     0.056 C 
ENDROOT
BRANCH   1   3
HETATM    3  C   UNK N   1      30.017  22.873  -3.591  0.00  0.00     0.043 C 
HETATM    4  C   UNK N   1      30.897  22.535  -2.636  0.00  0.00     0.139 C 
BRANCH   4   5
HETATM    5  C   UNK N   1      32.109  21.750  -2.969  0.00  0.00     0.200 C 
HETATM    6  O   UNK N   1      32.491  21.652  -4.127  0.00  0.00    -0.645 OA
BRANCH   5   7
HETATM    7  O   UNK N   1      32.799  21.136  -1.992  0.00  0.00    -0.771 OA
HETATM    8  H   UNK N   1      33.720  20.991  -2.089  0.00  0.00     0.167 HD
ENDBRANCH   5   7
ENDBRANCH   4   5
BRANCH   4   9
HETATM    9  O   UNK N   1      30.688  22.907  -1.355  0.00  0.00    -0.355 OA
HETATM   10  H   UNK N   1      31.217  23.577  -0.969  0.00  0.00     0.218 HD
ENDBRANCH   4   9
ENDBRANCH   1   3
BRANCH   2  11
HETATM   11  C   UNK N   1      26.902  25.005  -4.220  0.00  0.00     0.182 C 
HETATM   12  O   UNK N   1      25.810  24.455  -4.175  0.00  0.00    -0.288 OA
BRANCH  11  13
HETATM   13  C   UNK N   1      26.995  26.485  -4.139  0.00  0.00     0.014 A 
HETATM   14  C   UNK N   1      25.850  27.262  -3.916  0.00  0.00     0.015 A 
HETATM   15  C   UNK N   1      25.948  28.657  -3.842  0.00  0.00     0.001 A 
HETATM   16  C   UNK N   1      27.190  29.282  -3.991  0.00  0.00     0.000 A 
HETATM   17  C   UNK N   1      28.335  28.516  -4.214  0.00  0.00     0.001 A 
HETATM   18  C   UNK N   1      28.236  27.127  -4.288  0.00  0.00     0.015 A 
ENDBRANCH  11  13
ENDBRANCH   2  11
TORSDOF 6
ENDMDL
MODEL 8
REMARK VINA RESULT:      -5.6      5.309      9.274
REMARK  6 active torsions:
REMARK  status: ('A' for Active; 'I' for Inactive)
REMARK    1  A    between atoms: C_8  and  C_4 
REMARK    2  A    between atoms: C_10  and  C_7 
REMARK    3  A    between atoms: C_10  and  C_9 
REMARK    4  A    between atoms: C_12  and  C_11 
REMARK    5  A    between atoms: O_14  and  C_11 
REMARK    6  A    between atoms: O_16  and  C_12 
ROOT
HETATM    1  C   UNK N   1      33.481  15.257   8.519  0.00  0.00     0.007 C 
HETATM    2  C   UNK N   1      32.720  16.318   8.229  0.00  0.00     0.056 C 
ENDROOT
BRANCH   1   3
HETATM    3  C   UNK N   1      34.685  15.462   9.355  0.00  0.00     0.043 C 
HETATM    4  C   UNK N   1      34.694  15.282  10.685  0.00  0.00     0.139 C 
BRANCH   4   5
HETATM    5  C   UNK N   1      35.932  15.503  11.469  0.00  0.00     0.200 C 
HETATM    6  O   UNK N   1      36.006  15.141  12.635  0.00  0.00    -0.645 OA
BRANCH   5   7
HETATM    7  O   UNK N   1      36.989  16.106  10.897  0.00  0.00    -0.771 OA
HETATM    8  H   UNK N   1      37.516  16.700  11.394  0.00  0.00     0.167 HD
ENDBRANCH   5   7
ENDBRANCH   4   5
BRANCH   4   9
HETATM    9  O   UNK N   1      33.571  14.897  11.328  0.00  0.00    -0.355 OA
HETATM   10  H   UNK N   1      32.935  14.370  10.884  0.00  0.00     0.218 HD
ENDBRANCH   4   9
ENDBRANCH   1   3
BRANCH   2  11
HETATM   11  C   UNK N   1      31.490  16.249   7.403  0.00  0.00     0.182 C 
HETATM   12  O   UNK N   1      31.426  15.481   6.453  0.00  0.00    -0.288 OA
BRANCH  11  13
HETATM   13  C   UNK N   1      30.334  17.120   7.736  0.00  0.00     0.014 A 
HETATM   14  C   UNK N   1      29.313  17.342   6.801  0.00  0.00     0.015 A 
HETATM   15  C   UNK N   1      28.228  18.165   7.125  0.00  0.00     0.001 A 
HETATM   16  C   UNK N   1      28.156  18.770   8.383  0.00  0.00     0.000 A 
HETATM   17  C   UNK N   1      29.168  18.554   9.320  0.00  0.00     0.001 A 
HETATM   18  C   UNK N   1      30.249  17.735   8.997  0.00  0.00     0.015 A 
ENDBRANCH  11  13
ENDBRANCH   2  11
TORSDOF 6
ENDMDL
MODEL 9
REMARK VINA RESULT:      -5.6      2.625      2.967
REMARK  6 active torsions:
REMARK  status: ('A' for Active; 'I' for Inactive)
REMARK    1  A    between atoms: C_8  and  C_4 
REMARK    2  A    between atoms: C_10  and  C_7 
REMARK    3  A    between atoms: C_10  and  C_9 
REMARK    4  A    between atoms: C_12  and  C_11 
REMARK    5  A    between atoms: O_14  and  C_11 
REMARK    6  A    between atoms: O_16  and  C_12 
ROOT
HETATM    1  C   UNK N   1      36.157  14.262  12.441  0.00  0.00     0.007 C 
HETATM    2  C   UNK N   1      36.396  14.725  13.673  0.00  0.00     0.056 C 
ENDROOT
BRANCH   1   3
HETATM    3  C   UNK N   1      35.944  15.239  11.349  0.00  0.00     0.043 C 
HETATM    4  C   UNK N   1      34.732  15.529  10.851  0.00  0.00     0.139 C 
BRANCH   4   5
HETATM    5  C   UNK N   1      34.582  16.517   9.757  0.00  0.00     0.200 C 
HETATM    6  O   UNK N   1      33.808  16.313   8.832  0.00  0.00    -0.645 OA
BRANCH   5   7
HETATM    7  O   UNK N   1      35.301  17.653   9.777  0.00  0.00    -0.771 OA
HETATM    8  H   UNK N   1      36.183  17.656   9.459  0.00  0.00     0.167 HD
ENDBRANCH   5   7
ENDBRANCH   4   5
BRANCH   4   9
HETATM    9  O   UNK N   1      33.631  14.921  11.341  0.00  0.00    -0.355 OA
HETATM   10  H   UNK N   1      33.132  14.344  10.796  0.00  0.00     0.218 HD
ENDBRANCH   4   9
ENDBRANCH   1   3
BRANCH   2  11
HETATM   11  C   UNK N   1      36.626  13.855  14.851  0.00  0.00     0.182 C 
HETATM   12  O   UNK N   1      37.324  14.242  15.778  0.00  0.00    -0.288 OA
BRANCH  11  13
HETATM   13  C   UNK N   1      36.004  12.507  14.899  0.00  0.00     0.014 A 
HETATM   14  C   UNK N   1      36.798  11.352  14.879  0.00  0.00     0.015 A 
HETATM   15  C   UNK N   1      36.201  10.086  14.925  0.00  0.00     0.001 A 
HETATM   16  C   UNK N   1      34.809   9.968  14.991  0.00  0.00     0.000 A 
HETATM   17  C   UNK N   1      34.012  11.113  15.011  0.00  0.00     0.001 A 
HETATM   18  C   UNK N   1      34.607  12.374  14.965  0.00  0.00     0.015 A 
ENDBRANCH  11  13
ENDBRANCH   2  11
TORSDOF 6
ENDMDL
