MODEL 1
REMARK VINA RESULT:      -6.8      0.000      0.000
REMARK  6 active torsions:
REMARK  status: ('A' for Active; 'I' for Inactive)
REMARK    1  A    between atoms: C_11  and  C_7 
REMARK    2  A    between atoms: C_12  and  C_7 
REMARK    3  A    between atoms: C_14  and  C_10 
REMARK    4  A    between atoms: O_26  and  C_15 
REMARK    5  A    between atoms: O_27  and  C_17 
REMARK    6  A    between atoms: N_20  and  C_18 
REMARK       I    between atoms: N_22  and  C_19 
ROOT
HETATM    1  C   UNK N   1      31.367  17.854   8.611  0.00  0.00     0.013 C 
HETATM    2  C   UNK N   1      30.060  17.969   8.351  0.00  0.00     0.007 C 
HETATM    3  C   UNK N   1      34.385  16.261   6.983  0.00  0.00     0.048 A 
HETATM    4  C   UNK N   1      33.581  16.875   7.948  0.00  0.00    -0.038 A 
HETATM    5  C   UNK N   1      32.249  17.170   7.637  0.00  0.00     0.007 A 
HETATM    6  C   UNK N   1      29.481  17.237   7.168  0.00  0.00     0.156 C 
HETATM    7  C   UNK N   1      33.890  15.929   5.717  0.00  0.00     0.104 A 
HETATM    8  C   UNK N   1      31.715  16.842   6.377  0.00  0.00     0.116 A 
HETATM    9  C   UNK N   1      32.534  16.220   5.394  0.00  0.00     0.136 A 
HETATM   10  O   UNK N   1      30.410  17.138   6.133  0.00  0.00    -0.338 OA
ENDROOT
BRANCH   4  11
HETATM   11  C   UNK N   1      34.103  17.187   9.330  0.00  0.00     0.083 C 
BRANCH  11  12
HETATM   12  C   UNK N   1      34.683  16.045  10.120  0.00  0.00     0.006 A 
HETATM   13  C   UNK N   1      36.049  16.040  10.396  0.00  0.00     0.117 A 
HETATM   14  N   UNK N   1      36.588  15.051  11.157  0.00  0.00    -0.202 N 
HETATM   15  C   UNK N   1      35.810  14.057  11.659  0.00  0.00     0.677 A 
HETATM   16  H   UNK N   1      37.553  15.055  11.347  0.00  0.00     0.183 HD
HETATM   17  N   UNK N   1      36.333  13.140  12.380  0.00  0.00    -0.234 N 
HETATM   18  N   UNK N   1      34.476  14.039  11.404  0.00  0.00    -0.177 N 
HETATM   19  H   UNK N   1      36.237  12.191  12.140  0.00  0.00     0.174 HD
ATOM     20  HN  UNK N   1      36.858  13.397  13.217  1.00  0.00     0.174 HD
HETATM   21  C   UNK N   1      33.894  15.010  10.653  0.00  0.00     0.122 A 
HETATM   22  H   UNK N   1      33.922  13.312  11.771  0.00  0.00     0.185 HD
BRANCH  21  23
HETATM   23  N   UNK N   1      32.629  14.975  10.450  0.00  0.00    -0.385 N 
HETATM   24  H   UNK N   1      32.016  14.824   9.696  0.00  0.00     0.157 HD
ATOM     25  HN  UNK N   1      32.114  15.154  11.312  1.00  0.00     0.157 HD
ENDBRANCH  21  23
ENDBRANCH  11  12
ENDBRANCH   4  11
BRANCH   7  26
HETATM   26  O   UNK N   1      34.753  15.322   4.858  0.00  0.00    -0.353 OA
HETATM   27  C   UNK N   1      35.023  13.973   4.801  0.00  0.00     0.210 C 
ENDBRANCH   7  26
BRANCH   9  28
HETATM   28  O   UNK N   1      32.057  15.881   4.163  0.00  0.00    -0.351 OA
HETATM   29  C   UNK N   1      32.071  16.678   3.042  0.00  0.00     0.210 C 
ENDBRANCH   9  28
BRANCH   6  30
HETATM   30  C   UNK N   1      28.140  17.858   6.754  0.00  0.00     0.019 A 
HETATM   31  C   UNK N   1      28.005  19.296   7.203  0.00  0.00     0.008 A 
HETATM   32  C   UNK N   1      28.289  18.973   5.741  0.00  0.00     0.008 A 
ENDBRANCH   6  30
TORSDOF 6
ENDMDL
MODEL 2
REMARK VINA RESULT:      -6.6     10.519     12.760
REMARK  6 active torsions:
REMARK  status: ('A' for Active; 'I' for Inactive)
REMARK    1  A    between atoms: C_11  and  C_7 
REMARK    2  A    between atoms: C_12  and  C_7 
REMARK    3  A    between atoms: C_14  and  C_10 
REMARK    4  A    between atoms: O_26  and  C_15 
REMARK    5  A    between atoms: O_27  and  C_17 
REMARK    6  A    between atoms: N_20  and  C_18 
REMARK       I    between atoms: N_22  and  C_19 
ROOT
HETATM    1  C   UNK N   1      21.195  15.926   7.004  0.00  0.00     0.013 C 
HETATM    2  C   UNK N   1      21.236  15.052   8.017  0.00  0.00     0.007 C 
HETATM    3  C   UNK N   1      23.033  16.476   3.746  0.00  0.00     0.048 A 
HETATM    4  C   UNK N   1      22.203  16.715   4.846  0.00  0.00    -0.038 A 
HETATM    5  C   UNK N   1      22.089  15.736   5.839  0.00  0.00     0.007 A 
HETATM    6  C   UNK N   1      22.320  14.006   8.038  0.00  0.00     0.156 C 
HETATM    7  C   UNK N   1      23.755  15.285   3.616  0.00  0.00     0.104 A 
HETATM    8  C   UNK N   1      22.809  14.530   5.745  0.00  0.00     0.116 A 
HETATM    9  C   UNK N   1      23.650  14.285   4.625  0.00  0.00     0.136 A 
HETATM   10  O   UNK N   1      22.672  13.619   6.746  0.00  0.00    -0.338 OA
ENDROOT
BRANCH   4  11
HETATM   11  C   UNK N   1      21.463  18.022   5.009  0.00  0.00     0.083 C 
BRANCH  11  12
HETATM   12  C   UNK N   1      21.155  18.798   3.757  0.00  0.00     0.006 A 
HETATM   13  C   UNK N   1      22.013  19.825   3.370  0.00  0.00     0.117 A 
HETATM   14  N   UNK N   1      21.791  20.501   2.213  0.00  0.00    -0.202 N 
HETATM   15  C   UNK N   1      20.734  20.190   1.417  0.00  0.00     0.677 A 
HETATM   16  H   UNK N   1      22.402  21.225   1.947  0.00  0.00     0.183 HD
HETATM   17  N   UNK N   1      20.545  20.832   0.328  0.00  0.00    -0.234 N 
HETATM   18  N   UNK N   1      19.882  19.194   1.772  0.00  0.00    -0.177 N 
HETATM   19  H   UNK N   1      19.693  21.291   0.152  0.00  0.00     0.174 HD
ATOM     20  HN  UNK N   1      21.290  20.868  -0.369  1.00  0.00     0.174 HD
HETATM   21  C   UNK N   1      20.069  18.488   2.917  0.00  0.00     0.122 A 
HETATM   22  H   UNK N   1      19.117  18.980   1.190  0.00  0.00     0.185 HD
BRANCH  21  23
HETATM   23  N   UNK N   1      19.259  17.540   3.212  0.00  0.00    -0.385 N 
HETATM   24  H   UNK N   1      18.288  17.381   3.201  0.00  0.00     0.157 HD
ATOM     25  HN  UNK N   1      19.762  16.719   3.550  1.00  0.00     0.157 HD
ENDBRANCH  21  23
ENDBRANCH  11  12
ENDBRANCH   4  11
BRANCH   7  26
HETATM   26  O   UNK N   1      24.542  15.160   2.513  0.00  0.00    -0.353 OA
HETATM   27  C   UNK N   1      25.830  15.628   2.382  0.00  0.00     0.210 C 
ENDBRANCH   7  26
BRANCH   9  28
HETATM   28  O   UNK N   1      24.367  13.134   4.495  0.00  0.00    -0.351 OA
HETATM   29  C   UNK N   1      25.617  12.895   5.019  0.00  0.00     0.210 C 
ENDBRANCH   9  28
BRANCH   6  30
HETATM   30  C   UNK N   1      21.927  12.842   8.959  0.00  0.00     0.019 A 
HETATM   31  C   UNK N   1      22.480  12.999  10.358  0.00  0.00     0.008 A 
HETATM   32  C   UNK N   1      21.004  13.260  10.084  0.00  0.00     0.008 A 
ENDBRANCH   6  30
TORSDOF 6
ENDMDL
MODEL 3
REMARK VINA RESULT:      -6.6      4.063      6.893
REMARK  6 active torsions:
REMARK  status: ('A' for Active; 'I' for Inactive)
REMARK    1  A    between atoms: C_11  and  C_7 
REMARK    2  A    between atoms: C_12  and  C_7 
REMARK    3  A    between atoms: C_14  and  C_10 
REMARK    4  A    between atoms: O_26  and  C_15 
REMARK    5  A    between atoms: O_27  and  C_17 
REMARK    6  A    between atoms: N_20  and  C_18 
REMARK       I    between atoms: N_22  and  C_19 
ROOT
HETATM    1  C   UNK N   1      30.021  14.717   5.503  0.00  0.00     0.013 C 
HETATM    2  C   UNK N   1      30.247  13.602   4.800  0.00  0.00     0.007 C 
HETATM    3  C   UNK N   1      32.092  17.430   7.131  0.00  0.00     0.048 A 
HETATM    4  C   UNK N   1      30.990  16.637   6.797  0.00  0.00    -0.038 A 
HETATM    5  C   UNK N   1      31.164  15.564   5.917  0.00  0.00     0.007 A 
HETATM    6  C   UNK N   1      31.665  13.131   4.609  0.00  0.00     0.156 C 
HETATM    7  C   UNK N   1      33.365  17.174   6.611  0.00  0.00     0.104 A 
HETATM    8  C   UNK N   1      32.434  15.271   5.383  0.00  0.00     0.116 A 
HETATM    9  C   UNK N   1      33.554  16.079   5.720  0.00  0.00     0.136 A 
HETATM   10  O   UNK N   1      32.549  14.207   4.544  0.00  0.00    -0.338 OA
ENDROOT
BRANCH   4  11
HETATM   11  C   UNK N   1      29.626  16.886   7.397  0.00  0.00     0.083 C 
BRANCH  11  12
HETATM   12  C   UNK N   1      28.840  18.051   6.859  0.00  0.00     0.006 A 
HETATM   13  C   UNK N   1      28.860  18.303   5.489  0.00  0.00     0.117 A 
HETATM   14  N   UNK N   1      28.112  19.312   4.970  0.00  0.00    -0.202 N 
HETATM   15  C   UNK N   1      27.336  20.088   5.772  0.00  0.00     0.677 A 
HETATM   16  H   UNK N   1      28.132  19.484   4.001  0.00  0.00     0.183 HD
HETATM   17  N   UNK N   1      26.634  21.027   5.265  0.00  0.00    -0.234 N 
HETATM   18  N   UNK N   1      27.301  19.863   7.111  0.00  0.00    -0.177 N 
HETATM   19  H   UNK N   1      26.728  21.955   5.577  0.00  0.00     0.174 HD
ATOM     20  HN  UNK N   1      25.965  20.811   4.524  1.00  0.00     0.174 HD
HETATM   21  C   UNK N   1      28.027  18.862   7.672  0.00  0.00     0.122 A 
HETATM   22  H   UNK N   1      26.738  20.433   7.683  0.00  0.00     0.185 HD
BRANCH  21  23
HETATM   23  N   UNK N   1      27.953  18.663   8.936  0.00  0.00    -0.385 N 
HETATM   24  H   UNK N   1      27.298  18.313   9.581  0.00  0.00     0.157 HD
ATOM     25  HN  UNK N   1      28.815  18.945   9.403  1.00  0.00     0.157 HD
ENDBRANCH  21  23
ENDBRANCH  11  12
ENDBRANCH   4  11
BRANCH   7  26
HETATM   26  O   UNK N   1      34.371  17.999   7.011  0.00  0.00    -0.353 OA
HETATM   27  C   UNK N   1      34.597  18.433   8.298  0.00  0.00     0.210 C 
ENDBRANCH   7  26
BRANCH   9  28
HETATM   28  O   UNK N   1      34.801  15.830   5.229  0.00  0.00    -0.351 OA
HETATM   29  C   UNK N   1      35.721  14.956   5.761  0.00  0.00     0.210 C 
ENDBRANCH   9  28
BRANCH   6  30
HETATM   30  C   UNK N   1      31.756  12.168   3.416  0.00  0.00     0.019 A 
HETATM   31  C   UNK N   1      30.854  12.576   2.272  0.00  0.00     0.008 A 
HETATM   32  C   UNK N   1      32.358  12.806   2.182  0.00  0.00     0.008 A 
ENDBRANCH   6  30
TORSDOF 6
ENDMDL
MODEL 4
REMARK VINA RESULT:      -6.6      7.106      9.892
REMARK  6 active torsions:
REMARK  status: ('A' for Active; 'I' for Inactive)
REMARK    1  A    between atoms: C_11  and  C_7 
REMARK    2  A    between atoms: C_12  and  C_7 
REMARK    3  A    between atoms: C_14  and  C_10 
REMARK    4  A    between atoms: O_26  and  C_15 
REMARK    5  A    between atoms: O_27  and  C_17 
REMARK    6  A    between atoms: N_20  and  C_18 
REMARK       I    between atoms: N_22  and  C_19 
ROOT
HETATM    1  C   UNK N   1      26.395  14.794   6.171  0.00  0.00     0.013 C 
HETATM    2  C   UNK N   1      27.193  15.712   5.614  0.00  0.00     0.007 C 
HETATM    3  C   UNK N   1      22.773  14.546   7.228  0.00  0.00     0.048 A 
HETATM    4  C   UNK N   1      24.131  14.238   7.101  0.00  0.00    -0.038 A 
HETATM    5  C   UNK N   1      24.958  15.095   6.367  0.00  0.00     0.007 A 
HETATM    6  C   UNK N   1      26.655  17.099   5.372  0.00  0.00     0.156 C 
HETATM    7  C   UNK N   1      22.222  15.693   6.645  0.00  0.00     0.104 A 
HETATM    8  C   UNK N   1      24.439  16.262   5.775  0.00  0.00     0.116 A 
HETATM    9  C   UNK N   1      23.058  16.574   5.901  0.00  0.00     0.136 A 
HETATM   10  O   UNK N   1      25.292  17.068   5.085  0.00  0.00    -0.338 OA
ENDROOT
BRANCH   4  11
HETATM   11  C   UNK N   1      24.733  13.027   7.773  0.00  0.00     0.083 C 
BRANCH  11  12
HETATM   12  C   UNK N   1      24.181  12.641   9.118  0.00  0.00     0.006 A 
HETATM   13  C   UNK N   1      23.060  11.815   9.176  0.00  0.00     0.117 A 
HETATM   14  N   UNK N   1      22.577  11.404  10.378  0.00  0.00    -0.202 N 
HETATM   15  C   UNK N   1      23.174  11.789  11.537  0.00  0.00     0.677 A 
HETATM   16  H   UNK N   1      21.786  10.821  10.411  0.00  0.00     0.183 HD
HETATM   17  N   UNK N   1      22.710  11.386  12.657  0.00  0.00    -0.234 N 
HETATM   18  N   UNK N   1      24.267  12.595  11.507  0.00  0.00    -0.177 N 
HETATM   19  H   UNK N   1      22.445  12.026  13.356  0.00  0.00     0.174 HD
ATOM     20  HN  UNK N   1      22.613  10.384  12.830  1.00  0.00     0.174 HD
HETATM   21  C   UNK N   1      24.787  13.025  10.328  0.00  0.00     0.122 A 
HETATM   22  H   UNK N   1      24.688  12.870  12.353  0.00  0.00     0.185 HD
BRANCH  21  23
HETATM   23  N   UNK N   1      25.832  13.766  10.335  0.00  0.00    -0.385 N 
HETATM   24  H   UNK N   1      26.779  13.693  10.081  0.00  0.00     0.157 HD
ATOM     25  HN  UNK N   1      25.623  14.693  10.707  1.00  0.00     0.157 HD
ENDBRANCH  21  23
ENDBRANCH  11  12
ENDBRANCH   4  11
BRANCH   7  26
HETATM   26  O   UNK N   1      20.893  15.905   6.841  0.00  0.00    -0.353 OA
HETATM   27  C   UNK N   1      19.873  15.445   6.039  0.00  0.00     0.210 C 
ENDBRANCH   7  26
BRANCH   9  28
HETATM   28  O   UNK N   1      22.514  17.695   5.348  0.00  0.00    -0.351 OA
HETATM   29  C   UNK N   1      22.052  17.819   4.058  0.00  0.00     0.210 C 
ENDBRANCH   9  28
BRANCH   6  30
HETATM   30  C   UNK N   1      27.504  17.829   4.321  0.00  0.00     0.019 A 
HETATM   31  C   UNK N   1      26.933  19.181   3.954  0.00  0.00     0.008 A 
HETATM   32  C   UNK N   1      28.159  19.085   4.854  0.00  0.00     0.008 A 
ENDBRANCH   6  30
TORSDOF 6
ENDMDL
MODEL 5
REMARK VINA RESULT:      -6.5      9.775     13.759
REMARK  6 active torsions:
REMARK  status: ('A' for Active; 'I' for Inactive)
REMARK    1  A    between atoms: C_11  and  C_7 
REMARK    2  A    between atoms: C_12  and  C_7 
REMARK    3  A    between atoms: C_14  and  C_10 
REMARK    4  A    between atoms: O_26  and  C_15 
REMARK    5  A    between atoms: O_27  and  C_17 
REMARK    6  A    between atoms: N_20  and  C_18 
REMARK       I    between atoms: N_22  and  C_19 
ROOT
HETATM    1  C   UNK N   1      22.788  15.170   4.643  0.00  0.00     0.013 C 
HETATM    2  C   UNK N   1      23.889  14.497   4.998  0.00  0.00     0.007 C 
HETATM    3  C   UNK N   1      19.514  16.168   6.250  0.00  0.00     0.048 A 
HETATM    4  C   UNK N   1      20.482  15.938   5.267  0.00  0.00    -0.038 A 
HETATM    5  C   UNK N   1      21.717  15.397   5.640  0.00  0.00     0.007 A 
HETATM    6  C   UNK N   1      23.932  13.823   6.344  0.00  0.00     0.156 C 
HETATM    7  C   UNK N   1      19.748  15.866   7.596  0.00  0.00     0.104 A 
HETATM    8  C   UNK N   1      21.982  15.072   6.984  0.00  0.00     0.116 A 
HETATM    9  C   UNK N   1      21.000  15.309   7.984  0.00  0.00     0.136 A 
HETATM   10  O   UNK N   1      23.194  14.535   7.289  0.00  0.00    -0.338 OA
ENDROOT
BRANCH   4  11
HETATM   11  C   UNK N   1      20.209  16.220   3.808  0.00  0.00     0.083 C 
BRANCH  11  12
HETATM   12  C   UNK N   1      20.331  17.648   3.349  0.00  0.00     0.006 A 
HETATM   13  C   UNK N   1      21.019  18.558   4.149  0.00  0.00     0.117 A 
HETATM   14  N   UNK N   1      21.194  19.838   3.730  0.00  0.00    -0.202 N 
HETATM   15  C   UNK N   1      20.705  20.252   2.531  0.00  0.00     0.677 A 
HETATM   16  H   UNK N   1      21.681  20.475   4.301  0.00  0.00     0.183 HD
HETATM   17  N   UNK N   1      20.887  21.458   2.150  0.00  0.00    -0.234 N 
HETATM   18  N   UNK N   1      20.030  19.384   1.733  0.00  0.00    -0.177 N 
HETATM   19  H   UNK N   1      20.126  22.033   1.910  0.00  0.00     0.174 HD
ATOM     20  HN  UNK N   1      21.836  21.830   2.094  1.00  0.00     0.174 HD
HETATM   21  C   UNK N   1      19.836  18.093   2.110  0.00  0.00     0.122 A 
HETATM   22  H   UNK N   1      19.677  19.696   0.869  0.00  0.00     0.185 HD
BRANCH  21  23
HETATM   23  N   UNK N   1      19.214  17.295   1.324  0.00  0.00    -0.385 N 
HETATM   24  H   UNK N   1      19.201  17.082   0.363  0.00  0.00     0.157 HD
ATOM     25  HN  UNK N   1      18.547  16.720   1.837  1.00  0.00     0.157 HD
ENDBRANCH  21  23
ENDBRANCH  11  12
ENDBRANCH   4  11
BRANCH   7  26
HETATM   26  O   UNK N   1      18.734  16.117   8.468  0.00  0.00    -0.353 OA
HETATM   27  C   UNK N   1      18.467  17.324   9.072  0.00  0.00     0.210 C 
ENDBRANCH   7  26
BRANCH   9  28
HETATM   28  O   UNK N   1      21.213  15.006   9.296  0.00  0.00    -0.351 OA
HETATM   29  C   UNK N   1      20.944  13.801   9.903  0.00  0.00     0.210 C 
ENDBRANCH   9  28
BRANCH   6  30
HETATM   30  C   UNK N   1      25.384  13.543   6.759  0.00  0.00     0.019 A 
HETATM   31  C   UNK N   1      26.241  13.090   5.598  0.00  0.00     0.008 A 
HETATM   32  C   UNK N   1      26.375  14.507   6.142  0.00  0.00     0.008 A 
ENDBRANCH   6  30
TORSDOF 6
ENDMDL
MODEL 6
REMARK VINA RESULT:      -6.5      2.567      3.995
REMARK  6 active torsions:
REMARK  status: ('A' for Active; 'I' for Inactive)
REMARK    1  A    between atoms: C_11  and  C_7 
REMARK    2  A    between atoms: C_12  and  C_7 
REMARK    3  A    between atoms: C_14  and  C_10 
REMARK    4  A    between atoms: O_26  and  C_15 
REMARK    5  A    between atoms: O_27  and  C_17 
REMARK    6  A    between atoms: N_20  and  C_18 
REMARK       I    between atoms: N_22  and  C_19 
ROOT
HETATM    1  C   UNK N   1      33.482  16.074   8.139  0.00  0.00     0.013 C 
HETATM    2  C   UNK N   1      32.994  16.737   7.084  0.00  0.00     0.007 C 
HETATM    3  C   UNK N   1      36.178  13.504   8.788  0.00  0.00     0.048 A 
HETATM    4  C   UNK N   1      35.062  14.321   8.992  0.00  0.00    -0.038 A 
HETATM    5  C   UNK N   1      34.635  15.162   7.959  0.00  0.00     0.007 A 
HETATM    6  C   UNK N   1      33.502  16.399   5.707  0.00  0.00     0.156 C 
HETATM    7  C   UNK N   1      36.874  13.501   7.575  0.00  0.00     0.104 A 
HETATM    8  C   UNK N   1      35.306  15.178   6.722  0.00  0.00     0.116 A 
HETATM    9  C   UNK N   1      36.442  14.349   6.514  0.00  0.00     0.136 A 
HETATM   10  O   UNK N   1      34.839  16.003   5.746  0.00  0.00    -0.338 OA
ENDROOT
BRANCH   4  11
HETATM   11  C   UNK N   1      34.283  14.286  10.286  0.00  0.00     0.083 C 
BRANCH  11  12
HETATM   12  C   UNK N   1      35.073  14.171  11.562  0.00  0.00     0.006 A 
HETATM   13  C   UNK N   1      35.784  15.279  12.018  0.00  0.00     0.117 A 
HETATM   14  N   UNK N   1      36.457  15.219  13.197  0.00  0.00    -0.202 N 
HETATM   15  C   UNK N   1      36.449  14.086  13.947  0.00  0.00     0.677 A 
HETATM   16  H   UNK N   1      36.956  16.006  13.513  0.00  0.00     0.183 HD
HETATM   17  N   UNK N   1      37.081  14.051  15.057  0.00  0.00    -0.234 N 
HETATM   18  N   UNK N   1      35.764  12.992  13.523  0.00  0.00    -0.177 N 
HETATM   19  H   UNK N   1      37.767  13.367  15.228  0.00  0.00     0.174 HD
ATOM     20  HN  UNK N   1      36.871  14.744  15.777  1.00  0.00     0.174 HD
HETATM   21  C   UNK N   1      35.073  13.008  12.354  0.00  0.00     0.122 A 
HETATM   22  H   UNK N   1      35.769  12.175  14.073  0.00  0.00     0.185 HD
BRANCH  21  23
HETATM   23  N   UNK N   1      34.420  11.967  11.995  0.00  0.00    -0.385 N 
HETATM   24  H   UNK N   1      33.484  11.718  11.818  0.00  0.00     0.157 HD
ATOM     25  HN  UNK N   1      35.044  11.173  11.851  1.00  0.00     0.157 HD
ENDBRANCH  21  23
ENDBRANCH  11  12
ENDBRANCH   4  11
BRANCH   7  26
HETATM   26  O   UNK N   1      37.938  12.658   7.477  0.00  0.00    -0.353 OA
HETATM   27  C   UNK N   1      37.892  11.286   7.564  0.00  0.00     0.210 C 
ENDBRANCH   7  26
BRANCH   9  28
HETATM   28  O   UNK N   1      37.119  14.330   5.332  0.00  0.00    -0.351 OA
HETATM   29  C   UNK N   1      36.930  13.434   4.304  0.00  0.00     0.210 C 
ENDBRANCH   9  28
BRANCH   6  30
HETATM   30  C   UNK N   1      33.214  17.547   4.730  0.00  0.00     0.019 A 
HETATM   31  C   UNK N   1      32.778  17.052   3.368  0.00  0.00     0.008 A 
HETATM   32  C   UNK N   1      31.755  17.638   4.334  0.00  0.00     0.008 A 
ENDBRANCH   6  30
TORSDOF 6
ENDMDL
MODEL 7
REMARK VINA RESULT:      -6.5      1.523      2.091
REMARK  6 active torsions:
REMARK  status: ('A' for Active; 'I' for Inactive)
REMARK    1  A    between atoms: C_11  and  C_7 
REMARK    2  A    between atoms: C_12  and  C_7 
REMARK    3  A    between atoms: C_14  and  C_10 
REMARK    4  A    between atoms: O_26  and  C_15 
REMARK    5  A    between atoms: O_27  and  C_17 
REMARK    6  A    between atoms: N_20  and  C_18 
REMARK       I    between atoms: N_22  and  C_19 
ROOT
HETATM    1  C   UNK N   1      29.539  17.924   7.999  0.00  0.00     0.013 C 
HETATM    2  C   UNK N   1      28.421  18.554   7.621  0.00  0.00     0.007 C 
HETATM    3  C   UNK N   1      32.158  15.724   6.388  0.00  0.00     0.048 A 
HETATM    4  C   UNK N   1      31.410  16.372   7.375  0.00  0.00    -0.038 A 
HETATM    5  C   UNK N   1      30.338  17.186   6.994  0.00  0.00     0.007 A 
HETATM    6  C   UNK N   1      27.898  18.343   6.224  0.00  0.00     0.156 C 
HETATM    7  C   UNK N   1      31.858  15.864   5.028  0.00  0.00     0.104 A 
HETATM    8  C   UNK N   1      30.002  17.342   5.636  0.00  0.00     0.116 A 
HETATM    9  C   UNK N   1      30.764  16.685   4.631  0.00  0.00     0.136 A 
HETATM   10  O   UNK N   1      28.941  18.133   5.322  0.00  0.00    -0.338 OA
ENDROOT
BRANCH   4  11
HETATM   11  C   UNK N   1      31.705  16.180   8.844  0.00  0.00     0.083 C 
BRANCH  11  12
HETATM   12  C   UNK N   1      33.113  15.803   9.219  0.00  0.00     0.006 A 
HETATM   13  C   UNK N   1      34.051  16.813   9.423  0.00  0.00     0.117 A 
HETATM   14  N   UNK N   1      35.313  16.502   9.819  0.00  0.00    -0.202 N 
HETATM   15  C   UNK N   1      35.681  15.210  10.023  0.00  0.00     0.677 A 
HETATM   16  H   UNK N   1      35.969  17.221   9.962  0.00  0.00     0.183 HD
HETATM   17  N   UNK N   1      36.870  14.938  10.403  0.00  0.00    -0.234 N 
HETATM   18  N   UNK N   1      34.785  14.207   9.829  0.00  0.00    -0.177 N 
HETATM   19  H   UNK N   1      37.439  14.324   9.886  0.00  0.00     0.174 HD
ATOM     20  HN  UNK N   1      37.234  15.364  11.257  1.00  0.00     0.174 HD
HETATM   21  C   UNK N   1      33.512  14.471   9.438  0.00  0.00     0.122 A 
HETATM   22  H   UNK N   1      35.064  13.274   9.976  0.00  0.00     0.185 HD
BRANCH  21  23
HETATM   23  N   UNK N   1      32.686  13.503   9.287  0.00  0.00    -0.385 N 
HETATM   24  H   UNK N   1      31.774  13.272   9.574  0.00  0.00     0.157 HD
ATOM     25  HN  UNK N   1      33.086  12.767   8.705  1.00  0.00     0.157 HD
ENDBRANCH  21  23
ENDBRANCH  11  12
ENDBRANCH   4  11
BRANCH   7  26
HETATM   26  O   UNK N   1      32.640  15.179   4.151  0.00  0.00    -0.353 OA
HETATM   27  C   UNK N   1      33.996  14.973   4.267  0.00  0.00     0.210 C 
ENDBRANCH   7  26
BRANCH   9  28
HETATM   28  O   UNK N   1      30.472  16.805   3.305  0.00  0.00    -0.351 OA
HETATM   29  C   UNK N   1      29.547  16.062   2.609  0.00  0.00     0.210 C 
ENDBRANCH   9  28
BRANCH   6  30
HETATM   30  C   UNK N   1      26.943  19.478   5.829  0.00  0.00     0.019 A 
HETATM   31  C   UNK N   1      27.081  20.689   6.726  0.00  0.00     0.008 A 
HETATM   32  C   UNK N   1      27.661  20.709   5.316  0.00  0.00     0.008 A 
ENDBRANCH   6  30
TORSDOF 6
ENDMDL
MODEL 8
REMARK VINA RESULT:      -6.4     14.549     17.517
REMARK  6 active torsions:
REMARK  status: ('A' for Active; 'I' for Inactive)
REMARK    1  A    between atoms: C_11  and  C_7 
REMARK    2  A    between atoms: C_12  and  C_7 
REMARK    3  A    between atoms: C_14  and  C_10 
REMARK    4  A    between atoms: O_26  and  C_15 
REMARK    5  A    between atoms: O_27  and  C_17 
REMARK    6  A    between atoms: N_20  and  C_18 
REMARK       I    between atoms: N_22  and  C_19 
ROOT
HETATM    1  C   UNK N   1      29.119  23.727  -3.743  0.00  0.00     0.013 C 
HETATM    2  C   UNK N   1      30.265  23.069  -3.951  0.00  0.00     0.007 C 
HETATM    3  C   UNK N   1      26.031  24.608  -5.740  0.00  0.00     0.048 A 
HETATM    4  C   UNK N   1      26.978  24.609  -4.711  0.00  0.00    -0.038 A 
HETATM    5  C   UNK N   1      28.106  23.790  -4.822  0.00  0.00     0.007 A 
HETATM    6  C   UNK N   1      30.582  22.569  -5.336  0.00  0.00     0.156 C 
HETATM    7  C   UNK N   1      26.186  23.811  -6.879  0.00  0.00     0.104 A 
HETATM    8  C   UNK N   1      28.299  22.983  -5.960  0.00  0.00     0.116 A 
HETATM    9  C   UNK N   1      27.334  22.978  -7.004  0.00  0.00     0.136 A 
HETATM   10  O   UNK N   1      29.421  22.216  -6.023  0.00  0.00    -0.338 OA
ENDROOT
BRANCH   4  11
HETATM   11  C   UNK N   1      26.833  25.507  -3.505  0.00  0.00     0.083 C 
BRANCH  11  12
HETATM   12  C   UNK N   1      26.848  26.992  -3.748  0.00  0.00     0.006 A 
HETATM   13  C   UNK N   1      25.645  27.694  -3.712  0.00  0.00     0.117 A 
HETATM   14  N   UNK N   1      25.638  29.044  -3.869  0.00  0.00    -0.202 N 
HETATM   15  C   UNK N   1      26.796  29.729  -4.062  0.00  0.00     0.677 A 
HETATM   16  H   UNK N   1      24.785  29.532  -3.843  0.00  0.00     0.183 HD
HETATM   17  N   UNK N   1      26.770  30.999  -4.199  0.00  0.00    -0.234 N 
HETATM   18  N   UNK N   1      27.982  29.067  -4.101  0.00  0.00    -0.177 N 
HETATM   19  H   UNK N   1      27.159  31.430  -4.994  0.00  0.00     0.174 HD
ATOM     20  HN  UNK N   1      26.341  31.574  -3.474  1.00  0.00     0.174 HD
HETATM   21  C   UNK N   1      28.037  27.719  -3.944  0.00  0.00     0.122 A 
HETATM   22  H   UNK N   1      28.814  29.573  -4.245  0.00  0.00     0.185 HD
BRANCH  21  23
HETATM   23  N   UNK N   1      29.174  27.129  -3.964  0.00  0.00    -0.385 N 
HETATM   24  H   UNK N   1      29.734  26.648  -4.614  0.00  0.00     0.157 HD
ATOM     25  HN  UNK N   1      29.625  27.171  -3.050  1.00  0.00     0.157 HD
ENDBRANCH  21  23
ENDBRANCH  11  12
ENDBRANCH   4  11
BRANCH   7  26
HETATM   26  O   UNK N   1      25.212  23.895  -7.826  0.00  0.00    -0.353 OA
HETATM   27  C   UNK N   1      25.302  24.571  -9.022  0.00  0.00     0.210 C 
ENDBRANCH   7  26
BRANCH   9  28
HETATM   28  O   UNK N   1      27.482  22.215  -8.124  0.00  0.00    -0.351 OA
HETATM   29  C   UNK N   1      27.010  20.935  -8.300  0.00  0.00     0.210 C 
ENDBRANCH   9  28
BRANCH   6  30
HETATM   30  C   UNK N   1      31.642  21.460  -5.279  0.00  0.00     0.019 A 
HETATM   31  C   UNK N   1      31.216  20.297  -4.409  0.00  0.00     0.008 A 
HETATM   32  C   UNK N   1      31.187  20.169  -5.927  0.00  0.00     0.008 A 
ENDBRANCH   6  30
TORSDOF 6
ENDMDL
MODEL 9
REMARK VINA RESULT:      -6.4      3.864      6.992
REMARK  6 active torsions:
REMARK  status: ('A' for Active; 'I' for Inactive)
REMARK    1  A    between atoms: C_11  and  C_7 
REMARK    2  A    between atoms: C_12  and  C_7 
REMARK    3  A    between atoms: C_14  and  C_10 
REMARK    4  A    between atoms: O_26  and  C_15 
REMARK    5  A    between atoms: O_27  and  C_17 
REMARK    6  A    between atoms: N_20  and  C_18 
REMARK       I    between atoms: N_22  and  C_19 
ROOT
HETATM    1  C   UNK N   1      30.768  17.072   7.587  0.00  0.00     0.013 C 
HETATM    2  C   UNK N   1      32.018  17.442   7.887  0.00  0.00     0.007 C 
HETATM    3  C   UNK N   1      28.929  15.724   4.570  0.00  0.00     0.048 A 
HETATM    4  C   UNK N   1      29.157  16.282   5.831  0.00  0.00    -0.038 A 
HETATM    5  C   UNK N   1      30.472  16.517   6.245  0.00  0.00     0.007 A 
HETATM    6  C   UNK N   1      33.057  17.466   6.796  0.00  0.00     0.156 C 
HETATM    7  C   UNK N   1      29.983  15.399   3.709  0.00  0.00     0.104 A 
HETATM    8  C   UNK N   1      31.557  16.211   5.401  0.00  0.00     0.116 A 
HETATM    9  C   UNK N   1      31.325  15.640   4.119  0.00  0.00     0.136 A 
HETATM   10  O   UNK N   1      32.815  16.473   5.848  0.00  0.00    -0.338 OA
ENDROOT
BRANCH   4  11
HETATM   11  C   UNK N   1      28.016  16.678   6.739  0.00  0.00     0.083 C 
BRANCH  11  12
HETATM   12  C   UNK N   1      27.611  18.128   6.742  0.00  0.00     0.006 A 
HETATM   13  C   UNK N   1      27.273  18.737   5.535  0.00  0.00     0.117 A 
HETATM   14  N   UNK N   1      26.848  20.027   5.518  0.00  0.00    -0.202 N 
HETATM   15  C   UNK N   1      26.744  20.742   6.669  0.00  0.00     0.677 A 
HETATM   16  H   UNK N   1      26.611  20.450   4.662  0.00  0.00     0.183 HD
HETATM   17  N   UNK N   1      26.335  21.952   6.634  0.00  0.00    -0.234 N 
HETATM   18  N   UNK N   1      27.069  20.171   7.858  0.00  0.00    -0.177 N 
HETATM   19  H   UNK N   1      26.878  22.682   7.010  0.00  0.00     0.174 HD
ATOM     20  HN  UNK N   1      25.431  22.164   6.210  1.00  0.00     0.174 HD
HETATM   21  C   UNK N   1      27.494  18.882   7.923  0.00  0.00     0.122 A 
HETATM   22  H   UNK N   1      26.994  20.700   8.686  0.00  0.00     0.185 HD
BRANCH  21  23
HETATM   23  N   UNK N   1      27.770  18.368   9.063  0.00  0.00    -0.385 N 
HETATM   24  H   UNK N   1      28.509  17.867   9.478  0.00  0.00     0.157 HD
ATOM     25  HN  UNK N   1      27.012  18.521   9.729  1.00  0.00     0.157 HD
ENDBRANCH  21  23
ENDBRANCH  11  12
ENDBRANCH   4  11
BRANCH   7  26
HETATM   26  O   UNK N   1      29.650  14.873   2.500  0.00  0.00    -0.353 OA
HETATM   27  C   UNK N   1      29.335  13.557   2.249  0.00  0.00     0.210 C 
ENDBRANCH   7  26
BRANCH   9  28
HETATM   28  O   UNK N   1      32.345  15.332   3.269  0.00  0.00    -0.351 OA
HETATM   29  C   UNK N   1      33.001  14.125   3.195  0.00  0.00     0.210 C 
ENDBRANCH   9  28
BRANCH   6  30
HETATM   30  C   UNK N   1      34.469  17.431   7.398  0.00  0.00     0.019 A 
HETATM   31  C   UNK N   1      34.739  18.607   8.310  0.00  0.00     0.008 A 
HETATM   32  C   UNK N   1      34.472  17.227   8.898  0.00  0.00     0.008 A 
ENDBRANCH   6  30
TORSDOF 6
ENDMDL
