MODEL 1
REMARK VINA RESULT:      -4.9      0.000      0.000
REMARK  12 active torsions:
REMARK  status: ('A' for Active; 'I' for Inactive)
REMARK    1  A    between atoms: C_2  and  C_1 
REMARK    2  A    between atoms: C_1  and  C_12 
REMARK    3  A    between atoms: C_3  and  C_2 
REMARK    4  A    between atoms: C_4  and  C_3 
REMARK    5  A    between atoms: C_5  and  C_4 
REMARK    6  A    between atoms: C_6  and  C_5 
REMARK    7  A    between atoms: C_7  and  C_6 
REMARK    8  A    between atoms: C_8  and  C_7 
REMARK    9  A    between atoms: C_7  and  O_15 
REMARK   10  A    between atoms: C_9  and  C_8 
REMARK   11  A    between atoms: O_11  and  C_9 
REMARK   12  A    between atoms: C_12  and  C_13 
ROOT
HETATM    1  C   UNK N   1      30.045  24.075  -3.476  0.00  0.00     0.032 C 
ENDROOT
BRANCH   1   2
HETATM    2  C   UNK N   1      28.652  24.585  -3.798  0.00  0.00     0.002 C 
BRANCH   2   3
HETATM    3  C   UNK N   1      28.018  23.836  -4.942  0.00  0.00     0.000 C 
BRANCH   3   4
HETATM    4  C   UNK N   1      26.528  24.073  -4.840  0.00  0.00     0.000 C 
BRANCH   4   5
HETATM    5  C   UNK N   1      25.890  24.062  -6.207  0.00  0.00     0.000 C 
BRANCH   5   6
HETATM    6  C   UNK N   1      25.744  25.492  -6.678  0.00  0.00     0.000 C 
BRANCH   6   7
HETATM    7  C   UNK N   1      25.116  26.318  -5.579  0.00  0.00    -0.000 C 
BRANCH   7   8
HETATM    8  C   UNK N   1      25.883  27.611  -5.419  0.00  0.00    -0.005 C 
HETATM    9  C   UNK N   1      25.639  28.164  -4.031  0.00  0.00     0.005 C 
ENDBRANCH   7   8
ENDBRANCH   6   7
ENDBRANCH   5   6
ENDBRANCH   4   5
ENDBRANCH   3   4
ENDBRANCH   2   3
ENDBRANCH   1   2
BRANCH   1  10
HETATM   10  C   UNK N   1      29.908  22.799  -2.658  0.00  0.00     0.128 C 
BRANCH  10  11
HETATM   11  C   UNK N   1      30.620  21.643  -3.351  0.00  0.00     0.141 C 
BRANCH  11  12
HETATM   12  C   UNK N   1      32.110  21.657  -3.133  0.00  0.00     0.141 C 
HETATM   13  O   UNK N   1      32.841  22.087  -4.010  0.00  0.00    -0.650 OA
BRANCH  12  14
HETATM   14  O   UNK N   1      32.650  21.203  -1.983  0.00  0.00    -0.776 OA
HETATM   15  H   UNK N   1      33.527  20.875  -1.962  0.00  0.00     0.167 HD
ENDBRANCH  12  14
ENDBRANCH  11  12
ENDBRANCH  10  11
BRANCH  10  16
HETATM   16  O   UNK N   1      30.463  23.000  -1.391  0.00  0.00    -0.395 OA
HETATM   17  H   UNK N   1      30.237  23.392  -0.533  0.00  0.00     0.210 HD
ENDBRANCH  10  16
ENDBRANCH   1  10
TORSDOF 12
ENDMDL
MODEL 2
REMARK VINA RESULT:      -4.8     17.287     20.856
REMARK  12 active torsions:
REMARK  status: ('A' for Active; 'I' for Inactive)
REMARK    1  A    between atoms: C_2  and  C_1 
REMARK    2  A    between atoms: C_1  and  C_12 
REMARK    3  A    between atoms: C_3  and  C_2 
REMARK    4  A    between atoms: C_4  and  C_3 
REMARK    5  A    between atoms: C_5  and  C_4 
REMARK    6  A    between atoms: C_6  and  C_5 
REMARK    7  A    between atoms: C_7  and  C_6 
REMARK    8  A    between atoms: C_8  and  C_7 
REMARK    9  A    between atoms: C_7  and  O_15 
REMARK   10  A    between atoms: C_9  and  C_8 
REMARK   11  A    between atoms: O_11  and  C_9 
REMARK   12  A    between atoms: C_12  and  C_13 
ROOT
HETATM    1  C   UNK N   1      35.115  15.046  10.190  0.00  0.00     0.032 C 
ENDROOT
BRANCH   1   2
HETATM    2  C   UNK N   1      34.944  14.914  11.692  0.00  0.00     0.002 C 
BRANCH   2   3
HETATM    3  C   UNK N   1      36.051  14.111  12.327  0.00  0.00     0.000 C 
BRANCH   3   4
HETATM    4  C   UNK N   1      35.517  13.610  13.650  0.00  0.00     0.000 C 
BRANCH   4   5
HETATM    5  C   UNK N   1      36.633  13.465  14.656  0.00  0.00     0.000 C 
BRANCH   5   6
HETATM    6  C   UNK N   1      36.180  12.508  15.736  0.00  0.00     0.000 C 
BRANCH   6   7
HETATM    7  C   UNK N   1      34.862  12.983  16.304  0.00  0.00    -0.000 C 
BRANCH   7   8
HETATM    8  C   UNK N   1      35.108  13.711  17.606  0.00  0.00    -0.005 C 
HETATM    9  C   UNK N   1      35.301  12.698  18.713  0.00  0.00     0.005 C 
ENDBRANCH   7   8
ENDBRANCH   6   7
ENDBRANCH   5   6
ENDBRANCH   4   5
ENDBRANCH   3   4
ENDBRANCH   2   3
ENDBRANCH   1   2
BRANCH   1  10
HETATM   10  C   UNK N   1      35.240  16.524   9.852  0.00  0.00     0.128 C 
BRANCH  10  11
HETATM   11  C   UNK N   1      34.167  16.935   8.851  0.00  0.00     0.141 C 
BRANCH  11  12
HETATM   12  C   UNK N   1      34.581  18.102   7.994  0.00  0.00     0.141 C 
HETATM   13  O   UNK N   1      34.306  18.102   6.805  0.00  0.00    -0.650 OA
BRANCH  12  14
HETATM   14  O   UNK N   1      35.251  19.149   8.519  0.00  0.00    -0.776 OA
HETATM   15  H   UNK N   1      35.871  19.024   9.210  0.00  0.00     0.167 HD
ENDBRANCH  12  14
ENDBRANCH  11  12
ENDBRANCH  10  11
BRANCH  10  16
HETATM   16  O   UNK N   1      35.105  17.279  11.021  0.00  0.00    -0.395 OA
HETATM   17  H   UNK N   1      35.100  18.203  11.314  0.00  0.00     0.210 HD
ENDBRANCH  10  16
ENDBRANCH   1  10
TORSDOF 12
ENDMDL
MODEL 3
REMARK VINA RESULT:      -4.8     11.321     14.004
REMARK  12 active torsions:
REMARK  status: ('A' for Active; 'I' for Inactive)
REMARK    1  A    between atoms: C_2  and  C_1 
REMARK    2  A    between atoms: C_1  and  C_12 
REMARK    3  A    between atoms: C_3  and  C_2 
REMARK    4  A    between atoms: C_4  and  C_3 
REMARK    5  A    between atoms: C_5  and  C_4 
REMARK    6  A    between atoms: C_6  and  C_5 
REMARK    7  A    between atoms: C_7  and  C_6 
REMARK    8  A    between atoms: C_8  and  C_7 
REMARK    9  A    between atoms: C_7  and  O_15 
REMARK   10  A    between atoms: C_9  and  C_8 
REMARK   11  A    between atoms: O_11  and  C_9 
REMARK   12  A    between atoms: C_12  and  C_13 
ROOT
HETATM    1  C   UNK N   1      29.443  17.834   7.966  0.00  0.00     0.032 C 
ENDROOT
BRANCH   1   2
HETATM    2  C   UNK N   1      30.688  18.165   8.768  0.00  0.00     0.002 C 
BRANCH   2   3
HETATM    3  C   UNK N   1      31.860  17.294   8.393  0.00  0.00     0.000 C 
BRANCH   3   4
HETATM    4  C   UNK N   1      33.044  18.217   8.211  0.00  0.00     0.000 C 
BRANCH   4   5
HETATM    5  C   UNK N   1      34.039  17.625   7.243  0.00  0.00     0.000 C 
BRANCH   5   6
HETATM    6  C   UNK N   1      33.277  16.853   6.189  0.00  0.00     0.000 C 
BRANCH   6   7
HETATM    7  C   UNK N   1      33.295  17.627   4.891  0.00  0.00    -0.000 C 
BRANCH   7   8
HETATM    8  C   UNK N   1      31.929  17.559   4.245  0.00  0.00    -0.005 C 
HETATM    9  C   UNK N   1      32.063  16.956   2.863  0.00  0.00     0.005 C 
ENDBRANCH   7   8
ENDBRANCH   6   7
ENDBRANCH   5   6
ENDBRANCH   4   5
ENDBRANCH   3   4
ENDBRANCH   2   3
ENDBRANCH   1   2
BRANCH   1  10
HETATM   10  C   UNK N   1      28.415  18.929   8.208  0.00  0.00     0.128 C 
BRANCH  10  11
HETATM   11  C   UNK N   1      27.768  19.353   6.895  0.00  0.00     0.141 C 
BRANCH  11  12
HETATM   12  C   UNK N   1      26.991  20.638   7.012  0.00  0.00     0.141 C 
HETATM   13  O   UNK N   1      27.179  21.529   6.199  0.00  0.00    -0.650 OA
BRANCH  12  14
HETATM   14  O   UNK N   1      26.089  20.819   7.999  0.00  0.00    -0.776 OA
HETATM   15  H   UNK N   1      26.173  21.534   8.598  0.00  0.00     0.167 HD
ENDBRANCH  12  14
ENDBRANCH  11  12
ENDBRANCH  10  11
BRANCH  10  16
HETATM   16  O   UNK N   1      27.433  18.457   9.084  0.00  0.00    -0.395 OA
HETATM   17  H   UNK N   1      26.890  18.762   9.827  0.00  0.00     0.210 HD
ENDBRANCH  10  16
ENDBRANCH   1  10
TORSDOF 12
ENDMDL
MODEL 4
REMARK VINA RESULT:      -4.8     17.950     18.952
REMARK  12 active torsions:
REMARK  status: ('A' for Active; 'I' for Inactive)
REMARK    1  A    between atoms: C_2  and  C_1 
REMARK    2  A    between atoms: C_1  and  C_12 
REMARK    3  A    between atoms: C_3  and  C_2 
REMARK    4  A    between atoms: C_4  and  C_3 
REMARK    5  A    between atoms: C_5  and  C_4 
REMARK    6  A    between atoms: C_6  and  C_5 
REMARK    7  A    between atoms: C_7  and  C_6 
REMARK    8  A    between atoms: C_8  and  C_7 
REMARK    9  A    between atoms: C_7  and  O_15 
REMARK   10  A    between atoms: C_9  and  C_8 
REMARK   11  A    between atoms: O_11  and  C_9 
REMARK   12  A    between atoms: C_12  and  C_13 
ROOT
HETATM    1  C   UNK N   1      21.548  12.719   9.161  0.00  0.00     0.032 C 
ENDROOT
BRANCH   1   2
HETATM    2  C   UNK N   1      20.636  13.460  10.122  0.00  0.00     0.002 C 
BRANCH   2   3
HETATM    3  C   UNK N   1      19.924  14.614   9.463  0.00  0.00     0.000 C 
BRANCH   3   4
HETATM    4  C   UNK N   1      20.980  15.407   8.725  0.00  0.00     0.000 C 
BRANCH   4   5
HETATM    5  C   UNK N   1      20.393  16.676   8.156  0.00  0.00     0.000 C 
BRANCH   5   6
HETATM    6  C   UNK N   1      18.939  16.755   8.565  0.00  0.00     0.000 C 
BRANCH   6   7
HETATM    7  C   UNK N   1      18.728  17.979   9.425  0.00  0.00    -0.000 C 
BRANCH   7   8
HETATM    8  C   UNK N   1      17.394  17.876  10.129  0.00  0.00    -0.005 C 
HETATM    9  C   UNK N   1      17.334  18.909  11.234  0.00  0.00     0.005 C 
ENDBRANCH   7   8
ENDBRANCH   6   7
ENDBRANCH   5   6
ENDBRANCH   4   5
ENDBRANCH   3   4
ENDBRANCH   2   3
ENDBRANCH   1   2
BRANCH   1  10
HETATM   10  C   UNK N   1      22.806  12.312   9.915  0.00  0.00     0.128 C 
BRANCH  10  11
HETATM   11  C   UNK N   1      22.493  12.084  11.389  0.00  0.00     0.141 C 
BRANCH  11  12
HETATM   12  C   UNK N   1      23.723  12.102  12.259  0.00  0.00     0.141 C 
HETATM   13  O   UNK N   1      23.601  12.050  13.471  0.00  0.00    -0.650 OA
BRANCH  12  14
HETATM   14  O   UNK N   1      24.957  12.173  11.718  0.00  0.00    -0.776 OA
HETATM   15  H   UNK N   1      25.658  11.649  12.053  0.00  0.00     0.167 HD
ENDBRANCH  12  14
ENDBRANCH  11  12
ENDBRANCH  10  11
BRANCH  10  16
HETATM   16  O   UNK N   1      23.320  11.137   9.357  0.00  0.00    -0.395 OA
HETATM   17  H   UNK N   1      24.090  10.553   9.431  0.00  0.00     0.210 HD
ENDBRANCH  10  16
ENDBRANCH   1  10
TORSDOF 12
ENDMDL
MODEL 5
REMARK VINA RESULT:      -4.7      1.417      2.962
REMARK  12 active torsions:
REMARK  status: ('A' for Active; 'I' for Inactive)
REMARK    1  A    between atoms: C_2  and  C_1 
REMARK    2  A    between atoms: C_1  and  C_12 
REMARK    3  A    between atoms: C_3  and  C_2 
REMARK    4  A    between atoms: C_4  and  C_3 
REMARK    5  A    between atoms: C_5  and  C_4 
REMARK    6  A    between atoms: C_6  and  C_5 
REMARK    7  A    between atoms: C_7  and  C_6 
REMARK    8  A    between atoms: C_8  and  C_7 
REMARK    9  A    between atoms: C_7  and  O_15 
REMARK   10  A    between atoms: C_9  and  C_8 
REMARK   11  A    between atoms: O_11  and  C_9 
REMARK   12  A    between atoms: C_12  and  C_13 
ROOT
HETATM    1  C   UNK N   1      29.033  23.692  -3.417  0.00  0.00     0.032 C 
ENDROOT
BRANCH   1   2
HETATM    2  C   UNK N   1      27.595  23.933  -2.995  0.00  0.00     0.002 C 
BRANCH   2   3
HETATM    3  C   UNK N   1      26.965  25.083  -3.739  0.00  0.00     0.000 C 
BRANCH   3   4
HETATM    4  C   UNK N   1      25.867  24.493  -4.595  0.00  0.00     0.000 C 
BRANCH   4   5
HETATM    5  C   UNK N   1      25.876  25.108  -5.973  0.00  0.00     0.000 C 
BRANCH   5   6
HETATM    6  C   UNK N   1      25.927  23.992  -6.993  0.00  0.00     0.000 C 
BRANCH   6   7
HETATM    7  C   UNK N   1      25.665  22.673  -6.304  0.00  0.00    -0.000 C 
BRANCH   7   8
HETATM    8  C   UNK N   1      24.867  21.775  -7.222  0.00  0.00    -0.005 C 
HETATM    9  C   UNK N   1      25.799  21.154  -8.242  0.00  0.00     0.005 C 
ENDBRANCH   7   8
ENDBRANCH   6   7
ENDBRANCH   5   6
ENDBRANCH   4   5
ENDBRANCH   3   4
ENDBRANCH   2   3
ENDBRANCH   1   2
BRANCH   1  10
HETATM   10  C   UNK N   1      29.634  22.647  -2.488  0.00  0.00     0.128 C 
BRANCH  10  11
HETATM   11  C   UNK N   1      30.456  21.639  -3.281  0.00  0.00     0.141 C 
BRANCH  11  12
HETATM   12  C   UNK N   1      31.940  21.808  -3.084  0.00  0.00     0.141 C 
HETATM   13  O   UNK N   1      32.578  22.483  -3.875  0.00  0.00    -0.650 OA
BRANCH  12  14
HETATM   14  O   UNK N   1      32.575  21.226  -2.045  0.00  0.00    -0.776 OA
HETATM   15  H   UNK N   1      33.328  20.687  -2.185  0.00  0.00     0.167 HD
ENDBRANCH  12  14
ENDBRANCH  11  12
ENDBRANCH  10  11
BRANCH  10  16
HETATM   16  O   UNK N   1      30.449  23.279  -1.544  0.00  0.00    -0.395 OA
HETATM   17  H   UNK N   1      31.322  23.694  -1.474  0.00  0.00     0.210 HD
ENDBRANCH  10  16
ENDBRANCH   1  10
TORSDOF 12
ENDMDL
MODEL 6
REMARK VINA RESULT:      -4.7     12.964     15.329
REMARK  12 active torsions:
REMARK  status: ('A' for Active; 'I' for Inactive)
REMARK    1  A    between atoms: C_2  and  C_1 
REMARK    2  A    between atoms: C_1  and  C_12 
REMARK    3  A    between atoms: C_3  and  C_2 
REMARK    4  A    between atoms: C_4  and  C_3 
REMARK    5  A    between atoms: C_5  and  C_4 
REMARK    6  A    between atoms: C_6  and  C_5 
REMARK    7  A    between atoms: C_7  and  C_6 
REMARK    8  A    between atoms: C_8  and  C_7 
REMARK    9  A    between atoms: C_7  and  O_15 
REMARK   10  A    between atoms: C_9  and  C_8 
REMARK   11  A    between atoms: O_11  and  C_9 
REMARK   12  A    between atoms: C_12  and  C_13 
ROOT
HETATM    1  C   UNK N   1      32.476  15.110   9.449  0.00  0.00     0.032 C 
ENDROOT
BRANCH   1   2
HETATM    2  C   UNK N   1      32.733  15.674   8.063  0.00  0.00     0.002 C 
BRANCH   2   3
HETATM    3  C   UNK N   1      31.667  16.649   7.634  0.00  0.00     0.000 C 
BRANCH   3   4
HETATM    4  C   UNK N   1      31.844  17.885   8.487  0.00  0.00     0.000 C 
BRANCH   4   5
HETATM    5  C   UNK N   1      30.506  18.426   8.929  0.00  0.00     0.000 C 
BRANCH   5   6
HETATM    6  C   UNK N   1      29.454  17.957   7.948  0.00  0.00     0.000 C 
BRANCH   6   7
HETATM    7  C   UNK N   1      28.283  18.912   7.977  0.00  0.00    -0.000 C 
BRANCH   7   8
HETATM    8  C   UNK N   1      27.845  19.214   6.561  0.00  0.00    -0.005 C 
HETATM    9  C   UNK N   1      27.485  20.680   6.455  0.00  0.00     0.005 C 
ENDBRANCH   7   8
ENDBRANCH   6   7
ENDBRANCH   5   6
ENDBRANCH   4   5
ENDBRANCH   3   4
ENDBRANCH   2   3
ENDBRANCH   1   2
BRANCH   1  10
HETATM   10  C   UNK N   1      33.812  14.711  10.057  0.00  0.00     0.128 C 
BRANCH  10  11
HETATM   11  C   UNK N   1      34.955  15.437   9.358  0.00  0.00     0.141 C 
BRANCH  11  12
HETATM   12  C   UNK N   1      35.683  16.395  10.263  0.00  0.00     0.141 C 
HETATM   13  O   UNK N   1      35.294  17.548  10.355  0.00  0.00    -0.650 OA
BRANCH  12  14
HETATM   14  O   UNK N   1      36.757  15.999  10.977  0.00  0.00    -0.776 OA
HETATM   15  H   UNK N   1      37.587  15.869  10.561  0.00  0.00     0.167 HD
ENDBRANCH  12  14
ENDBRANCH  11  12
ENDBRANCH  10  11
BRANCH  10  16
HETATM   16  O   UNK N   1      33.816  15.031  11.418  0.00  0.00    -0.395 OA
HETATM   17  H   UNK N   1      33.337  14.819  12.234  0.00  0.00     0.210 HD
ENDBRANCH  10  16
ENDBRANCH   1  10
TORSDOF 12
ENDMDL
MODEL 7
REMARK VINA RESULT:      -4.6     18.455     22.009
REMARK  12 active torsions:
REMARK  status: ('A' for Active; 'I' for Inactive)
REMARK    1  A    between atoms: C_2  and  C_1 
REMARK    2  A    between atoms: C_1  and  C_12 
REMARK    3  A    between atoms: C_3  and  C_2 
REMARK    4  A    between atoms: C_4  and  C_3 
REMARK    5  A    between atoms: C_5  and  C_4 
REMARK    6  A    between atoms: C_6  and  C_5 
REMARK    7  A    between atoms: C_7  and  C_6 
REMARK    8  A    between atoms: C_8  and  C_7 
REMARK    9  A    between atoms: C_7  and  O_15 
REMARK   10  A    between atoms: C_9  and  C_8 
REMARK   11  A    between atoms: O_11  and  C_9 
REMARK   12  A    between atoms: C_12  and  C_13 
ROOT
HETATM    1  C   UNK N   1      36.370  13.659  11.874  0.00  0.00     0.032 C 
ENDROOT
BRANCH   1   2
HETATM    2  C   UNK N   1      36.593  12.992  13.219  0.00  0.00     0.002 C 
BRANCH   2   3
HETATM    3  C   UNK N   1      36.130  13.851  14.368  0.00  0.00     0.000 C 
BRANCH   3   4
HETATM    4  C   UNK N   1      36.365  13.049  15.628  0.00  0.00     0.000 C 
BRANCH   4   5
HETATM    5  C   UNK N   1      35.064  12.787  16.346  0.00  0.00     0.000 C 
BRANCH   5   6
HETATM    6  C   UNK N   1      35.046  11.342  16.790  0.00  0.00     0.000 C 
BRANCH   6   7
HETATM    7  C   UNK N   1      34.936  10.447  15.577  0.00  0.00    -0.000 C 
BRANCH   7   8
HETATM    8  C   UNK N   1      33.679  10.790  14.810  0.00  0.00    -0.005 C 
HETATM    9  C   UNK N   1      33.891  10.479  13.344  0.00  0.00     0.005 C 
ENDBRANCH   7   8
ENDBRANCH   6   7
ENDBRANCH   5   6
ENDBRANCH   4   5
ENDBRANCH   3   4
ENDBRANCH   2   3
ENDBRANCH   1   2
BRANCH   1  10
HETATM   10  C   UNK N   1      35.378  14.797  12.065  0.00  0.00     0.128 C 
BRANCH  10  11
HETATM   11  C   UNK N   1      35.824  16.029  11.287  0.00  0.00     0.141 C 
BRANCH  11  12
HETATM   12  C   UNK N   1      35.064  16.218  10.001  0.00  0.00     0.141 C 
HETATM   13  O   UNK N   1      35.352  15.541   9.028  0.00  0.00    -0.650 OA
BRANCH  12  14
HETATM   14  O   UNK N   1      34.067  17.123   9.908  0.00  0.00    -0.776 OA
HETATM   15  H   UNK N   1      33.868  17.535   9.090  0.00  0.00     0.167 HD
ENDBRANCH  12  14
ENDBRANCH  11  12
ENDBRANCH  10  11
BRANCH  10  16
HETATM   16  O   UNK N   1      34.116  14.392  11.619  0.00  0.00    -0.395 OA
HETATM   17  H   UNK N   1      33.604  13.583  11.471  0.00  0.00     0.210 HD
ENDBRANCH  10  16
ENDBRANCH   1  10
TORSDOF 12
ENDMDL
MODEL 8
REMARK VINA RESULT:      -4.6     10.334     12.262
REMARK  12 active torsions:
REMARK  status: ('A' for Active; 'I' for Inactive)
REMARK    1  A    between atoms: C_2  and  C_1 
REMARK    2  A    between atoms: C_1  and  C_12 
REMARK    3  A    between atoms: C_3  and  C_2 
REMARK    4  A    between atoms: C_4  and  C_3 
REMARK    5  A    between atoms: C_5  and  C_4 
REMARK    6  A    between atoms: C_6  and  C_5 
REMARK    7  A    between atoms: C_7  and  C_6 
REMARK    8  A    between atoms: C_8  and  C_7 
REMARK    9  A    between atoms: C_7  and  O_15 
REMARK   10  A    between atoms: C_9  and  C_8 
REMARK   11  A    between atoms: O_11  and  C_9 
REMARK   12  A    between atoms: C_12  and  C_13 
ROOT
HETATM    1  C   UNK N   1      20.470  17.979   3.719  0.00  0.00     0.032 C 
ENDROOT
BRANCH   1   2
HETATM    2  C   UNK N   1      21.728  18.588   4.310  0.00  0.00     0.002 C 
BRANCH   2   3
HETATM    3  C   UNK N   1      22.505  17.601   5.144  0.00  0.00     0.000 C 
BRANCH   3   4
HETATM    4  C   UNK N   1      23.969  17.857   4.865  0.00  0.00     0.000 C 
BRANCH   4   5
HETATM    5  C   UNK N   1      24.153  19.171   4.146  0.00  0.00     0.000 C 
BRANCH   5   6
HETATM    6  C   UNK N   1      25.434  19.100   3.344  0.00  0.00     0.000 C 
BRANCH   6   7
HETATM    7  C   UNK N   1      26.291  20.304   3.663  0.00  0.00    -0.000 C 
BRANCH   7   8
HETATM    8  C   UNK N   1      26.184  20.621   5.138  0.00  0.00    -0.005 C 
HETATM    9  C   UNK N   1      27.567  20.890   5.690  0.00  0.00     0.005 C 
ENDBRANCH   7   8
ENDBRANCH   6   7
ENDBRANCH   5   6
ENDBRANCH   4   5
ENDBRANCH   3   4
ENDBRANCH   2   3
ENDBRANCH   1   2
BRANCH   1  10
HETATM   10  C   UNK N   1      19.827  19.010   2.802  0.00  0.00     0.128 C 
BRANCH  10  11
HETATM   11  C   UNK N   1      20.625  19.145   1.511  0.00  0.00     0.141 C 
BRANCH  11  12
HETATM   12  C   UNK N   1      20.928  20.578   1.156  0.00  0.00     0.141 C 
HETATM   13  O   UNK N   1      21.119  20.880  -0.010  0.00  0.00    -0.650 OA
BRANCH  12  14
HETATM   14  O   UNK N   1      20.991  21.532   2.108  0.00  0.00    -0.776 OA
HETATM   15  H   UNK N   1      20.764  21.338   2.996  0.00  0.00     0.167 HD
ENDBRANCH  12  14
ENDBRANCH  11  12
ENDBRANCH  10  11
BRANCH  10  16
HETATM   16  O   UNK N   1      18.519  18.615   2.506  0.00  0.00    -0.395 OA
HETATM   17  H   UNK N   1      17.872  18.663   1.786  0.00  0.00     0.210 HD
ENDBRANCH  10  16
ENDBRANCH   1  10
TORSDOF 12
ENDMDL
MODEL 9
REMARK VINA RESULT:      -4.6      1.824      3.256
REMARK  12 active torsions:
REMARK  status: ('A' for Active; 'I' for Inactive)
REMARK    1  A    between atoms: C_2  and  C_1 
REMARK    2  A    between atoms: C_1  and  C_12 
REMARK    3  A    between atoms: C_3  and  C_2 
REMARK    4  A    between atoms: C_4  and  C_3 
REMARK    5  A    between atoms: C_5  and  C_4 
REMARK    6  A    between atoms: C_6  and  C_5 
REMARK    7  A    between atoms: C_7  and  C_6 
REMARK    8  A    between atoms: C_8  and  C_7 
REMARK    9  A    between atoms: C_7  and  O_15 
REMARK   10  A    between atoms: C_9  and  C_8 
REMARK   11  A    between atoms: O_11  and  C_9 
REMARK   12  A    between atoms: C_12  and  C_13 
ROOT
HETATM    1  C   UNK N   1      27.683  24.524  -5.251  0.00  0.00     0.032 C 
ENDROOT
BRANCH   1   2
HETATM    2  C   UNK N   1      26.568  23.840  -6.021  0.00  0.00     0.002 C 
BRANCH   2   3
HETATM    3  C   UNK N   1      25.281  24.625  -5.984  0.00  0.00     0.000 C 
BRANCH   3   4
HETATM    4  C   UNK N   1      25.635  26.052  -6.337  0.00  0.00     0.000 C 
BRANCH   4   5
HETATM    5  C   UNK N   1      24.742  27.021  -5.602  0.00  0.00     0.000 C 
BRANCH   5   6
HETATM    6  C   UNK N   1      25.613  27.929  -4.762  0.00  0.00     0.000 C 
BRANCH   6   7
HETATM    7  C   UNK N   1      26.845  28.310  -5.550  0.00  0.00    -0.000 C 
BRANCH   7   8
HETATM    8  C   UNK N   1      27.475  29.541  -4.937  0.00  0.00    -0.005 C 
HETATM    9  C   UNK N   1      26.487  30.182  -3.987  0.00  0.00     0.005 C 
ENDBRANCH   7   8
ENDBRANCH   6   7
ENDBRANCH   5   6
ENDBRANCH   4   5
ENDBRANCH   3   4
ENDBRANCH   2   3
ENDBRANCH   1   2
BRANCH   1  10
HETATM   10  C   UNK N   1      27.662  24.004  -3.821  0.00  0.00     0.128 C 
BRANCH  10  11
HETATM   11  C   UNK N   1      29.077  23.928  -3.261  0.00  0.00     0.141 C 
BRANCH  11  12
HETATM   12  C   UNK N   1      29.145  23.221  -1.932  0.00  0.00     0.141 C 
HETATM   13  O   UNK N   1      28.112  22.951  -1.343  0.00  0.00    -0.650 OA
BRANCH  12  14
HETATM   14  O   UNK N   1      30.330  22.882  -1.384  0.00  0.00    -0.776 OA
HETATM   15  H   UNK N   1      31.107  23.368  -1.582  0.00  0.00     0.167 HD
ENDBRANCH  12  14
ENDBRANCH  11  12
ENDBRANCH  10  11
BRANCH  10  16
HETATM   16  O   UNK N   1      26.890  24.859  -3.029  0.00  0.00    -0.395 OA
HETATM   17  H   UNK N   1      26.600  24.963  -2.109  0.00  0.00     0.210 HD
ENDBRANCH  10  16
ENDBRANCH   1  10
TORSDOF 12
ENDMDL
