REMARK  16 active torsions:
REMARK  status: ('A' for Active; 'I' for Inactive)
REMARK    1  A    between atoms: C_10  and  O_1 
REMARK    2  A    between atoms: O_2  and  C_18 
REMARK    3  A    between atoms: C_4  and  C_5 
REMARK    4  A    between atoms: C_4  and  C_6 
REMARK    5  A    between atoms: C_5  and  C_7 
REMARK    6  A    between atoms: C_6  and  C_8 
REMARK    7  A    between atoms: C_7  and  C_9 
REMARK    8  A    between atoms: C_8  and  C_10 
REMARK    9  A    between atoms: C_9  and  C_11 
REMARK   10  A    between atoms: C_10  and  C_12 
REMARK   11  A    between atoms: C_11  and  C_18 
REMARK   12  A    between atoms: C_13  and  C_14 
REMARK   13  A    between atoms: C_13  and  C_15 
REMARK   14  A    between atoms: C_14  and  C_16 
REMARK   15  A    between atoms: C_15  and  C_19 
REMARK   16  A    between atoms: C_17  and  C_20 
ROOT
HETATM    1  C   UNK N   1      19.512 -16.577   0.023  0.00  0.00     0.141 C 
ENDROOT
BRANCH   1   2
HETATM    2  O   UNK N   1      19.038 -17.879  -0.147  0.00  0.00    -0.392 OA
HETATM    3  H   UNK N   1      18.090 -18.047  -0.266  0.00  0.00     0.210 HD
ENDBRANCH   1   2
BRANCH   1   4
HETATM    4  C   UNK N   1      20.984 -16.515  -0.334  0.00  0.00     0.036 C 
BRANCH   4   5
HETATM    5  C   UNK N   1      21.827 -17.320   0.642  0.00  0.00     0.003 C 
BRANCH   5   6
HETATM    6  C   UNK N   1      23.172 -16.645   0.875  0.00  0.00     0.000 C 
BRANCH   6   7
HETATM    7  C   UNK N   1      23.977 -16.566  -0.412  0.00  0.00     0.000 C 
BRANCH   7   8
HETATM    8  C   UNK N   1      25.350 -15.984  -0.140  0.00  0.00     0.001 C 
BRANCH   8   9
HETATM    9  C   UNK N   1      26.356 -17.108  -0.006  0.00  0.00     0.010 C 
BRANCH   9  10
HETATM   10  C   UNK N   1      27.762 -16.534   0.047  0.00  0.00     0.110 C 
BRANCH  10  11
HETATM   11  C   UNK N   1      28.823 -17.597   0.029  0.00  0.00     0.139 C 
HETATM   12  O   UNK N   1      28.527 -18.782  -0.019  0.00  0.00    -0.650 OA
BRANCH  11  13
HETATM   13  O   UNK N   1      30.119 -17.237   0.062  0.00  0.00    -0.776 OA
HETATM   14  H   UNK N   1      30.787 -17.893   0.085  0.00  0.00     0.167 HD
ENDBRANCH  11  13
ENDBRANCH  10  11
ENDBRANCH   9  10
ENDBRANCH   8   9
ENDBRANCH   7   8
ENDBRANCH   6   7
ENDBRANCH   5   6
ENDBRANCH   4   5
ENDBRANCH   1   4
BRANCH   1  15
HETATM   15  C   UNK N   1      18.774 -15.642  -0.887  0.00  0.00     0.004 C 
HETATM   16  C   UNK N   1      17.541 -15.175  -0.647  0.00  0.00    -0.002 C 
BRANCH  16  17
HETATM   17  C   UNK N   1      16.752 -15.507   0.558  0.00  0.00    -0.004 C 
HETATM   18  C   UNK N   1      16.097 -16.664   0.712  0.00  0.00    -0.027 C 
BRANCH  18  19
HETATM   19  C   UNK N   1      16.100 -17.741  -0.324  0.00  0.00     0.027 C 
BRANCH  19  20
HETATM   20  C   UNK N   1      15.276 -18.908   0.174  0.00  0.00     0.004 C 
BRANCH  20  21
HETATM   21  C   UNK N   1      15.912 -20.207  -0.270  0.00  0.00    -0.000 C 
BRANCH  21  22
HETATM   22  C   UNK N   1      15.042 -21.363   0.175  0.00  0.00    -0.005 C 
HETATM   23  C   UNK N   1      15.746 -22.671  -0.113  0.00  0.00     0.005 C 
ENDBRANCH  21  22
ENDBRANCH  20  21
ENDBRANCH  19  20
ENDBRANCH  18  19
ENDBRANCH  16  17
ENDBRANCH   1  15
TORSDOF 16
