MODEL 1
REMARK VINA RESULT:      -3.8      0.000      0.000
REMARK  5 active torsions:
REMARK  status: ('A' for Active; 'I' for Inactive)
REMARK    1  A    between atoms: P_1  and  O_2 
REMARK    2  A    between atoms: P_1  and  O_3 
REMARK    3  A    between atoms: P_1  and  O_4 
REMARK    4  A    between atoms: O_2  and  C_6 
REMARK    5  A    between atoms: O_3  and  C_7 
ROOT
HETATM    1  P   UNK N   1      30.775  23.224  -3.041  0.00  0.00     0.326 P 
HETATM    2  S   UNK N   1      30.294  21.793  -3.974  0.00  0.00    -0.007 SA
ENDROOT
BRANCH   1   3
HETATM    3  O   UNK N   1      29.050  23.171  -2.801  0.00  0.00    -0.314 OA
BRANCH   3   4
HETATM    4  C   UNK N   1      28.519  24.183  -3.611  0.00  0.00     0.174 C 
HETATM    5  C   UNK N   1      27.020  24.246  -3.402  0.00  0.00     0.034 C 
ENDBRANCH   3   4
ENDBRANCH   1   3
BRANCH   1   6
HETATM    6  O   UNK N   1      31.751  21.965  -2.336  0.00  0.00    -0.314 OA
BRANCH   6   7
HETATM    7  C   UNK N   1      32.340  21.289  -3.413  0.00  0.00     0.174 C 
HETATM    8  C   UNK N   1      33.741  20.858  -3.028  0.00  0.00     0.034 C 
ENDBRANCH   6   7
ENDBRANCH   1   6
BRANCH   1   9
HETATM    9  O   UNK N   1      30.401  23.043  -1.352  0.00  0.00    -0.324 OA
HETATM   10  H   UNK N   1      30.394  23.720  -0.657  0.00  0.00     0.220 HD
ENDBRANCH   1   9
TORSDOF 5
ENDMDL
MODEL 2
REMARK VINA RESULT:      -3.8     17.648     18.032
REMARK  5 active torsions:
REMARK  status: ('A' for Active; 'I' for Inactive)
REMARK    1  A    between atoms: P_1  and  O_2 
REMARK    2  A    between atoms: P_1  and  O_3 
REMARK    3  A    between atoms: P_1  and  O_4 
REMARK    4  A    between atoms: O_2  and  C_6 
REMARK    5  A    between atoms: O_3  and  C_7 
ROOT
HETATM    1  P   UNK N   1      20.823  14.585   9.137  0.00  0.00     0.326 P 
HETATM    2  S   UNK N   1      20.889  14.019   7.456  0.00  0.00    -0.007 SA
ENDROOT
BRANCH   1   3
HETATM    3  O   UNK N   1      19.439  15.361   8.415  0.00  0.00    -0.314 OA
BRANCH   3   4
HETATM    4  C   UNK N   1      19.566  16.723   8.712  0.00  0.00     0.174 C 
HETATM    5  C   UNK N   1      18.204  17.277   9.078  0.00  0.00     0.034 C 
ENDBRANCH   3   4
ENDBRANCH   1   3
BRANCH   1   6
HETATM    6  O   UNK N   1      20.803  12.852   9.319  0.00  0.00    -0.314 OA
BRANCH   6   7
HETATM    7  C   UNK N   1      20.909  12.611  10.694  0.00  0.00     0.174 C 
HETATM    8  C   UNK N   1      22.331  12.198  11.022  0.00  0.00     0.034 C 
ENDBRANCH   6   7
ENDBRANCH   1   6
BRANCH   1   9
HETATM    9  O   UNK N   1      19.358  14.076   9.927  0.00  0.00    -0.324 OA
HETATM   10  H   UNK N   1      19.195  13.944  10.874  0.00  0.00     0.220 HD
ENDBRANCH   1   9
TORSDOF 5
ENDMDL
MODEL 3
REMARK VINA RESULT:      -3.5     13.604     15.052
REMARK  5 active torsions:
REMARK  status: ('A' for Active; 'I' for Inactive)
REMARK    1  A    between atoms: P_1  and  O_2 
REMARK    2  A    between atoms: P_1  and  O_3 
REMARK    3  A    between atoms: P_1  and  O_4 
REMARK    4  A    between atoms: O_2  and  C_6 
REMARK    5  A    between atoms: O_3  and  C_7 
ROOT
HETATM    1  P   UNK N   1      44.167  22.999   2.773  0.00  0.00     0.326 P 
HETATM    2  S   UNK N   1      43.667  23.653   1.201  0.00  0.00    -0.007 SA
ENDROOT
BRANCH   1   3
HETATM    3  O   UNK N   1      44.836  24.607   2.795  0.00  0.00    -0.314 OA
BRANCH   3   4
HETATM    4  C   UNK N   1      45.635  24.706   1.649  0.00  0.00     0.174 C 
HETATM    5  C   UNK N   1      46.827  25.589   1.954  0.00  0.00     0.034 C 
ENDBRANCH   3   4
ENDBRANCH   1   3
BRANCH   1   6
HETATM    6  O   UNK N   1      42.434  22.818   2.820  0.00  0.00    -0.314 OA
BRANCH   6   7
HETATM    7  C   UNK N   1      42.171  21.530   2.339  0.00  0.00     0.174 C 
HETATM    8  C   UNK N   1      42.423  20.521   3.442  0.00  0.00     0.034 C 
ENDBRANCH   6   7
ENDBRANCH   1   6
BRANCH   1   9
HETATM    9  O   UNK N   1      43.499  23.918   4.091  0.00  0.00    -0.324 OA
HETATM   10  H   UNK N   1      42.838  24.627   4.061  0.00  0.00     0.220 HD
ENDBRANCH   1   9
TORSDOF 5
ENDMDL
MODEL 4
REMARK VINA RESULT:      -3.5     15.304     16.493
REMARK  5 active torsions:
REMARK  status: ('A' for Active; 'I' for Inactive)
REMARK    1  A    between atoms: P_1  and  O_2 
REMARK    2  A    between atoms: P_1  and  O_3 
REMARK    3  A    between atoms: P_1  and  O_4 
REMARK    4  A    between atoms: O_2  and  C_6 
REMARK    5  A    between atoms: O_3  and  C_7 
ROOT
HETATM    1  P   UNK N   1      34.551  14.926  10.269  0.00  0.00     0.326 P 
HETATM    2  S   UNK N   1      35.605  16.162  10.983  0.00  0.00    -0.007 SA
ENDROOT
BRANCH   1   3
HETATM    3  O   UNK N   1      34.444  14.583  11.974  0.00  0.00    -0.314 OA
BRANCH   3   4
HETATM    4  C   UNK N   1      35.746  14.271  12.384  0.00  0.00     0.174 C 
HETATM    5  C   UNK N   1      35.693  13.655  13.767  0.00  0.00     0.034 C 
ENDBRANCH   3   4
ENDBRANCH   1   3
BRANCH   1   6
HETATM    6  O   UNK N   1      33.855  16.409   9.674  0.00  0.00    -0.314 OA
BRANCH   6   7
HETATM    7  C   UNK N   1      34.510  16.682   8.466  0.00  0.00     0.174 C 
HETATM    8  C   UNK N   1      34.208  18.106   8.043  0.00  0.00     0.034 C 
ENDBRANCH   6   7
ENDBRANCH   1   6
BRANCH   1   9
HETATM    9  O   UNK N   1      32.908  15.088  10.820  0.00  0.00    -0.324 OA
HETATM   10  H   UNK N   1      32.506  14.747  11.635  0.00  0.00     0.220 HD
ENDBRANCH   1   9
TORSDOF 5
ENDMDL
MODEL 5
REMARK VINA RESULT:      -3.4     17.890     18.957
REMARK  5 active torsions:
REMARK  status: ('A' for Active; 'I' for Inactive)
REMARK    1  A    between atoms: P_1  and  O_2 
REMARK    2  A    between atoms: P_1  and  O_3 
REMARK    3  A    between atoms: P_1  and  O_4 
REMARK    4  A    between atoms: O_2  and  C_6 
REMARK    5  A    between atoms: O_3  and  C_7 
ROOT
HETATM    1  P   UNK N   1      35.716  13.489  12.359  0.00  0.00     0.326 P 
HETATM    2  S   UNK N   1      36.311  14.053  13.933  0.00  0.00    -0.007 SA
ENDROOT
BRANCH   1   3
HETATM    3  O   UNK N   1      34.499  12.906  13.461  0.00  0.00    -0.314 OA
BRANCH   3   4
HETATM    4  C   UNK N   1      34.907  11.620  13.836  0.00  0.00     0.174 C 
HETATM    5  C   UNK N   1      33.730  10.889  14.450  0.00  0.00     0.034 C 
ENDBRANCH   3   4
ENDBRANCH   1   3
BRANCH   1   6
HETATM    6  O   UNK N   1      35.862  15.208  12.116  0.00  0.00    -0.314 OA
BRANCH   6   7
HETATM    7  C   UNK N   1      35.977  15.390  10.731  0.00  0.00     0.174 C 
HETATM    8  C   UNK N   1      37.098  14.516  10.203  0.00  0.00     0.034 C 
ENDBRANCH   6   7
ENDBRANCH   1   6
BRANCH   1   9
HETATM    9  O   UNK N   1      34.166  14.180  11.974  0.00  0.00    -0.324 OA
HETATM   10  H   UNK N   1      33.502  13.863  11.343  0.00  0.00     0.220 HD
ENDBRANCH   1   9
TORSDOF 5
ENDMDL
MODEL 6
REMARK VINA RESULT:      -3.4     11.890     12.757
REMARK  5 active torsions:
REMARK  status: ('A' for Active; 'I' for Inactive)
REMARK    1  A    between atoms: P_1  and  O_2 
REMARK    2  A    between atoms: P_1  and  O_3 
REMARK    3  A    between atoms: P_1  and  O_4 
REMARK    4  A    between atoms: O_2  and  C_6 
REMARK    5  A    between atoms: O_3  and  C_7 
ROOT
HETATM    1  P   UNK N   1      34.200  16.941   7.678  0.00  0.00     0.326 P 
HETATM    2  S   UNK N   1      32.447  17.003   7.950  0.00  0.00    -0.007 SA
ENDROOT
BRANCH   1   3
HETATM    3  O   UNK N   1      33.650  17.996   6.405  0.00  0.00    -0.314 OA
BRANCH   3   4
HETATM    4  C   UNK N   1      32.663  17.282   5.715  0.00  0.00     0.174 C 
HETATM    5  C   UNK N   1      32.776  17.588   4.236  0.00  0.00     0.034 C 
ENDBRANCH   3   4
ENDBRANCH   1   3
BRANCH   1   6
HETATM    6  O   UNK N   1      34.091  17.499   9.325  0.00  0.00    -0.314 OA
BRANCH   6   7
HETATM    7  C   UNK N   1      35.135  16.866  10.013  0.00  0.00     0.174 C 
HETATM    8  C   UNK N   1      34.635  15.553  10.584  0.00  0.00     0.034 C 
ENDBRANCH   6   7
ENDBRANCH   1   6
BRANCH   1   9
HETATM    9  O   UNK N   1      34.928  18.513   7.834  0.00  0.00    -0.324 OA
HETATM   10  H   UNK N   1      35.844  18.777   7.654  0.00  0.00     0.220 HD
ENDBRANCH   1   9
TORSDOF 5
ENDMDL
MODEL 7
REMARK VINA RESULT:      -3.3     13.110     14.375
REMARK  5 active torsions:
REMARK  status: ('A' for Active; 'I' for Inactive)
REMARK    1  A    between atoms: P_1  and  O_2 
REMARK    2  A    between atoms: P_1  and  O_3 
REMARK    3  A    between atoms: P_1  and  O_4 
REMARK    4  A    between atoms: O_2  and  C_6 
REMARK    5  A    between atoms: O_3  and  C_7 
ROOT
HETATM    1  P   UNK N   1      43.737  22.664   2.220  0.00  0.00     0.326 P 
HETATM    2  S   UNK N   1      44.479  22.033   3.704  0.00  0.00    -0.007 SA
ENDROOT
BRANCH   1   3
HETATM    3  O   UNK N   1      42.403  21.868   3.008  0.00  0.00    -0.314 OA
BRANCH   3   4
HETATM    4  C   UNK N   1      41.304  22.027   2.155  0.00  0.00     0.174 C 
HETATM    5  C   UNK N   1      40.287  20.944   2.453  0.00  0.00     0.034 C 
ENDBRANCH   3   4
ENDBRANCH   1   3
BRANCH   1   6
HETATM    6  O   UNK N   1      44.399  24.099   2.954  0.00  0.00    -0.314 OA
BRANCH   6   7
HETATM    7  C   UNK N   1      45.532  24.427   2.198  0.00  0.00     0.174 C 
HETATM    8  C   UNK N   1      45.744  25.928   2.239  0.00  0.00     0.034 C 
ENDBRANCH   6   7
ENDBRANCH   1   6
BRANCH   1   9
HETATM    9  O   UNK N   1      42.470  23.804   2.572  0.00  0.00    -0.324 OA
HETATM   10  H   UNK N   1      41.556  23.628   2.844  0.00  0.00     0.220 HD
ENDBRANCH   1   9
TORSDOF 5
ENDMDL
MODEL 8
REMARK VINA RESULT:      -3.2     15.331     16.174
REMARK  5 active torsions:
REMARK  status: ('A' for Active; 'I' for Inactive)
REMARK    1  A    between atoms: P_1  and  O_2 
REMARK    2  A    between atoms: P_1  and  O_3 
REMARK    3  A    between atoms: P_1  and  O_4 
REMARK    4  A    between atoms: O_2  and  C_6 
REMARK    5  A    between atoms: O_3  and  C_7 
ROOT
HETATM    1  P   UNK N   1      34.999  15.599  10.880  0.00  0.00     0.326 P 
HETATM    2  S   UNK N   1      35.746  14.789   9.488  0.00  0.00    -0.007 SA
ENDROOT
BRANCH   1   3
HETATM    3  O   UNK N   1      33.963  16.069   9.559  0.00  0.00    -0.314 OA
BRANCH   3   4
HETATM    4  C   UNK N   1      34.535  17.227   9.018  0.00  0.00     0.174 C 
HETATM    5  C   UNK N   1      33.489  17.957   8.201  0.00  0.00     0.034 C 
ENDBRANCH   3   4
ENDBRANCH   1   3
BRANCH   1   6
HETATM    6  O   UNK N   1      35.009  13.928  11.373  0.00  0.00    -0.314 OA
BRANCH   6   7
HETATM    7  C   UNK N   1      35.441  13.925  12.706  0.00  0.00     0.174 C 
HETATM    8  C   UNK N   1      36.679  13.058  12.829  0.00  0.00     0.034 C 
ENDBRANCH   6   7
ENDBRANCH   1   6
BRANCH   1   9
HETATM    9  O   UNK N   1      33.374  15.037  11.151  0.00  0.00    -0.324 OA
HETATM   10  H   UNK N   1      33.075  14.280  11.678  0.00  0.00     0.220 HD
ENDBRANCH   1   9
TORSDOF 5
ENDMDL
MODEL 9
REMARK VINA RESULT:      -3.2     20.671     21.673
REMARK  5 active torsions:
REMARK  status: ('A' for Active; 'I' for Inactive)
REMARK    1  A    between atoms: P_1  and  O_2 
REMARK    2  A    between atoms: P_1  and  O_3 
REMARK    3  A    between atoms: P_1  and  O_4 
REMARK    4  A    between atoms: O_2  and  C_6 
REMARK    5  A    between atoms: O_3  and  C_7 
ROOT
HETATM    1  P   UNK N   1      35.836  12.800  15.373  0.00  0.00     0.326 P 
HETATM    2  S   UNK N   1      36.768  14.307  15.264  0.00  0.00    -0.007 SA
ENDROOT
BRANCH   1   3
HETATM    3  O   UNK N   1      35.641  13.489  16.962  0.00  0.00    -0.314 OA
BRANCH   3   4
HETATM    4  C   UNK N   1      35.150  12.456  17.770  0.00  0.00     0.174 C 
HETATM    5  C   UNK N   1      35.178  12.905  19.216  0.00  0.00     0.034 C 
ENDBRANCH   3   4
ENDBRANCH   1   3
BRANCH   1   6
HETATM    6  O   UNK N   1      35.093  13.610  14.020  0.00  0.00    -0.314 OA
BRANCH   6   7
HETATM    7  C   UNK N   1      35.724  13.100  12.877  0.00  0.00     0.174 C 
HETATM    8  C   UNK N   1      34.916  11.937  12.336  0.00  0.00     0.034 C 
ENDBRANCH   6   7
ENDBRANCH   1   6
BRANCH   1   9
HETATM    9  O   UNK N   1      34.155  13.110  15.701  0.00  0.00    -0.324 OA
HETATM   10  H   UNK N   1      33.376  12.817  15.201  0.00  0.00     0.220 HD
ENDBRANCH   1   9
TORSDOF 5
ENDMDL
