MODEL 1
REMARK VINA RESULT:      -7.7      0.000      0.000
REMARK  4 active torsions:
REMARK  status: ('A' for Active; 'I' for Inactive)
REMARK    1  A    between atoms: C_4  and  C_3 
REMARK    2  A    between atoms: C_15  and  C_5 
REMARK    3  A    between atoms: O_23  and  C_20 
REMARK    4  A    between atoms: C_21  and  O_24 
ROOT
HETATM    1  C   UNK N   1      38.078  11.105  14.185  0.00  0.00     0.018 C 
HETATM    2  C   UNK N   1      35.423  13.871  18.332  0.00  0.00     0.039 C 
HETATM    3  C   UNK N   1      35.999  13.959  16.916  0.00  0.00     0.010 C 
HETATM    4  C   UNK N   1      35.367  13.686  13.706  0.00  0.00     0.008 C 
HETATM    5  C   UNK N   1      35.240  12.838  12.441  0.00  0.00     0.033 C 
HETATM    6  C   UNK N   1      35.755  10.231  15.831  0.00  0.00     0.010 C 
HETATM    7  C   UNK N   1      35.672  10.524  14.321  0.00  0.00     0.013 C 
HETATM    8  C   UNK N   1      35.132  10.070  18.590  0.00  0.00     0.022 A 
HETATM    9  C   UNK N   1      34.588  12.335  20.101  0.00  0.00     0.045 A 
HETATM   10  C   UNK N   1      35.183  12.478  18.848  0.00  0.00    -0.049 A 
HETATM   11  C   UNK N   1      34.548   9.911  19.851  0.00  0.00    -0.003 A 
HETATM   12  C   UNK N   1      36.119  11.455  16.714  0.00  0.00     0.024 C 
HETATM   13  C   UNK N   1      35.665  12.753  16.032  0.00  0.00    -0.001 C 
HETATM   14  C   UNK N   1      35.471  11.331  18.080  0.00  0.00    -0.046 A 
HETATM   15  C   UNK N   1      36.329  12.934  14.637  0.00  0.00     0.001 C 
HETATM   16  C   UNK N   1      34.271  11.075  20.613  0.00  0.00     0.076 A 
HETATM   17  C   UNK N   1      36.489  11.982  12.431  0.00  0.00     0.126 C 
HETATM   18  C   UNK N   1      36.662  11.614  13.902  0.00  0.00    -0.014 C 
ENDROOT
BRANCH  11  19
HETATM   19  C   UNK N   1      34.224   8.508  20.247  0.00  0.00     0.010 C 
HETATM   20  C   UNK N   1      33.017   7.906  20.282  0.00  0.00    -0.026 C 
BRANCH  20  21
HETATM   21  C   UNK N   1      31.717   8.580  19.991  0.00  0.00     0.022 C 
HETATM   22  C   UNK N   1      30.583   7.575  20.025  0.00  0.00     0.009 C 
ENDBRANCH  20  21
ENDBRANCH  11  19
BRANCH  16  23
HETATM   23  O   UNK N   1      33.639  11.014  21.794  0.00  0.00    -0.360 OA
HETATM   24  H   UNK N   1      32.747  11.286  21.881  0.00  0.00     0.217 HD
ENDBRANCH  16  23
BRANCH  17  25
HETATM   25  O   UNK N   1      37.555  12.773  11.986  0.00  0.00    -0.395 OA
HETATM   26  H   UNK N   1      38.501  12.654  11.805  0.00  0.00     0.210 HD
ENDBRANCH  17  25
TORSDOF 4
ENDMDL
MODEL 2
REMARK VINA RESULT:      -7.5     23.042     26.235
REMARK  4 active torsions:
REMARK  status: ('A' for Active; 'I' for Inactive)
REMARK    1  A    between atoms: C_4  and  C_3 
REMARK    2  A    between atoms: C_15  and  C_5 
REMARK    3  A    between atoms: O_23  and  C_20 
REMARK    4  A    between atoms: C_21  and  O_24 
ROOT
HETATM    1  C   UNK N   1      28.405  22.286  -9.612  0.00  0.00     0.018 C 
HETATM    2  C   UNK N   1      29.187  23.688  -4.197  0.00  0.00     0.039 C 
HETATM    3  C   UNK N   1      28.253  23.776  -5.406  0.00  0.00     0.010 C 
HETATM    4  C   UNK N   1      25.708  22.420  -6.976  0.00  0.00     0.008 C 
HETATM    5  C   UNK N   1      25.143  21.408  -7.972  0.00  0.00     0.033 C 
HETATM    6  C   UNK N   1      29.324  20.580  -7.350  0.00  0.00     0.010 C 
HETATM    7  C   UNK N   1      27.977  20.391  -8.071  0.00  0.00     0.013 C 
HETATM    8  C   UNK N   1      31.315  20.727  -5.339  0.00  0.00     0.022 A 
HETATM    9  C   UNK N   1      31.076  22.440  -3.167  0.00  0.00     0.045 A 
HETATM   10  C   UNK N   1      30.245  22.619  -4.272  0.00  0.00    -0.049 A 
HETATM   11  C   UNK N   1      32.165  20.544  -4.243  0.00  0.00    -0.003 A 
HETATM   12  C   UNK N   1      29.477  21.930  -6.598  0.00  0.00     0.024 C 
HETATM   13  C   UNK N   1      28.100  22.458  -6.173  0.00  0.00    -0.001 C 
HETATM   14  C   UNK N   1      30.368  21.759  -5.381  0.00  0.00    -0.046 A 
HETATM   15  C   UNK N   1      27.162  22.676  -7.395  0.00  0.00     0.001 C 
HETATM   16  C   UNK N   1      32.032  21.422  -3.138  0.00  0.00     0.076 A 
HETATM   17  C   UNK N   1      26.031  21.541  -9.192  0.00  0.00     0.126 C 
HETATM   18  C   UNK N   1      27.419  21.721  -8.585  0.00  0.00    -0.014 C 
ENDROOT
BRANCH  11  19
HETATM   19  C   UNK N   1      33.106  19.387  -4.334  0.00  0.00     0.010 C 
HETATM   20  C   UNK N   1      34.403  19.391  -4.702  0.00  0.00    -0.026 C 
BRANCH  20  21
HETATM   21  C   UNK N   1      35.153  20.591  -5.180  0.00  0.00     0.022 C 
HETATM   22  C   UNK N   1      35.868  21.260  -4.023  0.00  0.00     0.009 C 
ENDBRANCH  20  21
ENDBRANCH  11  19
BRANCH  16  23
HETATM   23  O   UNK N   1      32.751  21.264  -2.017  0.00  0.00    -0.360 OA
HETATM   24  H   UNK N   1      32.899  20.415  -1.651  0.00  0.00     0.217 HD
ENDBRANCH  16  23
BRANCH  17  25
HETATM   25  O   UNK N   1      25.639  22.689  -9.892  0.00  0.00    -0.395 OA
HETATM   26  H   UNK N   1      24.885  22.967 -10.435  0.00  0.00     0.210 HD
ENDBRANCH  17  25
TORSDOF 4
ENDMDL
MODEL 3
REMARK VINA RESULT:      -7.4     11.264     14.943
REMARK  4 active torsions:
REMARK  status: ('A' for Active; 'I' for Inactive)
REMARK    1  A    between atoms: C_4  and  C_3 
REMARK    2  A    between atoms: C_15  and  C_5 
REMARK    3  A    between atoms: O_23  and  C_20 
REMARK    4  A    between atoms: C_21  and  O_24 
ROOT
HETATM    1  C   UNK N   1      31.249  14.494   5.828  0.00  0.00     0.018 C 
HETATM    2  C   UNK N   1      28.833  18.574   8.895  0.00  0.00     0.039 C 
HETATM    3  C   UNK N   1      29.904  17.481   8.860  0.00  0.00     0.010 C 
HETATM    4  C   UNK N   1      33.049  16.779   8.233  0.00  0.00     0.008 C 
HETATM    5  C   UNK N   1      34.158  16.393   7.254  0.00  0.00     0.033 C 
HETATM    6  C   UNK N   1      30.577  17.285   5.034  0.00  0.00     0.010 C 
HETATM    7  C   UNK N   1      32.017  16.757   5.166  0.00  0.00     0.013 C 
HETATM    8  C   UNK N   1      28.293  18.958   5.132  0.00  0.00     0.022 A 
HETATM    9  C   UNK N   1      27.383  20.053   7.517  0.00  0.00     0.045 A 
HETATM   10  C   UNK N   1      28.304  19.006   7.554  0.00  0.00    -0.049 A 
HETATM   11  C   UNK N   1      27.358  19.998   5.081  0.00  0.00    -0.003 A 
HETATM   12  C   UNK N   1      29.763  17.300   6.356  0.00  0.00     0.024 C 
HETATM   13  C   UNK N   1      30.708  17.438   7.557  0.00  0.00    -0.001 C 
HETATM   14  C   UNK N   1      28.762  18.440   6.347  0.00  0.00    -0.046 A 
HETATM   15  C   UNK N   1      31.735  16.272   7.621  0.00  0.00     0.001 C 
HETATM   16  C   UNK N   1      26.903  20.552   6.304  0.00  0.00     0.076 A 
HETATM   17  C   UNK N   1      33.575  15.247   6.454  0.00  0.00     0.126 C 
HETATM   18  C   UNK N   1      32.126  15.678   6.247  0.00  0.00    -0.014 C 
ENDROOT
BRANCH  11  19
HETATM   19  C   UNK N   1      26.971  20.459   3.713  0.00  0.00     0.010 C 
HETATM   20  C   UNK N   1      25.788  20.308   3.083  0.00  0.00    -0.026 C 
BRANCH  20  21
HETATM   21  C   UNK N   1      24.620  19.554   3.628  0.00  0.00     0.022 C 
HETATM   22  C   UNK N   1      24.915  18.068   3.649  0.00  0.00     0.009 C 
ENDBRANCH  20  21
ENDBRANCH  11  19
BRANCH  16  23
HETATM   23  O   UNK N   1      26.072  21.604   6.340  0.00  0.00    -0.360 OA
HETATM   24  H   UNK N   1      25.355  21.635   6.941  0.00  0.00     0.217 HD
ENDBRANCH  16  23
BRANCH  17  25
HETATM   25  O   UNK N   1      33.645  14.089   7.238  0.00  0.00    -0.395 OA
HETATM   26  H   UNK N   1      34.317  13.624   7.759  0.00  0.00     0.210 HD
ENDBRANCH  17  25
TORSDOF 4
ENDMDL
MODEL 4
REMARK VINA RESULT:      -7.1      1.769      2.444
REMARK  4 active torsions:
REMARK  status: ('A' for Active; 'I' for Inactive)
REMARK    1  A    between atoms: C_4  and  C_3 
REMARK    2  A    between atoms: C_15  and  C_5 
REMARK    3  A    between atoms: O_23  and  C_20 
REMARK    4  A    between atoms: C_21  and  O_24 
ROOT
HETATM    1  C   UNK N   1      37.803   9.071  13.629  0.00  0.00     0.018 C 
HETATM    2  C   UNK N   1      35.206  13.529  15.928  0.00  0.00     0.039 C 
HETATM    3  C   UNK N   1      35.536  12.784  14.632  0.00  0.00     0.010 C 
HETATM    4  C   UNK N   1      34.530  10.539  12.458  0.00  0.00     0.008 C 
HETATM    5  C   UNK N   1      34.422   9.086  11.998  0.00  0.00     0.033 C 
HETATM    6  C   UNK N   1      36.005   9.173  16.002  0.00  0.00     0.010 C 
HETATM    7  C   UNK N   1      35.641   8.469  14.682  0.00  0.00     0.013 C 
HETATM    8  C   UNK N   1      35.840  10.681  18.395  0.00  0.00     0.022 A 
HETATM    9  C   UNK N   1      35.011  13.331  18.399  0.00  0.00     0.045 A 
HETATM   10  C   UNK N   1      35.370  12.731  17.193  0.00  0.00    -0.049 A 
HETATM   11  C   UNK N   1      35.495  11.275  19.614  0.00  0.00    -0.003 A 
HETATM   12  C   UNK N   1      36.200  10.710  15.889  0.00  0.00     0.024 C 
HETATM   13  C   UNK N   1      35.366  11.264  14.726  0.00  0.00    -0.001 C 
HETATM   14  C   UNK N   1      35.801  11.389  17.186  0.00  0.00    -0.046 A 
HETATM   15  C   UNK N   1      35.763  10.614  13.370  0.00  0.00     0.001 C 
HETATM   16  C   UNK N   1      35.070  12.627  19.605  0.00  0.00     0.076 A 
HETATM   17  C   UNK N   1      35.820   8.529  12.166  0.00  0.00     0.126 C 
HETATM   18  C   UNK N   1      36.282   9.161  13.476  0.00  0.00    -0.014 C 
ENDROOT
BRANCH  11  19
HETATM   19  C   UNK N   1      35.564  10.387  20.814  0.00  0.00     0.010 C 
HETATM   20  C   UNK N   1      34.614   9.562  21.299  0.00  0.00    -0.026 C 
BRANCH  20  21
HETATM   21  C   UNK N   1      33.232   9.432  20.749  0.00  0.00     0.022 C 
HETATM   22  C   UNK N   1      33.197   8.389  19.651  0.00  0.00     0.009 C 
ENDBRANCH  20  21
ENDBRANCH  11  19
BRANCH  16  23
HETATM   23  O   UNK N   1      34.645  13.244  20.717  0.00  0.00    -0.360 OA
HETATM   24  H   UNK N   1      34.367  12.756  21.466  0.00  0.00     0.217 HD
ENDBRANCH  16  23
BRANCH  17  25
HETATM   25  O   UNK N   1      36.599   8.979  11.093  0.00  0.00    -0.395 OA
HETATM   26  H   UNK N   1      37.347   8.649  10.572  0.00  0.00     0.210 HD
ENDBRANCH  17  25
TORSDOF 4
ENDMDL
MODEL 5
REMARK VINA RESULT:      -7.1     15.258     18.972
REMARK  4 active torsions:
REMARK  status: ('A' for Active; 'I' for Inactive)
REMARK    1  A    between atoms: C_4  and  C_3 
REMARK    2  A    between atoms: C_15  and  C_5 
REMARK    3  A    between atoms: O_23  and  C_20 
REMARK    4  A    between atoms: C_21  and  O_24 
ROOT
HETATM    1  C   UNK N   1      26.819  16.115   6.642  0.00  0.00     0.018 C 
HETATM    2  C   UNK N   1      25.935  20.525   3.227  0.00  0.00     0.039 C 
HETATM    3  C   UNK N   1      26.973  19.566   3.814  0.00  0.00     0.010 C 
HETATM    4  C   UNK N   1      28.622  16.759   3.390  0.00  0.00     0.008 C 
HETATM    5  C   UNK N   1      28.724  15.240   3.527  0.00  0.00     0.033 C 
HETATM    6  C   UNK N   1      24.727  16.476   4.552  0.00  0.00     0.010 C 
HETATM    7  C   UNK N   1      25.865  15.443   4.454  0.00  0.00     0.013 C 
HETATM    8  C   UNK N   1      22.800  18.443   3.888  0.00  0.00     0.022 A 
HETATM    9  C   UNK N   1      23.520  20.866   2.738  0.00  0.00     0.045 A 
HETATM   10  C   UNK N   1      24.503  20.070   3.324  0.00  0.00    -0.049 A 
HETATM   11  C   UNK N   1      21.801  19.238   3.316  0.00  0.00    -0.003 A 
HETATM   12  C   UNK N   1      25.191  17.957   4.565  0.00  0.00     0.024 C 
HETATM   13  C   UNK N   1      26.528  18.099   3.827  0.00  0.00    -0.001 C 
HETATM   14  C   UNK N   1      24.142  18.844   3.918  0.00  0.00    -0.046 A 
HETATM   15  C   UNK N   1      27.642  17.227   4.475  0.00  0.00     0.001 C 
HETATM   16  C   UNK N   1      22.180  20.472   2.728  0.00  0.00     0.076 A 
HETATM   17  C   UNK N   1      28.291  14.958   4.950  0.00  0.00     0.126 C 
HETATM   18  C   UNK N   1      27.135  15.933   5.155  0.00  0.00    -0.014 C 
ENDROOT
BRANCH  11  19
HETATM   19  C   UNK N   1      20.420  18.667   3.339  0.00  0.00     0.010 C 
HETATM   20  C   UNK N   1      19.817  17.898   2.410  0.00  0.00    -0.026 C 
BRANCH  20  21
HETATM   21  C   UNK N   1      20.415  17.521   1.094  0.00  0.00     0.022 C 
HETATM   22  C   UNK N   1      19.432  16.698   0.286  0.00  0.00     0.009 C 
ENDBRANCH  20  21
ENDBRANCH  11  19
BRANCH  16  23
HETATM   23  O   UNK N   1      21.297  21.252   2.088  0.00  0.00    -0.360 OA
HETATM   24  H   UNK N   1      20.402  20.994   1.991  0.00  0.00     0.217 HD
ENDBRANCH  16  23
BRANCH  17  25
HETATM   25  O   UNK N   1      29.360  15.266   5.800  0.00  0.00    -0.395 OA
HETATM   26  H   UNK N   1      29.532  15.266   6.754  0.00  0.00     0.210 HD
ENDBRANCH  17  25
TORSDOF 4
ENDMDL
MODEL 6
REMARK VINA RESULT:      -6.8     23.034     26.720
REMARK  4 active torsions:
REMARK  status: ('A' for Active; 'I' for Inactive)
REMARK    1  A    between atoms: C_4  and  C_3 
REMARK    2  A    between atoms: C_15  and  C_5 
REMARK    3  A    between atoms: O_23  and  C_20 
REMARK    4  A    between atoms: C_21  and  O_24 
ROOT
HETATM    1  C   UNK N   1      33.396  23.395  -5.187  0.00  0.00     0.018 C 
HETATM    2  C   UNK N   1      29.209  20.758  -7.909  0.00  0.00     0.039 C 
HETATM    3  C   UNK N   1      30.664  20.677  -7.440  0.00  0.00     0.010 C 
HETATM    4  C   UNK N   1      32.700  19.688  -5.063  0.00  0.00     0.008 C 
HETATM    5  C   UNK N   1      33.415  19.933  -3.734  0.00  0.00     0.033 C 
HETATM    6  C   UNK N   1      30.546  23.079  -4.382  0.00  0.00     0.010 C 
HETATM    7  C   UNK N   1      31.723  22.423  -3.636  0.00  0.00     0.013 C 
HETATM    8  C   UNK N   1      28.012  23.528  -5.566  0.00  0.00     0.022 A 
HETATM    9  C   UNK N   1      27.012  21.869  -7.556  0.00  0.00     0.045 A 
HETATM   10  C   UNK N   1      28.365  21.800  -7.226  0.00  0.00    -0.049 A 
HETATM   11  C   UNK N   1      26.655  23.618  -5.896  0.00  0.00    -0.003 A 
HETATM   12  C   UNK N   1      30.348  22.595  -5.844  0.00  0.00     0.024 C 
HETATM   13  C   UNK N   1      30.884  21.166  -6.005  0.00  0.00    -0.001 C 
HETATM   14  C   UNK N   1      28.880  22.647  -6.223  0.00  0.00    -0.046 A 
HETATM   15  C   UNK N   1      32.396  21.072  -5.652  0.00  0.00     0.001 C 
HETATM   16  C   UNK N   1      26.154  22.764  -6.911  0.00  0.00     0.076 A 
HETATM   17  C   UNK N   1      33.985  21.329  -3.862  0.00  0.00     0.126 C 
HETATM   18  C   UNK N   1      32.875  22.086  -4.586  0.00  0.00    -0.014 C 
ENDROOT
BRANCH  11  19
HETATM   19  C   UNK N   1      25.851  24.587  -5.092  0.00  0.00     0.010 C 
HETATM   20  C   UNK N   1      25.379  25.794  -5.465  0.00  0.00    -0.026 C 
BRANCH  20  21
HETATM   21  C   UNK N   1      25.648  26.448  -6.780  0.00  0.00     0.022 C 
HETATM   22  C   UNK N   1      26.907  27.289  -6.703  0.00  0.00     0.009 C 
ENDBRANCH  20  21
ENDBRANCH  11  19
BRANCH  16  23
HETATM   23  O   UNK N   1      24.852  22.730  -7.230  0.00  0.00    -0.360 OA
HETATM   24  H   UNK N   1      24.250  23.353  -6.875  0.00  0.00     0.217 HD
ENDBRANCH  16  23
BRANCH  17  25
HETATM   25  O   UNK N   1      35.139  21.257  -4.653  0.00  0.00    -0.395 OA
HETATM   26  H   UNK N   1      35.951  21.773  -4.772  0.00  0.00     0.210 HD
ENDBRANCH  17  25
TORSDOF 4
ENDMDL
MODEL 7
REMARK VINA RESULT:      -6.8     15.388     17.269
REMARK  4 active torsions:
REMARK  status: ('A' for Active; 'I' for Inactive)
REMARK    1  A    between atoms: C_4  and  C_3 
REMARK    2  A    between atoms: C_15  and  C_5 
REMARK    3  A    between atoms: O_23  and  C_20 
REMARK    4  A    between atoms: C_21  and  O_24 
ROOT
HETATM    1  C   UNK N   1      23.293  17.572   5.000  0.00  0.00     0.018 C 
HETATM    2  C   UNK N   1      19.320  16.138   8.748  0.00  0.00     0.039 C 
HETATM    3  C   UNK N   1      19.654  16.984   7.517  0.00  0.00     0.010 C 
HETATM    4  C   UNK N   1      19.623  17.137   4.238  0.00  0.00     0.008 C 
HETATM    5  C   UNK N   1      20.275  16.853   2.885  0.00  0.00     0.033 C 
HETATM    6  C   UNK N   1      22.526  14.863   5.971  0.00  0.00     0.010 C 
HETATM    7  C   UNK N   1      22.303  15.348   4.527  0.00  0.00     0.013 C 
HETATM    8  C   UNK N   1      22.167  13.603   8.483  0.00  0.00     0.022 A 
HETATM    9  C   UNK N   1      19.970  14.149  10.093  0.00  0.00     0.045 A 
HETATM   10  C   UNK N   1      20.266  15.001   9.030  0.00  0.00    -0.049 A 
HETATM   11  C   UNK N   1      21.890  12.747   9.555  0.00  0.00    -0.003 A 
HETATM   12  C   UNK N   1      21.732  15.646   7.052  0.00  0.00     0.024 C 
HETATM   13  C   UNK N   1      20.452  16.235   6.444  0.00  0.00    -0.001 C 
HETATM   14  C   UNK N   1      21.385  14.735   8.215  0.00  0.00    -0.046 A 
HETATM   15  C   UNK N   1      20.763  17.199   5.264  0.00  0.00     0.001 C 
HETATM   16  C   UNK N   1      20.765  13.033  10.368  0.00  0.00     0.076 A 
HETATM   17  C   UNK N   1      21.709  17.308   3.052  0.00  0.00     0.126 C 
HETATM   18  C   UNK N   1      22.046  16.856   4.471  0.00  0.00    -0.014 C 
ENDROOT
BRANCH  11  19
HETATM   19  C   UNK N   1      22.799  11.570   9.700  0.00  0.00     0.010 C 
HETATM   20  C   UNK N   1      23.693  11.319  10.677  0.00  0.00    -0.026 C 
BRANCH  20  21
HETATM   21  C   UNK N   1      24.010  12.245  11.805  0.00  0.00     0.022 C 
HETATM   22  C   UNK N   1      23.269  11.824  13.057  0.00  0.00     0.009 C 
ENDBRANCH  20  21
ENDBRANCH  11  19
BRANCH  16  23
HETATM   23  O   UNK N   1      20.384  12.218  11.363  0.00  0.00    -0.360 OA
HETATM   24  H   UNK N   1      20.390  12.506  12.254  0.00  0.00     0.217 HD
ENDBRANCH  16  23
BRANCH  17  25
HETATM   25  O   UNK N   1      21.738  18.704   2.953  0.00  0.00    -0.395 OA
HETATM   26  H   UNK N   1      22.353  19.419   3.177  0.00  0.00     0.210 HD
ENDBRANCH  17  25
TORSDOF 4
ENDMDL
MODEL 8
REMARK VINA RESULT:      -6.7     23.013     26.726
REMARK  4 active torsions:
REMARK  status: ('A' for Active; 'I' for Inactive)
REMARK    1  A    between atoms: C_4  and  C_3 
REMARK    2  A    between atoms: C_15  and  C_5 
REMARK    3  A    between atoms: O_23  and  C_20 
REMARK    4  A    between atoms: C_21  and  O_24 
ROOT
HETATM    1  C   UNK N   1      30.531  20.334  -5.974  0.00  0.00     0.018 C 
HETATM    2  C   UNK N   1      27.793  23.766  -2.421  0.00  0.00     0.039 C 
HETATM    3  C   UNK N   1      28.781  22.604  -2.551  0.00  0.00     0.010 C 
HETATM    4  C   UNK N   1      31.940  21.737  -2.766  0.00  0.00     0.008 C 
HETATM    5  C   UNK N   1      33.199  21.486  -3.596  0.00  0.00     0.033 C 
HETATM    6  C   UNK N   1      30.201  23.292  -6.107  0.00  0.00     0.010 C 
HETATM    7  C   UNK N   1      31.551  22.592  -5.862  0.00  0.00     0.013 C 
HETATM    8  C   UNK N   1      28.049  25.130  -5.981  0.00  0.00     0.022 A 
HETATM    9  C   UNK N   1      26.743  25.691  -3.595  0.00  0.00     0.045 A 
HETATM   10  C   UNK N   1      27.573  24.573  -3.672  0.00  0.00    -0.049 A 
HETATM   11  C   UNK N   1      27.209  26.247  -5.922  0.00  0.00    -0.003 A 
HETATM   12  C   UNK N   1      29.139  23.067  -4.997  0.00  0.00     0.024 C 
HETATM   13  C   UNK N   1      29.828  22.798  -3.653  0.00  0.00    -0.001 C 
HETATM   14  C   UNK N   1      28.231  24.278  -4.883  0.00  0.00    -0.046 A 
HETATM   15  C   UNK N   1      30.749  21.546  -3.716  0.00  0.00     0.001 C 
HETATM   16  C   UNK N   1      26.549  26.526  -4.698  0.00  0.00     0.076 A 
HETATM   17  C   UNK N   1      32.723  20.647  -4.762  0.00  0.00     0.126 C 
HETATM   18  C   UNK N   1      31.374  21.273  -5.105  0.00  0.00    -0.014 C 
ENDROOT
BRANCH  11  19
HETATM   19  C   UNK N   1      27.134  27.073  -7.165  0.00  0.00     0.010 C 
HETATM   20  C   UNK N   1      27.851  28.170  -7.484  0.00  0.00    -0.026 C 
BRANCH  20  21
HETATM   21  C   UNK N   1      28.840  28.836  -6.586  0.00  0.00     0.022 C 
HETATM   22  C   UNK N   1      28.161  29.909  -5.759  0.00  0.00     0.009 C 
ENDBRANCH  20  21
ENDBRANCH  11  19
BRANCH  16  23
HETATM   23  O   UNK N   1      25.793  27.621  -4.535  0.00  0.00    -0.360 OA
HETATM   24  H   UNK N   1      25.985  28.248  -3.866  0.00  0.00     0.217 HD
ENDBRANCH  16  23
BRANCH  17  25
HETATM   25  O   UNK N   1      32.563  19.330  -4.314  0.00  0.00    -0.395 OA
HETATM   26  H   UNK N   1      33.137  18.601  -4.031  0.00  0.00     0.210 HD
ENDBRANCH  17  25
TORSDOF 4
ENDMDL
MODEL 9
REMARK VINA RESULT:      -6.5      4.782      8.135
REMARK  4 active torsions:
REMARK  status: ('A' for Active; 'I' for Inactive)
REMARK    1  A    between atoms: C_4  and  C_3 
REMARK    2  A    between atoms: C_15  and  C_5 
REMARK    3  A    between atoms: O_23  and  C_20 
REMARK    4  A    between atoms: C_21  and  O_24 
ROOT
HETATM    1  C   UNK N   1      34.376  15.053   5.942  0.00  0.00     0.018 C 
HETATM    2  C   UNK N   1      35.599  16.530  11.254  0.00  0.00     0.039 C 
HETATM    3  C   UNK N   1      35.040  16.995   9.907  0.00  0.00     0.010 C 
HETATM    4  C   UNK N   1      32.342  17.404   8.082  0.00  0.00     0.008 C 
HETATM    5  C   UNK N   1      31.298  16.859   7.108  0.00  0.00     0.033 C 
HETATM    6  C   UNK N   1      33.769  13.607   8.475  0.00  0.00     0.010 C 
HETATM    7  C   UNK N   1      32.693  14.229   7.566  0.00  0.00     0.013 C 
HETATM    8  C   UNK N   1      35.217  12.761  10.759  0.00  0.00     0.022 A 
HETATM    9  C   UNK N   1      36.082  14.559  12.691  0.00  0.00     0.045 A 
HETATM   10  C   UNK N   1      35.655  15.040  11.454  0.00  0.00    -0.049 A 
HETATM   11  C   UNK N   1      35.656  12.263  11.991  0.00  0.00    -0.003 A 
HETATM   12  C   UNK N   1      34.754  14.626   9.110  0.00  0.00     0.024 C 
HETATM   13  C   UNK N   1      34.078  15.996   9.255  0.00  0.00    -0.001 C 
HETATM   14  C   UNK N   1      35.224  14.131  10.466  0.00  0.00    -0.046 A 
HETATM   15  C   UNK N   1      33.605  16.555   7.882  0.00  0.00     0.001 C 
HETATM   16  C   UNK N   1      36.092  13.190  12.971  0.00  0.00     0.076 A 
HETATM   17  C   UNK N   1      32.106  16.152   6.041  0.00  0.00     0.126 C 
HETATM   18  C   UNK N   1      33.213  15.475   6.845  0.00  0.00    -0.014 C 
ENDROOT
BRANCH  11  19
HETATM   19  C   UNK N   1      35.568  10.782  12.164  0.00  0.00     0.010 C 
HETATM   20  C   UNK N   1      34.719  10.080  12.942  0.00  0.00    -0.026 C 
BRANCH  20  21
HETATM   21  C   UNK N   1      33.718  10.680  13.873  0.00  0.00     0.022 C 
HETATM   22  C   UNK N   1      34.114  10.419  15.312  0.00  0.00     0.009 C 
ENDBRANCH  20  21
ENDBRANCH  11  19
BRANCH  16  23
HETATM   23  O   UNK N   1      36.450  12.801  14.203  0.00  0.00    -0.360 OA
HETATM   24  H   UNK N   1      36.561  11.895  14.413  0.00  0.00     0.217 HD
ENDBRANCH  16  23
BRANCH  17  25
HETATM   25  O   UNK N   1      32.636  17.122   5.181  0.00  0.00    -0.395 OA
HETATM   26  H   UNK N   1      33.021  18.008   5.262  0.00  0.00     0.210 HD
ENDBRANCH  17  25
TORSDOF 4
ENDMDL
