REMARK  6 active torsions:
REMARK  status: ('A' for Active; 'I' for Inactive)
REMARK    1  A    between atoms: C_16  and  C_14 
REMARK    2  A    between atoms: N_26  and  C_14 
REMARK    3  A    between atoms: C_23  and  C_17 
REMARK    4  A    between atoms: C_25  and  C_18 
REMARK    5  A    between atoms: C_20  and  N_26 
REMARK    6  A    between atoms: O_30  and  C_25 
ROOT
HETATM    1  C   UNK N   1       6.008   2.509  -0.363  0.00  0.00     0.010 C 
HETATM    2  C   UNK N   1       4.631   2.446  -0.583  0.00  0.00     0.015 C 
HETATM    3  C   UNK N   1       6.075   0.115   0.140  0.00  0.00     0.017 C 
HETATM    4  C   UNK N   1       3.801  -1.123   0.132  0.00  0.00     0.083 C 
HETATM    5  C   UNK N   1       6.716   1.365   0.046  0.00  0.00    -0.040 C 
HETATM    6  C   UNK N   1       4.715   0.059  -0.121  0.00  0.00    -0.041 C 
HETATM    7  C   UNK N   1       4.015   1.223  -0.394  0.00  0.00    -0.001 C 
HETATM    8  C   UNK N   1       2.515  -0.351   0.127  0.00  0.00     0.004 A 
HETATM    9  C   UNK N   1       1.183  -0.521   0.365  0.00  0.00     0.067 A 
HETATM   10  C   UNK N   1       2.647   0.925  -0.204  0.00  0.00     0.067 A 
HETATM   11  N   UNK N   1       0.556   0.669   0.198  0.00  0.00    -0.299 N 
ATOM     12  HN  UNK N   1      -0.443   0.842   0.311  1.00  0.00     0.187 HD
HETATM   13  N   UNK N   1       1.482   1.578  -0.142  0.00  0.00    -0.299 N 
HETATM   14  H   UNK N   1       1.333   2.536  -0.311  0.00  0.00     0.187 HD
ENDROOT
BRANCH   5  15
HETATM   15  C   UNK N   1       8.017   1.587   0.727  0.00  0.00     0.153 C 
BRANCH  15  16
HETATM   16  N   UNK N   1       8.926   0.497   0.476  0.00  0.00    -0.413 N 
HETATM   17  H   UNK N   1       8.942  -0.389   0.981  0.00  0.00     0.153 HD
BRANCH  16  18
HETATM   18  C   UNK N   1       9.818   0.867  -0.617  0.00  0.00     0.076 C 
HETATM   19  C   UNK N   1      11.186   1.255  -0.056  0.00  0.00     0.025 C 
HETATM   20  C   UNK N   1      11.777   0.093   0.742  0.00  0.00     0.006 C 
HETATM   21  C   UNK N   1      11.853  -1.180  -0.104  0.00  0.00    -0.019 C 
HETATM   22  C   UNK N   1      12.287  -2.325   0.783  0.00  0.00     0.010 C 
HETATM   23  C   UNK N   1      10.500  -1.526  -0.724  0.00  0.00     0.006 C 
HETATM   24  C   UNK N   1       9.965  -0.342  -1.529  0.00  0.00     0.025 C 
ENDBRANCH  16  18
ENDBRANCH  15  16
ENDBRANCH   5  15
BRANCH   9  25
HETATM   25  C   UNK N   1       0.549  -1.813   0.615  0.00  0.00    -0.007 A 
HETATM   26  C   UNK N   1      -0.840  -1.941   0.568  0.00  0.00     0.015 A 
HETATM   27  C   UNK N   1      -1.409  -3.214   0.473  0.00  0.00     0.019 A 
HETATM   28  C   UNK N   1      -0.585  -4.352   0.423  0.00  0.00     0.037 A 
HETATM   29  C   UNK N   1       0.796  -4.215   0.559  0.00  0.00     0.019 A 
HETATM   30  C   UNK N   1       1.358  -2.953   0.649  0.00  0.00     0.015 A 
BRANCH  28  31
HETATM   31  C   UNK N   1      -1.143  -5.676   0.120  0.00  0.00     0.176 C 
HETATM   32  O   UNK N   1      -2.337  -5.809  -0.089  0.00  0.00    -0.646 OA
BRANCH  31  33
HETATM   33  O   UNK N   1      -0.321  -6.736  -0.019  0.00  0.00    -0.773 OA
HETATM   34  H   UNK N   1      -0.673  -7.599  -0.116  0.00  0.00     0.167 HD
ENDBRANCH  31  33
ENDBRANCH  28  31
ENDBRANCH   9  25
TORSDOF 6
