MODEL 1
REMARK VINA RESULT:      -6.8      0.000      0.000
REMARK  1 active torsions:
REMARK  status: ('A' for Active; 'I' for Inactive)
REMARK    1  A    between atoms: C_3  and  C_6 
ROOT
HETATM    1  O   UNK N   1      28.654  23.160  -5.203  0.00  0.00    -0.309 OA
HETATM    2  O   UNK N   1      30.252  23.000  -1.568  0.00  0.00    -0.287 OA
HETATM    3  C   UNK N   1      28.239  24.020  -4.272  0.00  0.00     0.090 A 
HETATM    4  C   UNK N   1      29.587  22.245  -4.962  0.00  0.00     0.090 A 
HETATM    5  C   UNK N   1      29.769  23.039  -2.686  0.00  0.00     0.187 A 
HETATM    6  C   UNK N   1      30.183  22.151  -3.685  0.00  0.00     0.048 A 
HETATM    7  C   UNK N   1      28.790  23.981  -2.982  0.00  0.00     0.093 A 
HETATM    8  C   UNK N   1      29.979  21.372  -5.980  0.00  0.00     0.038 A 
HETATM    9  C   UNK N   1      31.166  21.180  -3.447  0.00  0.00     0.018 A 
HETATM   10  C   UNK N   1      30.960  20.406  -5.735  0.00  0.00     0.003 A 
HETATM   11  C   UNK N   1      31.552  20.311  -4.471  0.00  0.00     0.001 A 
ENDROOT
BRANCH   3  12
HETATM   12  C   UNK N   1      27.202  25.007  -4.608  0.00  0.00    -0.002 A 
HETATM   13  C   UNK N   1      26.922  26.076  -3.743  0.00  0.00     0.014 A 
HETATM   14  C   UNK N   1      25.935  27.008  -4.072  0.00  0.00     0.001 A 
HETATM   15  C   UNK N   1      25.222  26.876  -5.267  0.00  0.00     0.000 A 
HETATM   16  C   UNK N   1      25.496  25.814  -6.133  0.00  0.00     0.001 A 
HETATM   17  C   UNK N   1      26.483  24.882  -5.804  0.00  0.00     0.014 A 
ENDBRANCH   3  12
TORSDOF 1
ENDMDL
MODEL 2
REMARK VINA RESULT:      -6.7     12.287     14.881
REMARK  1 active torsions:
REMARK  status: ('A' for Active; 'I' for Inactive)
REMARK    1  A    between atoms: C_3  and  C_6 
ROOT
HETATM    1  O   UNK N   1      33.154  15.853   7.757  0.00  0.00    -0.309 OA
HETATM    2  O   UNK N   1      35.296  19.101   8.564  0.00  0.00    -0.287 OA
HETATM    3  C   UNK N   1      33.178  16.852   6.874  0.00  0.00     0.090 A 
HETATM    4  C   UNK N   1      33.823  15.900   8.905  0.00  0.00     0.090 A 
HETATM    5  C   UNK N   1      34.643  18.100   8.327  0.00  0.00     0.187 A 
HETATM    6  C   UNK N   1      34.597  17.034   9.234  0.00  0.00     0.048 A 
HETATM    7  C   UNK N   1      33.928  18.008   7.139  0.00  0.00     0.093 A 
HETATM    8  C   UNK N   1      33.757  14.821   9.789  0.00  0.00     0.038 A 
HETATM    9  C   UNK N   1      35.297  17.070  10.448  0.00  0.00     0.018 A 
HETATM   10  C   UNK N   1      34.458  14.863  10.998  0.00  0.00     0.003 A 
HETATM   11  C   UNK N   1      35.226  15.984  11.326  0.00  0.00     0.001 A 
ENDROOT
BRANCH   3  12
HETATM   12  C   UNK N   1      32.414  16.732   5.623  0.00  0.00    -0.002 A 
HETATM   13  C   UNK N   1      31.203  16.024   5.588  0.00  0.00     0.014 A 
HETATM   14  C   UNK N   1      30.484  15.916   4.396  0.00  0.00     0.001 A 
HETATM   15  C   UNK N   1      30.973  16.515   3.231  0.00  0.00     0.000 A 
HETATM   16  C   UNK N   1      32.178  17.221   3.259  0.00  0.00     0.001 A 
HETATM   17  C   UNK N   1      32.897  17.330   4.451  0.00  0.00     0.014 A 
ENDBRANCH   3  12
TORSDOF 1
ENDMDL
MODEL 3
REMARK VINA RESULT:      -6.6      1.425      6.393
REMARK  1 active torsions:
REMARK  status: ('A' for Active; 'I' for Inactive)
REMARK    1  A    between atoms: C_3  and  C_6 
ROOT
HETATM    1  O   UNK N   1      27.882  25.137  -4.017  0.00  0.00    -0.309 OA
HETATM    2  O   UNK N   1      25.491  24.179  -7.042  0.00  0.00    -0.287 OA
HETATM    3  C   UNK N   1      28.089  23.995  -4.673  0.00  0.00     0.090 A 
HETATM    4  C   UNK N   1      26.901  25.974  -4.336  0.00  0.00     0.090 A 
HETATM    5  C   UNK N   1      26.218  24.483  -6.113  0.00  0.00     0.187 A 
HETATM    6  C   UNK N   1      26.026  25.675  -5.404  0.00  0.00     0.048 A 
HETATM    7  C   UNK N   1      27.257  23.637  -5.745  0.00  0.00     0.093 A 
HETATM    8  C   UNK N   1      26.736  27.156  -3.610  0.00  0.00     0.038 A 
HETATM    9  C   UNK N   1      24.996  26.568  -5.729  0.00  0.00     0.018 A 
HETATM   10  C   UNK N   1      25.706  28.042  -3.940  0.00  0.00     0.003 A 
HETATM   11  C   UNK N   1      24.838  27.748  -4.997  0.00  0.00     0.001 A 
ENDROOT
BRANCH   3  12
HETATM   12  C   UNK N   1      29.196  23.115  -4.265  0.00  0.00    -0.002 A 
HETATM   13  C   UNK N   1      29.661  22.105  -5.120  0.00  0.00     0.014 A 
HETATM   14  C   UNK N   1      30.712  21.275  -4.723  0.00  0.00     0.001 A 
HETATM   15  C   UNK N   1      31.303  21.451  -3.470  0.00  0.00     0.000 A 
HETATM   16  C   UNK N   1      30.845  22.455  -2.613  0.00  0.00     0.001 A 
HETATM   17  C   UNK N   1      29.794  23.285  -3.010  0.00  0.00     0.014 A 
ENDBRANCH   3  12
TORSDOF 1
ENDMDL
MODEL 4
REMARK VINA RESULT:      -6.6     18.860     21.411
REMARK  1 active torsions:
REMARK  status: ('A' for Active; 'I' for Inactive)
REMARK    1  A    between atoms: C_3  and  C_6 
ROOT
HETATM    1  O   UNK N   1      34.637  12.925  13.002  0.00  0.00    -0.309 OA
HETATM    2  O   UNK N   1      37.387  14.233  15.554  0.00  0.00    -0.287 OA
HETATM    3  C   UNK N   1      35.331  14.024  12.704  0.00  0.00     0.090 A 
HETATM    4  C   UNK N   1      34.830  12.244  14.127  0.00  0.00     0.090 A 
HETATM    5  C   UNK N   1      36.542  13.823  14.780  0.00  0.00     0.187 A 
HETATM    6  C   UNK N   1      35.797  12.672  15.064  0.00  0.00     0.048 A 
HETATM    7  C   UNK N   1      36.307  14.503  13.591  0.00  0.00     0.093 A 
HETATM    8  C   UNK N   1      34.071  11.100  14.383  0.00  0.00     0.038 A 
HETATM    9  C   UNK N   1      35.989  11.944  16.246  0.00  0.00     0.018 A 
HETATM   10  C   UNK N   1      34.268  10.378  15.564  0.00  0.00     0.003 A 
HETATM   11  C   UNK N   1      35.225  10.799  16.493  0.00  0.00     0.001 A 
ENDROOT
BRANCH   3  12
HETATM   12  C   UNK N   1      35.064  14.728  11.440  0.00  0.00    -0.002 A 
HETATM   13  C   UNK N   1      35.410  16.078  11.284  0.00  0.00     0.014 A 
HETATM   14  C   UNK N   1      35.153  16.737  10.080  0.00  0.00     0.001 A 
HETATM   15  C   UNK N   1      34.549  16.050   9.025  0.00  0.00     0.000 A 
HETATM   16  C   UNK N   1      34.201  14.704   9.173  0.00  0.00     0.001 A 
HETATM   17  C   UNK N   1      34.459  14.045  10.377  0.00  0.00     0.014 A 
ENDBRANCH   3  12
TORSDOF 1
ENDMDL
MODEL 5
REMARK VINA RESULT:      -6.6     20.707     23.532
REMARK  1 active torsions:
REMARK  status: ('A' for Active; 'I' for Inactive)
REMARK    1  A    between atoms: C_3  and  C_6 
ROOT
HETATM    1  O   UNK N   1      35.570  13.531  14.694  0.00  0.00    -0.309 OA
HETATM    2  O   UNK N   1      34.018  10.524  12.612  0.00  0.00    -0.287 OA
HETATM    3  C   UNK N   1      35.106  12.462  15.343  0.00  0.00     0.090 A 
HETATM    4  C   UNK N   1      35.535  13.631  13.369  0.00  0.00     0.090 A 
HETATM    5  C   UNK N   1      34.496  11.452  13.240  0.00  0.00     0.187 A 
HETATM    6  C   UNK N   1      34.992  12.587  12.588  0.00  0.00     0.048 A 
HETATM    7  C   UNK N   1      34.554  11.389  14.627  0.00  0.00     0.093 A 
HETATM    8  C   UNK N   1      36.037  14.777  12.748  0.00  0.00     0.038 A 
HETATM    9  C   UNK N   1      34.961  12.707  11.192  0.00  0.00     0.018 A 
HETATM   10  C   UNK N   1      36.003  14.891  11.355  0.00  0.00     0.003 A 
HETATM   11  C   UNK N   1      35.466  13.858  10.579  0.00  0.00     0.001 A 
ENDROOT
BRANCH   3  12
HETATM   12  C   UNK N   1      35.178  12.419  16.812  0.00  0.00    -0.002 A 
HETATM   13  C   UNK N   1      35.352  11.200  17.485  0.00  0.00     0.014 A 
HETATM   14  C   UNK N   1      35.418  11.170  18.879  0.00  0.00     0.001 A 
HETATM   15  C   UNK N   1      35.312  12.357  19.608  0.00  0.00     0.000 A 
HETATM   16  C   UNK N   1      35.139  13.574  18.944  0.00  0.00     0.001 A 
HETATM   17  C   UNK N   1      35.072  13.605  17.550  0.00  0.00     0.014 A 
ENDBRANCH   3  12
TORSDOF 1
ENDMDL
MODEL 6
REMARK VINA RESULT:      -6.5     20.907     23.667
REMARK  1 active torsions:
REMARK  status: ('A' for Active; 'I' for Inactive)
REMARK    1  A    between atoms: C_3  and  C_6 
ROOT
HETATM    1  O   UNK N   1      34.620  11.385  14.700  0.00  0.00    -0.309 OA
HETATM    2  O   UNK N   1      36.119  14.434  12.640  0.00  0.00    -0.287 OA
HETATM    3  C   UNK N   1      35.175  12.404  15.357  0.00  0.00     0.090 A 
HETATM    4  C   UNK N   1      34.547  11.348  13.373  0.00  0.00     0.090 A 
HETATM    5  C   UNK N   1      35.656  13.494  13.261  0.00  0.00     0.187 A 
HETATM    6  C   UNK N   1      35.067  12.409  12.600  0.00  0.00     0.048 A 
HETATM    7  C   UNK N   1      35.710  13.490  14.650  0.00  0.00     0.093 A 
HETATM    8  C   UNK N   1      33.953  10.252  12.743  0.00  0.00     0.038 A 
HETATM    9  C   UNK N   1      34.983  12.356  11.202  0.00  0.00     0.018 A 
HETATM   10  C   UNK N   1      33.873  10.206  11.348  0.00  0.00     0.003 A 
HETATM   11  C   UNK N   1      34.386  11.256  10.580  0.00  0.00     0.001 A 
ENDROOT
BRANCH   3  12
HETATM   12  C   UNK N   1      35.221  12.378  16.828  0.00  0.00    -0.002 A 
HETATM   13  C   UNK N   1      35.105  13.563  17.569  0.00  0.00     0.014 A 
HETATM   14  C   UNK N   1      35.150  13.528  18.965  0.00  0.00     0.001 A 
HETATM   15  C   UNK N   1      35.311  12.308  19.626  0.00  0.00     0.000 A 
HETATM   16  C   UNK N   1      35.428  11.123  18.893  0.00  0.00     0.001 A 
HETATM   17  C   UNK N   1      35.383  11.158  17.498  0.00  0.00     0.014 A 
ENDBRANCH   3  12
TORSDOF 1
ENDMDL
MODEL 7
REMARK VINA RESULT:      -6.3     15.783     16.830
REMARK  1 active torsions:
REMARK  status: ('A' for Active; 'I' for Inactive)
REMARK    1  A    between atoms: C_3  and  C_6 
ROOT
HETATM    1  O   UNK N   1      22.697  14.561   7.981  0.00  0.00    -0.309 OA
HETATM    2  O   UNK N   1      19.167  14.449   9.800  0.00  0.00    -0.287 OA
HETATM    3  C   UNK N   1      21.737  15.399   7.589  0.00  0.00     0.090 A 
HETATM    4  C   UNK N   1      22.520  13.683   8.963  0.00  0.00     0.090 A 
HETATM    5  C   UNK N   1      20.253  14.475   9.250  0.00  0.00     0.187 A 
HETATM    6  C   UNK N   1      21.282  13.608   9.639  0.00  0.00     0.048 A 
HETATM    7  C   UNK N   1      20.483  15.376   8.217  0.00  0.00     0.093 A 
HETATM    8  C   UNK N   1      23.566  12.832   9.328  0.00  0.00     0.038 A 
HETATM    9  C   UNK N   1      21.110  12.678  10.672  0.00  0.00     0.018 A 
HETATM   10  C   UNK N   1      23.387  11.906  10.360  0.00  0.00     0.003 A 
HETATM   11  C   UNK N   1      22.162  11.830  11.031  0.00  0.00     0.001 A 
ENDROOT
BRANCH   3  12
HETATM   12  C   UNK N   1      22.003  16.344   6.494  0.00  0.00    -0.002 A 
HETATM   13  C   UNK N   1      23.057  16.122   5.595  0.00  0.00     0.014 A 
HETATM   14  C   UNK N   1      23.301  17.026   4.559  0.00  0.00     0.001 A 
HETATM   15  C   UNK N   1      22.494  18.157   4.415  0.00  0.00     0.000 A 
HETATM   16  C   UNK N   1      21.442  18.385   5.307  0.00  0.00     0.001 A 
HETATM   17  C   UNK N   1      21.198  17.481   6.344  0.00  0.00     0.014 A 
ENDBRANCH   3  12
TORSDOF 1
ENDMDL
MODEL 8
REMARK VINA RESULT:      -6.0     22.154     24.755
REMARK  1 active torsions:
REMARK  status: ('A' for Active; 'I' for Inactive)
REMARK    1  A    between atoms: C_3  and  C_6 
ROOT
HETATM    1  O   UNK N   1      35.350  11.478  16.265  0.00  0.00    -0.309 OA
HETATM    2  O   UNK N   1      35.282  14.492  18.853  0.00  0.00    -0.287 OA
HETATM    3  C   UNK N   1      35.396  12.730  15.807  0.00  0.00     0.090 A 
HETATM    4  C   UNK N   1      35.283  11.196  17.562  0.00  0.00     0.090 A 
HETATM    5  C   UNK N   1      35.303  13.560  18.069  0.00  0.00     0.187 A 
HETATM    6  C   UNK N   1      35.256  12.235  18.518  0.00  0.00     0.048 A 
HETATM    7  C   UNK N   1      35.373  13.809  16.704  0.00  0.00     0.093 A 
HETATM    8  C   UNK N   1      35.237   9.864  17.979  0.00  0.00     0.038 A 
HETATM    9  C   UNK N   1      35.184  11.922  19.882  0.00  0.00     0.018 A 
HETATM   10  C   UNK N   1      35.166   9.559  19.341  0.00  0.00     0.003 A 
HETATM   11  C   UNK N   1      35.139  10.585  20.290  0.00  0.00     0.001 A 
ENDROOT
BRANCH   3  12
HETATM   12  C   UNK N   1      35.471  12.969  14.357  0.00  0.00    -0.002 A 
HETATM   13  C   UNK N   1      34.922  12.050  13.450  0.00  0.00     0.014 A 
HETATM   14  C   UNK N   1      34.998  12.286  12.076  0.00  0.00     0.001 A 
HETATM   15  C   UNK N   1      35.623  13.442  11.601  0.00  0.00     0.000 A 
HETATM   16  C   UNK N   1      36.172  14.362  12.499  0.00  0.00     0.001 A 
HETATM   17  C   UNK N   1      36.096  14.126  13.873  0.00  0.00     0.014 A 
ENDBRANCH   3  12
TORSDOF 1
ENDMDL
MODEL 9
REMARK VINA RESULT:      -6.0     10.447     12.059
REMARK  1 active torsions:
REMARK  status: ('A' for Active; 'I' for Inactive)
REMARK    1  A    between atoms: C_3  and  C_6 
ROOT
HETATM    1  O   UNK N   1      29.240  17.680   5.619  0.00  0.00    -0.309 OA
HETATM    2  O   UNK N   1      28.914  18.671   9.452  0.00  0.00    -0.287 OA
HETATM    3  C   UNK N   1      28.212  18.433   6.010  0.00  0.00     0.090 A 
HETATM    4  C   UNK N   1      30.167  17.244   6.465  0.00  0.00     0.090 A 
HETATM    5  C   UNK N   1      29.024  18.361   8.280  0.00  0.00     0.187 A 
HETATM    6  C   UNK N   1      30.092  17.571   7.837  0.00  0.00     0.048 A 
HETATM    7  C   UNK N   1      28.078  18.795   7.359  0.00  0.00     0.093 A 
HETATM    8  C   UNK N   1      31.221  16.457   5.993  0.00  0.00     0.038 A 
HETATM    9  C   UNK N   1      31.077  17.104   8.718  0.00  0.00     0.018 A 
HETATM   10  C   UNK N   1      32.200  15.995   6.877  0.00  0.00     0.003 A 
HETATM   11  C   UNK N   1      32.128  16.317   8.236  0.00  0.00     0.001 A 
ENDROOT
BRANCH   3  12
HETATM   12  C   UNK N   1      27.222  18.881   5.018  0.00  0.00    -0.002 A 
HETATM   13  C   UNK N   1      26.042  18.153   4.804  0.00  0.00     0.014 A 
HETATM   14  C   UNK N   1      25.109  18.586   3.859  0.00  0.00     0.001 A 
HETATM   15  C   UNK N   1      25.351  19.749   3.124  0.00  0.00     0.000 A 
HETATM   16  C   UNK N   1      26.524  20.479   3.332  0.00  0.00     0.001 A 
HETATM   17  C   UNK N   1      27.457  20.046   4.276  0.00  0.00     0.014 A 
ENDBRANCH   3  12
TORSDOF 1
ENDMDL
