MODEL 1
REMARK VINA RESULT:      -7.5      0.000      0.000
REMARK  11 active torsions:
REMARK  status: ('A' for Active; 'I' for Inactive)
REMARK    1  A    between atoms: O_31  and  C_2 
REMARK    2  A    between atoms: C_17  and  C_14 
REMARK    3  A    between atoms: C_24  and  C_14 
REMARK    4  A    between atoms: C_24  and  C_19 
REMARK    5  A    between atoms: C_25  and  C_20 
REMARK    6  A    between atoms: O_32  and  C_22 
REMARK    7  A    between atoms: O_32  and  C_23 
REMARK    8  A    between atoms: C_26  and  C_24 
REMARK    9  A    between atoms: N_27  and  C_25 
REMARK   10  A    between atoms: N_28  and  C_25 
REMARK   11  A    between atoms: O_31  and  C_26 
ROOT
HETATM    1  C   UNK N   1      33.413  16.228   7.753  0.00  0.00     0.122 C 
ENDROOT
BRANCH   1   2
HETATM    2  C   UNK N   1      33.955  16.613   9.133  0.00  0.00     0.058 C 
BRANCH   2   3
HETATM    3  C   UNK N   1      34.396  15.415   9.877  0.00  0.00    -0.056 A 
HETATM    4  C   UNK N   1      34.152  14.136   9.364  0.00  0.00     0.008 A 
HETATM    5  C   UNK N   1      34.499  13.008  10.110  0.00  0.00     0.013 A 
HETATM    6  C   UNK N   1      35.082  13.162  11.369  0.00  0.00    -0.026 A 
HETATM    7  C   UNK N   1      35.397  12.044  12.140  0.00  0.00     0.013 A 
HETATM    8  C   UNK N   1      35.342  14.457  11.873  0.00  0.00    -0.025 A 
HETATM    9  C   UNK N   1      35.960  12.209  13.409  0.00  0.00     0.012 A 
HETATM   10  C   UNK N   1      36.223  13.495  13.912  0.00  0.00    -0.017 A 
HETATM   11  C   UNK N   1      35.916  14.616  13.132  0.00  0.00     0.023 A 
HETATM   12  C   UNK N   1      34.999  15.576  11.123  0.00  0.00     0.019 A 
BRANCH  10  13
HETATM   13  C   UNK N   1      36.823  13.700  15.275  0.00  0.00     0.202 C 
BRANCH  13  14
HETATM   14  N   UNK N   1      37.347  15.051  15.392  0.00  0.00    -0.407 N 
HETATM   15  H   UNK N   1      37.225  15.982  14.993  0.00  0.00     0.152 HD
HETATM   16  H   UNK N   1      38.075  15.077  16.105  0.00  0.00     0.152 HD
ENDBRANCH  13  14
BRANCH  13  17
HETATM   17  N   UNK N   1      35.853  13.469  16.334  0.00  0.00    -0.407 N 
HETATM   18  H   UNK N   1      34.855  13.441  16.126  0.00  0.00     0.152 HD
HETATM   19  H   UNK N   1      36.174  13.334  17.293  0.00  0.00     0.152 HD
ENDBRANCH  13  17
ENDBRANCH  10  13
ENDBRANCH   2   3
ENDBRANCH   1   2
BRANCH   1  20
HETATM   20  C   UNK N   1      31.972  16.646   7.695  0.00  0.00    -0.044 A 
HETATM   21  C   UNK N   1      31.508  17.608   8.604  0.00  0.00     0.011 A 
HETATM   22  C   UNK N   1      30.230  18.151   8.464  0.00  0.00     0.037 A 
HETATM   23  C   UNK N   1      29.414  17.752   7.403  0.00  0.00     0.069 A 
HETATM   24  C   UNK N   1      29.852  16.730   6.548  0.00  0.00     0.037 A 
HETATM   25  C   UNK N   1      31.116  16.175   6.697  0.00  0.00     0.011 A 
BRANCH  23  26
HETATM   26  O   UNK N   1      28.249  18.415   7.186  0.00  0.00    -0.344 OA
BRANCH  26  27
HETATM   27  C   UNK N   1      27.928  19.141   6.044  0.00  0.00     0.147 C 
HETATM   28  C   UNK N   1      27.575  20.579   6.338  0.00  0.00     0.053 C 
HETATM   29  C   UNK N   1      26.157  20.753   5.826  0.00  0.00     0.116 C 
HETATM   30  N   UNK N   1      25.587  19.431   5.597  0.00  0.00    -0.419 N 
HETATM   31  C   UNK N   1      26.722  18.561   5.323  0.00  0.00     0.146 C 
HETATM   32  H   UNK N   1      24.601  19.171   5.624  0.00  0.00     0.153 HD
ENDBRANCH  26  27
ENDBRANCH  23  26
ENDBRANCH   1  20
BRANCH   1  33
HETATM   33  C   UNK N   1      34.306  16.765   6.645  0.00  0.00     0.267 C 
HETATM   34  O   UNK N   1      34.402  17.975   6.520  0.00  0.00    -0.264 OA
BRANCH  33  35
HETATM   35  O   UNK N   1      34.961  15.965   5.760  0.00  0.00    -0.321 OA
BRANCH  35  36
HETATM   36  C   UNK N   1      35.777  14.913   6.113  0.00  0.00     0.174 C 
HETATM   37  C   UNK N   1      35.136  13.608   5.684  0.00  0.00     0.034 C 
ENDBRANCH  35  36
ENDBRANCH  33  35
ENDBRANCH   1  33
TORSDOF 11
ENDMDL
MODEL 2
REMARK VINA RESULT:      -7.4      5.051      9.982
REMARK  11 active torsions:
REMARK  status: ('A' for Active; 'I' for Inactive)
REMARK    1  A    between atoms: O_31  and  C_2 
REMARK    2  A    between atoms: C_17  and  C_14 
REMARK    3  A    between atoms: C_24  and  C_14 
REMARK    4  A    between atoms: C_24  and  C_19 
REMARK    5  A    between atoms: C_25  and  C_20 
REMARK    6  A    between atoms: O_32  and  C_22 
REMARK    7  A    between atoms: O_32  and  C_23 
REMARK    8  A    between atoms: C_26  and  C_24 
REMARK    9  A    between atoms: N_27  and  C_25 
REMARK   10  A    between atoms: N_28  and  C_25 
REMARK   11  A    between atoms: O_31  and  C_26 
ROOT
HETATM    1  C   UNK N   1      26.775  16.885   6.054  0.00  0.00     0.122 C 
ENDROOT
BRANCH   1   2
HETATM    2  C   UNK N   1      26.444  15.426   5.720  0.00  0.00     0.058 C 
BRANCH   2   3
HETATM    3  C   UNK N   1      25.169  15.021   6.344  0.00  0.00    -0.056 A 
HETATM    4  C   UNK N   1      23.956  15.545   5.881  0.00  0.00     0.008 A 
HETATM    5  C   UNK N   1      22.763  15.221   6.528  0.00  0.00     0.013 A 
HETATM    6  C   UNK N   1      22.785  14.377   7.641  0.00  0.00    -0.026 A 
HETATM    7  C   UNK N   1      21.605  14.077   8.318  0.00  0.00     0.013 A 
HETATM    8  C   UNK N   1      24.011  13.837   8.092  0.00  0.00    -0.025 A 
HETATM    9  C   UNK N   1      21.640  13.250   9.446  0.00  0.00     0.012 A 
HETATM   10  C   UNK N   1      22.857  12.708   9.896  0.00  0.00    -0.017 A 
HETATM   11  C   UNK N   1      24.038  13.002   9.207  0.00  0.00     0.023 A 
HETATM   12  C   UNK N   1      25.195  14.160   7.441  0.00  0.00     0.019 A 
BRANCH  10  13
HETATM   13  C   UNK N   1      22.922  11.819  11.106  0.00  0.00     0.202 C 
BRANCH  13  14
HETATM   14  N   UNK N   1      23.961  12.284  12.011  0.00  0.00    -0.407 N 
HETATM   15  H   UNK N   1      24.921  12.627  12.000  0.00  0.00     0.152 HD
HETATM   16  H   UNK N   1      23.616  12.259  12.970  0.00  0.00     0.152 HD
ENDBRANCH  13  14
BRANCH  13  17
HETATM   17  N   UNK N   1      21.653  11.776  11.816  0.00  0.00    -0.407 N 
HETATM   18  H   UNK N   1      21.191  12.639  12.104  0.00  0.00     0.152 HD
HETATM   19  H   UNK N   1      21.222  10.876  12.027  0.00  0.00     0.152 HD
ENDBRANCH  13  17
ENDBRANCH  10  13
ENDBRANCH   2   3
ENDBRANCH   1   2
BRANCH   1  20
HETATM   20  C   UNK N   1      28.079  16.900   6.797  0.00  0.00    -0.044 A 
HETATM   21  C   UNK N   1      29.251  16.540   6.115  0.00  0.00     0.011 A 
HETATM   22  C   UNK N   1      30.498  16.716   6.716  0.00  0.00     0.037 A 
HETATM   23  C   UNK N   1      30.585  17.271   7.994  0.00  0.00     0.069 A 
HETATM   24  C   UNK N   1      29.407  17.551   8.702  0.00  0.00     0.037 A 
HETATM   25  C   UNK N   1      28.164  17.359   8.112  0.00  0.00     0.011 A 
BRANCH  23  26
HETATM   26  O   UNK N   1      31.809  17.592   8.489  0.00  0.00    -0.344 OA
BRANCH  26  27
HETATM   27  C   UNK N   1      32.980  16.869   8.291  0.00  0.00     0.147 C 
HETATM   28  C   UNK N   1      33.044  15.610   9.122  0.00  0.00     0.053 C 
HETATM   29  C   UNK N   1      34.282  15.767   9.986  0.00  0.00     0.116 C 
HETATM   30  N   UNK N   1      34.698  17.164   9.943  0.00  0.00    -0.419 N 
HETATM   31  C   UNK N   1      34.214  17.673   8.667  0.00  0.00     0.146 C 
HETATM   32  H   UNK N   1      35.216  17.675  10.656  0.00  0.00     0.153 HD
ENDBRANCH  26  27
ENDBRANCH  23  26
ENDBRANCH   1  20
BRANCH   1  33
HETATM   33  C   UNK N   1      26.706  17.760   4.812  0.00  0.00     0.267 C 
HETATM   34  O   UNK N   1      26.755  17.214   3.721  0.00  0.00    -0.264 OA
BRANCH  33  35
HETATM   35  O   UNK N   1      26.641  19.119   4.858  0.00  0.00    -0.321 OA
BRANCH  35  36
HETATM   36  C   UNK N   1      27.731  19.948   4.997  0.00  0.00     0.174 C 
HETATM   37  C   UNK N   1      27.648  20.675   6.324  0.00  0.00     0.034 C 
ENDBRANCH  35  36
ENDBRANCH  33  35
ENDBRANCH   1  33
TORSDOF 11
ENDMDL
MODEL 3
REMARK VINA RESULT:      -7.4      2.916     11.200
REMARK  11 active torsions:
REMARK  status: ('A' for Active; 'I' for Inactive)
REMARK    1  A    between atoms: O_31  and  C_2 
REMARK    2  A    between atoms: C_17  and  C_14 
REMARK    3  A    between atoms: C_24  and  C_14 
REMARK    4  A    between atoms: C_24  and  C_19 
REMARK    5  A    between atoms: C_25  and  C_20 
REMARK    6  A    between atoms: O_32  and  C_22 
REMARK    7  A    between atoms: O_32  and  C_23 
REMARK    8  A    between atoms: C_26  and  C_24 
REMARK    9  A    between atoms: N_27  and  C_25 
REMARK   10  A    between atoms: N_28  and  C_25 
REMARK   11  A    between atoms: O_31  and  C_26 
ROOT
HETATM    1  C   UNK N   1      29.560  16.603   5.459  0.00  0.00     0.122 C 
ENDROOT
BRANCH   1   2
HETATM    2  C   UNK N   1      28.243  17.019   6.125  0.00  0.00     0.058 C 
BRANCH   2   3
HETATM    3  C   UNK N   1      27.467  17.912   5.241  0.00  0.00    -0.056 A 
HETATM    4  C   UNK N   1      28.101  18.959   4.561  0.00  0.00     0.008 A 
HETATM    5  C   UNK N   1      27.348  19.848   3.792  0.00  0.00     0.013 A 
HETATM    6  C   UNK N   1      25.963  19.691   3.710  0.00  0.00    -0.026 A 
HETATM    7  C   UNK N   1      25.196  20.596   2.976  0.00  0.00     0.013 A 
HETATM    8  C   UNK N   1      25.332  18.621   4.383  0.00  0.00    -0.025 A 
HETATM    9  C   UNK N   1      23.807  20.444   2.918  0.00  0.00     0.012 A 
HETATM   10  C   UNK N   1      23.176  19.378   3.584  0.00  0.00    -0.017 A 
HETATM   11  C   UNK N   1      23.950  18.466   4.310  0.00  0.00     0.023 A 
HETATM   12  C   UNK N   1      26.088  17.737   5.143  0.00  0.00     0.019 A 
BRANCH  10  13
HETATM   13  C   UNK N   1      21.685  19.195   3.540  0.00  0.00     0.202 C 
BRANCH  13  14
HETATM   14  N   UNK N   1      21.194  18.787   4.846  0.00  0.00    -0.407 N 
HETATM   15  H   UNK N   1      20.419  18.958   5.486  0.00  0.00     0.152 HD
HETATM   16  H   UNK N   1      21.833  18.107   5.256  0.00  0.00     0.152 HD
ENDBRANCH  13  14
BRANCH  13  17
HETATM   17  N   UNK N   1      21.002  20.412   3.131  0.00  0.00    -0.407 N 
HETATM   18  H   UNK N   1      21.081  20.754   2.172  0.00  0.00     0.152 HD
HETATM   19  H   UNK N   1      20.440  20.929   3.807  0.00  0.00     0.152 HD
ENDBRANCH  13  17
ENDBRANCH  10  13
ENDBRANCH   2   3
ENDBRANCH   1   2
BRANCH   1  20
HETATM   20  C   UNK N   1      30.684  17.061   6.342  0.00  0.00    -0.044 A 
HETATM   21  C   UNK N   1      30.432  17.267   7.707  0.00  0.00     0.011 A 
HETATM   22  C   UNK N   1      31.485  17.515   8.588  0.00  0.00     0.037 A 
HETATM   23  C   UNK N   1      32.799  17.538   8.116  0.00  0.00     0.069 A 
HETATM   24  C   UNK N   1      33.036  17.413   6.740  0.00  0.00     0.037 A 
HETATM   25  C   UNK N   1      31.987  17.186   5.859  0.00  0.00     0.011 A 
BRANCH  23  26
HETATM   26  O   UNK N   1      33.817  17.608   9.013  0.00  0.00    -0.344 OA
BRANCH  26  27
HETATM   27  C   UNK N   1      34.727  16.593   9.290  0.00  0.00     0.147 C 
HETATM   28  C   UNK N   1      34.075  15.238   9.428  0.00  0.00     0.053 C 
HETATM   29  C   UNK N   1      34.414  14.776  10.834  0.00  0.00     0.116 C 
HETATM   30  N   UNK N   1      34.899  15.924  11.590  0.00  0.00    -0.419 N 
HETATM   31  C   UNK N   1      35.462  16.831  10.599  0.00  0.00     0.146 C 
HETATM   32  H   UNK N   1      34.852  16.062  12.599  0.00  0.00     0.153 HD
ENDBRANCH  26  27
ENDBRANCH  23  26
ENDBRANCH   1  20
BRANCH   1  33
HETATM   33  C   UNK N   1      29.551  15.124   5.105  0.00  0.00     0.267 C 
HETATM   34  O   UNK N   1      30.256  14.373   5.760  0.00  0.00    -0.264 OA
BRANCH  33  35
HETATM   35  O   UNK N   1      28.837  14.608   4.068  0.00  0.00    -0.321 OA
BRANCH  35  36
HETATM   36  C   UNK N   1      28.800  15.145   2.801  0.00  0.00     0.174 C 
HETATM   37  C   UNK N   1      27.365  15.461   2.427  0.00  0.00     0.034 C 
ENDBRANCH  35  36
ENDBRANCH  33  35
ENDBRANCH   1  33
TORSDOF 11
ENDMDL
MODEL 4
REMARK VINA RESULT:      -7.3      5.716     11.802
REMARK  11 active torsions:
REMARK  status: ('A' for Active; 'I' for Inactive)
REMARK    1  A    between atoms: O_31  and  C_2 
REMARK    2  A    between atoms: C_17  and  C_14 
REMARK    3  A    between atoms: C_24  and  C_14 
REMARK    4  A    between atoms: C_24  and  C_19 
REMARK    5  A    between atoms: C_25  and  C_20 
REMARK    6  A    between atoms: O_32  and  C_22 
REMARK    7  A    between atoms: O_32  and  C_23 
REMARK    8  A    between atoms: C_26  and  C_24 
REMARK    9  A    between atoms: N_27  and  C_25 
REMARK   10  A    between atoms: N_28  and  C_25 
REMARK   11  A    between atoms: O_31  and  C_26 
ROOT
HETATM    1  C   UNK N   1      23.869  19.464   3.979  0.00  0.00     0.122 C 
ENDROOT
BRANCH   1   2
HETATM    2  C   UNK N   1      23.252  18.089   3.702  0.00  0.00     0.058 C 
BRANCH   2   3
HETATM    3  C   UNK N   1      22.512  17.599   4.883  0.00  0.00    -0.056 A 
HETATM    4  C   UNK N   1      21.519  18.388   5.473  0.00  0.00     0.008 A 
HETATM    5  C   UNK N   1      20.881  17.953   6.636  0.00  0.00     0.013 A 
HETATM    6  C   UNK N   1      21.244  16.732   7.210  0.00  0.00    -0.026 A 
HETATM    7  C   UNK N   1      20.642  16.305   8.392  0.00  0.00     0.013 A 
HETATM    8  C   UNK N   1      22.235  15.932   6.598  0.00  0.00    -0.025 A 
HETATM    9  C   UNK N   1      21.028  15.092   8.972  0.00  0.00     0.012 A 
HETATM   10  C   UNK N   1      22.011  14.292   8.365  0.00  0.00    -0.017 A 
HETATM   11  C   UNK N   1      22.606  14.718   7.172  0.00  0.00     0.023 A 
HETATM   12  C   UNK N   1      22.862  16.369   5.438  0.00  0.00     0.019 A 
BRANCH  10  13
HETATM   13  C   UNK N   1      22.447  12.986   8.969  0.00  0.00     0.202 C 
BRANCH  13  14
HETATM   14  N   UNK N   1      23.150  12.188   7.978  0.00  0.00    -0.407 N 
HETATM   15  H   UNK N   1      22.973  11.485   7.261  0.00  0.00     0.152 HD
HETATM   16  H   UNK N   1      24.147  12.399   8.012  0.00  0.00     0.152 HD
ENDBRANCH  13  14
BRANCH  13  17
HETATM   17  N   UNK N   1      23.309  13.185  10.124  0.00  0.00    -0.407 N 
HETATM   18  H   UNK N   1      24.105  12.569  10.289  0.00  0.00     0.152 HD
HETATM   19  H   UNK N   1      23.116  13.947  10.774  0.00  0.00     0.152 HD
ENDBRANCH  13  17
ENDBRANCH  10  13
ENDBRANCH   2   3
ENDBRANCH   1   2
BRANCH   1  20
HETATM   20  C   UNK N   1      25.343  19.270   4.188  0.00  0.00    -0.044 A 
HETATM   21  C   UNK N   1      26.041  20.193   4.981  0.00  0.00     0.011 A 
HETATM   22  C   UNK N   1      27.366  19.947   5.347  0.00  0.00     0.037 A 
HETATM   23  C   UNK N   1      27.996  18.769   4.939  0.00  0.00     0.069 A 
HETATM   24  C   UNK N   1      27.319  17.892   4.079  0.00  0.00     0.037 A 
HETATM   25  C   UNK N   1      26.007  18.144   3.699  0.00  0.00     0.011 A 
BRANCH  23  26
HETATM   26  O   UNK N   1      29.220  18.470   5.446  0.00  0.00    -0.344 OA
BRANCH  26  27
HETATM   27  C   UNK N   1      29.817  17.214   5.440  0.00  0.00     0.147 C 
HETATM   28  C   UNK N   1      30.157  16.716   6.824  0.00  0.00     0.053 C 
HETATM   29  C   UNK N   1      31.660  16.502   6.810  0.00  0.00     0.116 C 
HETATM   30  N   UNK N   1      32.209  17.179   5.642  0.00  0.00    -0.419 N 
HETATM   31  C   UNK N   1      31.127  17.212   4.668  0.00  0.00     0.146 C 
HETATM   32  H   UNK N   1      33.152  17.551   5.531  0.00  0.00     0.153 HD
ENDBRANCH  26  27
ENDBRANCH  23  26
ENDBRANCH   1  20
BRANCH   1  33
HETATM   33  C   UNK N   1      23.476  20.467   2.905  0.00  0.00     0.267 C 
HETATM   34  O   UNK N   1      24.272  20.687   2.006  0.00  0.00    -0.264 OA
BRANCH  33  35
HETATM   35  O   UNK N   1      22.307  21.163   2.924  0.00  0.00    -0.321 OA
BRANCH  35  36
HETATM   36  C   UNK N   1      21.073  20.625   2.634  0.00  0.00     0.174 C 
HETATM   37  C   UNK N   1      20.912  20.507   1.131  0.00  0.00     0.034 C 
ENDBRANCH  35  36
ENDBRANCH  33  35
ENDBRANCH   1  33
TORSDOF 11
ENDMDL
MODEL 5
REMARK VINA RESULT:      -7.3      9.036     13.299
REMARK  11 active torsions:
REMARK  status: ('A' for Active; 'I' for Inactive)
REMARK    1  A    between atoms: O_31  and  C_2 
REMARK    2  A    between atoms: C_17  and  C_14 
REMARK    3  A    between atoms: C_24  and  C_14 
REMARK    4  A    between atoms: C_24  and  C_19 
REMARK    5  A    between atoms: C_25  and  C_20 
REMARK    6  A    between atoms: O_32  and  C_22 
REMARK    7  A    between atoms: O_32  and  C_23 
REMARK    8  A    between atoms: C_26  and  C_24 
REMARK    9  A    between atoms: N_27  and  C_25 
REMARK   10  A    between atoms: N_28  and  C_25 
REMARK   11  A    between atoms: O_31  and  C_26 
ROOT
HETATM    1  C   UNK N   1      20.868  15.916   4.470  0.00  0.00     0.122 C 
ENDROOT
BRANCH   1   2
HETATM    2  C   UNK N   1      20.482  17.381   4.700  0.00  0.00     0.058 C 
BRANCH   2   3
HETATM    3  C   UNK N   1      21.561  18.285   4.251  0.00  0.00    -0.056 A 
HETATM    4  C   UNK N   1      21.291  19.309   3.336  0.00  0.00     0.008 A 
HETATM    5  C   UNK N   1      22.330  20.107   2.855  0.00  0.00     0.013 A 
HETATM    6  C   UNK N   1      23.638  19.875   3.286  0.00  0.00    -0.026 A 
HETATM    7  C   UNK N   1      24.690  20.640   2.784  0.00  0.00     0.013 A 
HETATM    8  C   UNK N   1      23.901  18.851   4.224  0.00  0.00    -0.025 A 
HETATM    9  C   UNK N   1      25.999  20.385   3.204  0.00  0.00     0.012 A 
HETATM   10  C   UNK N   1      26.264  19.369   4.139  0.00  0.00    -0.017 A 
HETATM   11  C   UNK N   1      25.205  18.611   4.650  0.00  0.00     0.023 A 
HETATM   12  C   UNK N   1      22.861  18.063   4.703  0.00  0.00     0.019 A 
BRANCH  10  13
HETATM   13  C   UNK N   1      27.662  19.072   4.604  0.00  0.00     0.202 C 
BRANCH  13  14
HETATM   14  N   UNK N   1      27.636  18.535   5.954  0.00  0.00    -0.407 N 
HETATM   15  H   UNK N   1      27.166  17.821   6.510  0.00  0.00     0.152 HD
HETATM   16  H   UNK N   1      28.308  19.035   6.536  0.00  0.00     0.152 HD
ENDBRANCH  13  14
BRANCH  13  17
HETATM   17  N   UNK N   1      28.336  18.128   3.726  0.00  0.00    -0.407 N 
HETATM   18  H   UNK N   1      29.282  17.810   3.935  0.00  0.00     0.152 HD
HETATM   19  H   UNK N   1      27.859  17.782   2.893  0.00  0.00     0.152 HD
ENDBRANCH  13  17
ENDBRANCH  10  13
ENDBRANCH   2   3
ENDBRANCH   1   2
BRANCH   1  20
HETATM   20  C   UNK N   1      21.111  15.291   5.812  0.00  0.00    -0.044 A 
HETATM   21  C   UNK N   1      21.927  14.152   5.892  0.00  0.00     0.011 A 
HETATM   22  C   UNK N   1      22.322  13.653   7.134  0.00  0.00     0.037 A 
HETATM   23  C   UNK N   1      21.920  14.300   8.305  0.00  0.00     0.069 A 
HETATM   24  C   UNK N   1      21.038  15.387   8.221  0.00  0.00     0.037 A 
HETATM   25  C   UNK N   1      20.630  15.873   6.986  0.00  0.00     0.011 A 
BRANCH  23  26
HETATM   26  O   UNK N   1      22.454  13.903   9.490  0.00  0.00    -0.344 OA
BRANCH  26  27
HETATM   27  C   UNK N   1      22.955  12.636   9.771  0.00  0.00     0.147 C 
HETATM   28  C   UNK N   1      22.503  12.107  11.111  0.00  0.00     0.053 C 
HETATM   29  C   UNK N   1      23.781  11.866  11.894  0.00  0.00     0.116 C 
HETATM   30  N   UNK N   1      24.872  12.552  11.214  0.00  0.00    -0.419 N 
HETATM   31  C   UNK N   1      24.475  12.623   9.815  0.00  0.00     0.146 C 
HETATM   32  H   UNK N   1      25.732  12.909  11.630  0.00  0.00     0.153 HD
ENDBRANCH  26  27
ENDBRANCH  23  26
ENDBRANCH   1  20
BRANCH   1  33
HETATM   33  C   UNK N   1      19.851  15.215   3.583  0.00  0.00     0.267 C 
HETATM   34  O   UNK N   1      18.829  14.795   4.103  0.00  0.00    -0.264 OA
BRANCH  33  35
HETATM   35  O   UNK N   1      20.046  14.990   2.255  0.00  0.00    -0.321 OA
BRANCH  35  36
HETATM   36  C   UNK N   1      20.873  15.739   1.449  0.00  0.00     0.174 C 
HETATM   37  C   UNK N   1      20.068  16.830   0.770  0.00  0.00     0.034 C 
ENDBRANCH  35  36
ENDBRANCH  33  35
ENDBRANCH   1  33
TORSDOF 11
ENDMDL
MODEL 6
REMARK VINA RESULT:      -7.2      3.412      6.531
REMARK  11 active torsions:
REMARK  status: ('A' for Active; 'I' for Inactive)
REMARK    1  A    between atoms: O_31  and  C_2 
REMARK    2  A    between atoms: C_17  and  C_14 
REMARK    3  A    between atoms: C_24  and  C_14 
REMARK    4  A    between atoms: C_24  and  C_19 
REMARK    5  A    between atoms: C_25  and  C_20 
REMARK    6  A    between atoms: O_32  and  C_22 
REMARK    7  A    between atoms: O_32  and  C_23 
REMARK    8  A    between atoms: C_26  and  C_24 
REMARK    9  A    between atoms: N_27  and  C_25 
REMARK   10  A    between atoms: N_28  and  C_25 
REMARK   11  A    between atoms: O_31  and  C_26 
ROOT
HETATM    1  C   UNK N   1      28.327  18.084   5.944  0.00  0.00     0.122 C 
ENDROOT
BRANCH   1   2
HETATM    2  C   UNK N   1      29.133  17.328   4.882  0.00  0.00     0.058 C 
BRANCH   2   3
HETATM    3  C   UNK N   1      30.535  17.153   5.313  0.00  0.00    -0.056 A 
HETATM    4  C   UNK N   1      31.583  17.632   4.519  0.00  0.00     0.008 A 
HETATM    5  C   UNK N   1      32.907  17.392   4.892  0.00  0.00     0.013 A 
HETATM    6  C   UNK N   1      33.178  16.667   6.054  0.00  0.00    -0.026 A 
HETATM    7  C   UNK N   1      34.495  16.388   6.417  0.00  0.00     0.013 A 
HETATM    8  C   UNK N   1      32.115  16.202   6.861  0.00  0.00    -0.025 A 
HETATM    9  C   UNK N   1      34.757  15.641   7.570  0.00  0.00     0.012 A 
HETATM   10  C   UNK N   1      33.702  15.179   8.376  0.00  0.00    -0.017 A 
HETATM   11  C   UNK N   1      32.381  15.471   8.016  0.00  0.00     0.023 A 
HETATM   12  C   UNK N   1      30.800  16.449   6.486  0.00  0.00     0.019 A 
BRANCH  10  13
HETATM   13  C   UNK N   1      33.955  14.372   9.618  0.00  0.00     0.202 C 
BRANCH  13  14
HETATM   14  N   UNK N   1      33.404  15.053  10.778  0.00  0.00    -0.407 N 
HETATM   15  H   UNK N   1      32.816  15.851  11.019  0.00  0.00     0.152 HD
HETATM   16  H   UNK N   1      33.704  14.579  11.629  0.00  0.00     0.152 HD
ENDBRANCH  13  14
BRANCH  13  17
HETATM   17  N   UNK N   1      33.377  13.040   9.526  0.00  0.00    -0.407 N 
HETATM   18  H   UNK N   1      33.431  12.396  10.315  0.00  0.00     0.152 HD
HETATM   19  H   UNK N   1      32.915  12.748   8.665  0.00  0.00     0.152 HD
ENDBRANCH  13  17
ENDBRANCH  10  13
ENDBRANCH   2   3
ENDBRANCH   1   2
BRANCH   1  20
HETATM   20  C   UNK N   1      27.299  18.915   5.233  0.00  0.00    -0.044 A 
HETATM   21  C   UNK N   1      26.872  18.518   3.957  0.00  0.00     0.011 A 
HETATM   22  C   UNK N   1      25.792  19.157   3.345  0.00  0.00     0.037 A 
HETATM   23  C   UNK N   1      25.120  20.183   4.012  0.00  0.00     0.069 A 
HETATM   24  C   UNK N   1      25.604  20.630   5.250  0.00  0.00     0.037 A 
HETATM   25  C   UNK N   1      26.689  20.007   5.852  0.00  0.00     0.011 A 
BRANCH  23  26
HETATM   26  O   UNK N   1      23.972  20.672   3.475  0.00  0.00    -0.344 OA
BRANCH  26  27
HETATM   27  C   UNK N   1      22.944  19.912   2.926  0.00  0.00     0.147 C 
HETATM   28  C   UNK N   1      21.746  20.740   2.528  0.00  0.00     0.053 C 
HETATM   29  C   UNK N   1      20.591  20.181   3.339  0.00  0.00     0.116 C 
HETATM   30  N   UNK N   1      21.138  19.350   4.404  0.00  0.00    -0.419 N 
HETATM   31  C   UNK N   1      22.420  18.874   3.905  0.00  0.00     0.146 C 
HETATM   32  H   UNK N   1      20.712  19.145   5.308  0.00  0.00     0.153 HD
ENDBRANCH  26  27
ENDBRANCH  23  26
ENDBRANCH   1  20
BRANCH   1  33
HETATM   33  C   UNK N   1      27.797  17.135   7.007  0.00  0.00     0.267 C 
HETATM   34  O   UNK N   1      27.140  16.173   6.642  0.00  0.00    -0.264 OA
BRANCH  33  35
HETATM   35  O   UNK N   1      27.977  17.331   8.342  0.00  0.00    -0.321 OA
BRANCH  35  36
HETATM   36  C   UNK N   1      28.323  18.534   8.915  0.00  0.00     0.174 C 
HETATM   37  C   UNK N   1      29.758  18.470   9.400  0.00  0.00     0.034 C 
ENDBRANCH  35  36
ENDBRANCH  33  35
ENDBRANCH   1  33
TORSDOF 11
ENDMDL
MODEL 7
REMARK VINA RESULT:      -7.2      1.747     10.060
REMARK  11 active torsions:
REMARK  status: ('A' for Active; 'I' for Inactive)
REMARK    1  A    between atoms: O_31  and  C_2 
REMARK    2  A    between atoms: C_17  and  C_14 
REMARK    3  A    between atoms: C_24  and  C_14 
REMARK    4  A    between atoms: C_24  and  C_19 
REMARK    5  A    between atoms: C_25  and  C_20 
REMARK    6  A    between atoms: O_32  and  C_22 
REMARK    7  A    between atoms: O_32  and  C_23 
REMARK    8  A    between atoms: C_26  and  C_24 
REMARK    9  A    between atoms: N_27  and  C_25 
REMARK   10  A    between atoms: N_28  and  C_25 
REMARK   11  A    between atoms: O_31  and  C_26 
ROOT
HETATM    1  C   UNK N   1      33.155  16.913   8.383  0.00  0.00     0.122 C 
ENDROOT
BRANCH   1   2
HETATM    2  C   UNK N   1      31.802  16.206   8.251  0.00  0.00     0.058 C 
BRANCH   2   3
HETATM    3  C   UNK N   1      30.728  17.178   7.963  0.00  0.00    -0.056 A 
HETATM    4  C   UNK N   1      30.324  18.095   8.940  0.00  0.00     0.008 A 
HETATM    5  C   UNK N   1      29.254  18.955   8.690  0.00  0.00     0.013 A 
HETATM    6  C   UNK N   1      28.586  18.892   7.464  0.00  0.00    -0.026 A 
HETATM    7  C   UNK N   1      27.492  19.720   7.217  0.00  0.00     0.013 A 
HETATM    8  C   UNK N   1      29.011  17.976   6.475  0.00  0.00    -0.025 A 
HETATM    9  C   UNK N   1      26.816  19.633   5.996  0.00  0.00     0.012 A 
HETATM   10  C   UNK N   1      27.237  18.725   5.009  0.00  0.00    -0.017 A 
HETATM   11  C   UNK N   1      28.343  17.904   5.255  0.00  0.00     0.023 A 
HETATM   12  C   UNK N   1      30.080  17.126   6.730  0.00  0.00     0.019 A 
BRANCH  10  13
HETATM   13  C   UNK N   1      26.526  18.610   3.690  0.00  0.00     0.202 C 
BRANCH  13  14
HETATM   14  N   UNK N   1      26.367  17.211   3.329  0.00  0.00    -0.407 N 
HETATM   15  H   UNK N   1      26.918  16.401   3.045  0.00  0.00     0.152 HD
HETATM   16  H   UNK N   1      25.381  16.955   3.373  0.00  0.00     0.152 HD
ENDBRANCH  13  14
BRANCH  13  17
HETATM   17  N   UNK N   1      25.219  19.248   3.722  0.00  0.00    -0.407 N 
HETATM   18  H   UNK N   1      25.123  20.219   4.019  0.00  0.00     0.152 HD
HETATM   19  H   UNK N   1      24.391  18.720   3.447  0.00  0.00     0.152 HD
ENDBRANCH  13  17
ENDBRANCH  10  13
ENDBRANCH   2   3
ENDBRANCH   1   2
BRANCH   1  20
HETATM   20  C   UNK N   1      33.941  16.204   9.447  0.00  0.00    -0.044 A 
HETATM   21  C   UNK N   1      33.654  14.857   9.716  0.00  0.00     0.011 A 
HETATM   22  C   UNK N   1      34.480  14.117  10.564  0.00  0.00     0.037 A 
HETATM   23  C   UNK N   1      35.607  14.711  11.134  0.00  0.00     0.069 A 
HETATM   24  C   UNK N   1      35.841  16.078  10.927  0.00  0.00     0.037 A 
HETATM   25  C   UNK N   1      35.010  16.821  10.099  0.00  0.00     0.011 A 
BRANCH  23  26
HETATM   26  O   UNK N   1      36.487  13.931  11.814  0.00  0.00    -0.344 OA
BRANCH  26  27
HETATM   27  C   UNK N   1      36.156  12.967  12.761  0.00  0.00     0.147 C 
HETATM   28  C   UNK N   1      35.843  13.555  14.115  0.00  0.00     0.053 C 
HETATM   29  C   UNK N   1      36.850  12.929  15.063  0.00  0.00     0.116 C 
HETATM   30  N   UNK N   1      37.909  12.318  14.268  0.00  0.00    -0.419 N 
HETATM   31  C   UNK N   1      37.293  11.984  12.992  0.00  0.00     0.146 C 
HETATM   32  H   UNK N   1      38.876  12.160  14.547  0.00  0.00     0.153 HD
ENDBRANCH  26  27
ENDBRANCH  23  26
ENDBRANCH   1  20
BRANCH   1  33
HETATM   33  C   UNK N   1      33.837  17.047   7.031  0.00  0.00     0.267 C 
HETATM   34  O   UNK N   1      34.552  18.018   6.841  0.00  0.00    -0.264 OA
BRANCH  33  35
HETATM   35  O   UNK N   1      33.650  16.167   6.009  0.00  0.00    -0.321 OA
BRANCH  35  36
HETATM   36  C   UNK N   1      34.659  15.462   5.392  0.00  0.00     0.174 C 
HETATM   37  C   UNK N   1      35.544  14.819   6.442  0.00  0.00     0.034 C 
ENDBRANCH  35  36
ENDBRANCH  33  35
ENDBRANCH   1  33
TORSDOF 11
ENDMDL
MODEL 8
REMARK VINA RESULT:      -7.0      3.918     12.329
REMARK  11 active torsions:
REMARK  status: ('A' for Active; 'I' for Inactive)
REMARK    1  A    between atoms: O_31  and  C_2 
REMARK    2  A    between atoms: C_17  and  C_14 
REMARK    3  A    between atoms: C_24  and  C_14 
REMARK    4  A    between atoms: C_24  and  C_19 
REMARK    5  A    between atoms: C_25  and  C_20 
REMARK    6  A    between atoms: O_32  and  C_22 
REMARK    7  A    between atoms: O_32  and  C_23 
REMARK    8  A    between atoms: C_26  and  C_24 
REMARK    9  A    between atoms: N_27  and  C_25 
REMARK   10  A    between atoms: N_28  and  C_25 
REMARK   11  A    between atoms: O_31  and  C_26 
ROOT
HETATM    1  C   UNK N   1      27.534  17.725   4.973  0.00  0.00     0.122 C 
ENDROOT
BRANCH   1   2
HETATM    2  C   UNK N   1      26.417  18.456   5.726  0.00  0.00     0.058 C 
BRANCH   2   3
HETATM    3  C   UNK N   1      25.400  18.970   4.787  0.00  0.00    -0.056 A 
HETATM    4  C   UNK N   1      25.665  20.101   4.007  0.00  0.00     0.008 A 
HETATM    5  C   UNK N   1      24.670  20.628   3.182  0.00  0.00     0.013 A 
HETATM    6  C   UNK N   1      23.410  20.027   3.144  0.00  0.00    -0.026 A 
HETATM    7  C   UNK N   1      22.397  20.567   2.354  0.00  0.00     0.013 A 
HETATM    8  C   UNK N   1      23.155  18.874   3.921  0.00  0.00    -0.025 A 
HETATM    9  C   UNK N   1      21.132  19.971   2.340  0.00  0.00     0.012 A 
HETATM   10  C   UNK N   1      20.875  18.822   3.109  0.00  0.00    -0.017 A 
HETATM   11  C   UNK N   1      21.898  18.275   3.893  0.00  0.00     0.023 A 
HETATM   12  C   UNK N   1      24.152  18.351   4.736  0.00  0.00     0.019 A 
BRANCH  10  13
HETATM   13  C   UNK N   1      19.524  18.164   3.115  0.00  0.00     0.202 C 
BRANCH  13  14
HETATM   14  N   UNK N   1      19.036  18.011   1.755  0.00  0.00    -0.407 N 
HETATM   15  H   UNK N   1      18.193  17.751   1.243  0.00  0.00     0.152 HD
HETATM   16  H   UNK N   1      19.780  18.239   1.096  0.00  0.00     0.152 HD
ENDBRANCH  13  14
BRANCH  13  17
HETATM   17  N   UNK N   1      19.559  16.860   3.761  0.00  0.00    -0.407 N 
HETATM   18  H   UNK N   1      20.381  16.262   3.676  0.00  0.00     0.152 HD
HETATM   19  H   UNK N   1      18.755  16.542   4.302  0.00  0.00     0.152 HD
ENDBRANCH  13  17
ENDBRANCH  10  13
ENDBRANCH   2   3
ENDBRANCH   1   2
BRANCH   1  20
HETATM   20  C   UNK N   1      28.662  17.497   5.935  0.00  0.00    -0.044 A 
HETATM   21  C   UNK N   1      29.931  17.179   5.428  0.00  0.00     0.011 A 
HETATM   22  C   UNK N   1      31.039  17.139   6.276  0.00  0.00     0.037 A 
HETATM   23  C   UNK N   1      30.891  17.437   7.633  0.00  0.00     0.069 A 
HETATM   24  C   UNK N   1      29.608  17.673   8.147  0.00  0.00     0.037 A 
HETATM   25  C   UNK N   1      28.502  17.694   7.308  0.00  0.00     0.011 A 
BRANCH  23  26
HETATM   26  O   UNK N   1      32.004  17.562   8.402  0.00  0.00    -0.344 OA
BRANCH  26  27
HETATM   27  C   UNK N   1      33.129  16.746   8.342  0.00  0.00     0.147 C 
HETATM   28  C   UNK N   1      32.985  15.481   9.152  0.00  0.00     0.053 C 
HETATM   29  C   UNK N   1      34.111  15.529  10.169  0.00  0.00     0.116 C 
HETATM   30  N   UNK N   1      34.639  16.887  10.203  0.00  0.00    -0.419 N 
HETATM   31  C   UNK N   1      34.365  17.444   8.886  0.00  0.00     0.146 C 
HETATM   32  H   UNK N   1      35.102  17.350  10.985  0.00  0.00     0.153 HD
ENDBRANCH  26  27
ENDBRANCH  23  26
ENDBRANCH   1  20
BRANCH   1  33
HETATM   33  C   UNK N   1      26.999  16.487   4.270  0.00  0.00     0.267 C 
HETATM   34  O   UNK N   1      26.598  15.563   4.959  0.00  0.00    -0.264 OA
BRANCH  33  35
HETATM   35  O   UNK N   1      26.990  16.341   2.916  0.00  0.00    -0.321 OA
BRANCH  35  36
HETATM   36  C   UNK N   1      27.494  15.249   2.246  0.00  0.00     0.174 C 
HETATM   37  C   UNK N   1      29.002  15.211   2.400  0.00  0.00     0.034 C 
ENDBRANCH  35  36
ENDBRANCH  33  35
ENDBRANCH   1  33
TORSDOF 11
ENDMDL
MODEL 9
REMARK VINA RESULT:      -6.9      3.832      7.506
REMARK  11 active torsions:
REMARK  status: ('A' for Active; 'I' for Inactive)
REMARK    1  A    between atoms: O_31  and  C_2 
REMARK    2  A    between atoms: C_17  and  C_14 
REMARK    3  A    between atoms: C_24  and  C_14 
REMARK    4  A    between atoms: C_24  and  C_19 
REMARK    5  A    between atoms: C_25  and  C_20 
REMARK    6  A    between atoms: O_32  and  C_22 
REMARK    7  A    between atoms: O_32  and  C_23 
REMARK    8  A    between atoms: C_26  and  C_24 
REMARK    9  A    between atoms: N_27  and  C_25 
REMARK   10  A    between atoms: N_28  and  C_25 
REMARK   11  A    between atoms: O_31  and  C_26 
ROOT
HETATM    1  C   UNK N   1      27.375  18.385   4.847  0.00  0.00     0.122 C 
ENDROOT
BRANCH   1   2
HETATM    2  C   UNK N   1      27.918  17.981   6.222  0.00  0.00     0.058 C 
BRANCH   2   3
HETATM    3  C   UNK N   1      29.361  17.672   6.146  0.00  0.00    -0.056 A 
HETATM    4  C   UNK N   1      30.012  17.637   4.908  0.00  0.00     0.008 A 
HETATM    5  C   UNK N   1      31.355  17.265   4.836  0.00  0.00     0.013 A 
HETATM    6  C   UNK N   1      32.043  16.924   6.003  0.00  0.00    -0.026 A 
HETATM    7  C   UNK N   1      33.374  16.514   5.940  0.00  0.00     0.013 A 
HETATM    8  C   UNK N   1      31.384  16.979   7.252  0.00  0.00    -0.025 A 
HETATM    9  C   UNK N   1      34.047  16.151   7.110  0.00  0.00     0.012 A 
HETATM   10  C   UNK N   1      33.396  16.208   8.355  0.00  0.00    -0.017 A 
HETATM   11  C   UNK N   1      32.064  16.631   8.417  0.00  0.00     0.023 A 
HETATM   12  C   UNK N   1      30.048  17.355   7.317  0.00  0.00     0.019 A 
BRANCH  10  13
HETATM   13  C   UNK N   1      34.096  15.821   9.628  0.00  0.00     0.202 C 
BRANCH  13  14
HETATM   14  N   UNK N   1      34.660  16.999  10.267  0.00  0.00    -0.407 N 
HETATM   15  H   UNK N   1      35.356  17.726  10.107  0.00  0.00     0.152 HD
HETATM   16  H   UNK N   1      34.212  17.146  11.171  0.00  0.00     0.152 HD
ENDBRANCH  13  14
BRANCH  13  17
HETATM   17  N   UNK N   1      33.197  15.155  10.558  0.00  0.00    -0.407 N 
HETATM   18  H   UNK N   1      32.576  14.412  10.237  0.00  0.00     0.152 HD
HETATM   19  H   UNK N   1      33.188  15.433  11.540  0.00  0.00     0.152 HD
ENDBRANCH  13  17
ENDBRANCH  10  13
ENDBRANCH   2   3
ENDBRANCH   1   2
BRANCH   1  20
HETATM   20  C   UNK N   1      25.979  17.845   4.731  0.00  0.00    -0.044 A 
HETATM   21  C   UNK N   1      25.798  16.461   4.587  0.00  0.00     0.011 A 
HETATM   22  C   UNK N   1      24.519  15.907   4.658  0.00  0.00     0.037 A 
HETATM   23  C   UNK N   1      23.414  16.728   4.893  0.00  0.00     0.069 A 
HETATM   24  C   UNK N   1      23.593  18.118   4.952  0.00  0.00     0.037 A 
HETATM   25  C   UNK N   1      24.864  18.673   4.863  0.00  0.00     0.011 A 
BRANCH  23  26
HETATM   26  O   UNK N   1      22.207  16.152   5.129  0.00  0.00    -0.344 OA
BRANCH  26  27
HETATM   27  C   UNK N   1      21.384  15.569   4.172  0.00  0.00     0.147 C 
HETATM   28  C   UNK N   1      21.511  16.213   2.813  0.00  0.00     0.053 C 
HETATM   29  C   UNK N   1      20.120  16.721   2.481  0.00  0.00     0.116 C 
HETATM   30  N   UNK N   1      19.327  16.717   3.705  0.00  0.00    -0.419 N 
HETATM   31  C   UNK N   1      19.913  15.681   4.544  0.00  0.00     0.146 C 
HETATM   32  H   UNK N   1      18.530  17.313   3.926  0.00  0.00     0.153 HD
ENDBRANCH  26  27
ENDBRANCH  23  26
ENDBRANCH   1  20
BRANCH   1  33
HETATM   33  C   UNK N   1      27.532  19.879   4.615  0.00  0.00     0.267 C 
HETATM   34  O   UNK N   1      27.426  20.297   3.472  0.00  0.00    -0.264 OA
BRANCH  33  35
HETATM   35  O   UNK N   1      27.831  20.763   5.606  0.00  0.00    -0.321 OA
BRANCH  35  36
HETATM   36  C   UNK N   1      26.967  21.722   6.084  0.00  0.00     0.174 C 
HETATM   37  C   UNK N   1      26.313  21.223   7.358  0.00  0.00     0.034 C 
ENDBRANCH  35  36
ENDBRANCH  33  35
ENDBRANCH   1  33
TORSDOF 11
ENDMDL
