MODEL 1
REMARK VINA RESULT:      -7.5      0.000      0.000
REMARK  0 active torsions:
REMARK  status: ('A' for Active; 'I' for Inactive)
ROOT
HETATM    1  C   UNK N   1      36.071   9.995  18.485  0.00  0.00     0.001 C 
HETATM    2  C   UNK N   1      36.039  10.953  19.679  0.00  0.00    -0.064 C 
HETATM    3  C   UNK N   1      37.194   8.984  18.631  0.00  0.00    -0.009 C 
HETATM    4  C   UNK N   1      36.310  10.467  20.905  0.00  0.00     0.058 C 
HETATM    5  C   UNK N   1      37.507   8.494  19.842  0.00  0.00     0.052 C 
HETATM    6  C   UNK N   1      36.930   9.132  21.042  0.00  0.00     0.171 C 
HETATM    7  C   UNK N   1      35.043  11.844  17.092  0.00  0.00    -0.004 C 
HETATM    8  C   UNK N   1      35.299  12.875  18.195  0.00  0.00     0.010 C 
HETATM    9  C   UNK N   1      36.150  10.761  17.131  0.00  0.00     0.006 C 
HETATM   10  C   UNK N   1      35.282  12.253  19.593  0.00  0.00     0.036 C 
HETATM   11  C   UNK N   1      34.804  11.522  14.561  0.00  0.00     0.021 C 
HETATM   12  C   UNK N   1      34.904  12.528  15.716  0.00  0.00     0.006 C 
HETATM   13  C   UNK N   1      35.936  10.486  14.615  0.00  0.00     0.018 C 
HETATM   14  C   UNK N   1      35.979   9.773  15.961  0.00  0.00     0.007 C 
HETATM   15  C   UNK N   1      35.060  12.419  13.406  0.00  0.00     0.135 C 
HETATM   16  C   UNK N   1      35.704  13.708  13.786  0.00  0.00     0.079 C 
HETATM   17  C   UNK N   1      36.009  13.484  15.274  0.00  0.00     0.013 C 
HETATM   18  C   UNK N   1      33.434  10.855  14.513  0.00  0.00     0.024 C 
HETATM   19  O   UNK N   1      34.914  12.074  12.243  0.00  0.00    -0.297 OA
HETATM   20  O   UNK N   1      37.033   8.604  22.137  0.00  0.00    -0.289 OA
HETATM   21  C   UNK N   1      34.766   9.190  18.551  0.00  0.00     0.025 C 
ENDROOT
TORSDOF 0
ENDMDL
MODEL 2
REMARK VINA RESULT:      -7.3     27.342     29.702
REMARK  0 active torsions:
REMARK  status: ('A' for Active; 'I' for Inactive)
ROOT
HETATM    1  C   UNK N   1      26.347  23.255  -7.788  0.00  0.00     0.001 C 
HETATM    2  C   UNK N   1      26.212  23.826  -9.201  0.00  0.00    -0.064 C 
HETATM    3  C   UNK N   1      25.587  21.947  -7.656  0.00  0.00    -0.009 C 
HETATM    4  C   UNK N   1      26.212  22.975 -10.246  0.00  0.00     0.058 C 
HETATM    5  C   UNK N   1      25.547  21.084  -8.685  0.00  0.00     0.052 C 
HETATM    6  C   UNK N   1      26.025  21.528 -10.009  0.00  0.00     0.171 C 
HETATM    7  C   UNK N   1      26.653  25.628  -6.957  0.00  0.00    -0.004 C 
HETATM    8  C   UNK N   1      26.213  26.202  -8.308  0.00  0.00     0.010 C 
HETATM    9  C   UNK N   1      25.918  24.288  -6.704  0.00  0.00     0.006 C 
HETATM   10  C   UNK N   1      26.544  25.269  -9.475  0.00  0.00     0.036 C 
HETATM   11  C   UNK N   1      26.732  26.074  -4.435  0.00  0.00     0.021 C 
HETATM   12  C   UNK N   1      26.454  26.659  -5.827  0.00  0.00     0.006 C 
HETATM   13  C   UNK N   1      25.962  24.765  -4.208  0.00  0.00     0.018 C 
HETATM   14  C   UNK N   1      26.258  23.745  -5.301  0.00  0.00     0.007 C 
HETATM   15  C   UNK N   1      26.117  27.120  -3.581  0.00  0.00     0.135 C 
HETATM   16  C   UNK N   1      25.164  28.002  -4.313  0.00  0.00     0.079 C 
HETATM   17  C   UNK N   1      25.081  27.312  -5.682  0.00  0.00     0.013 C 
HETATM   18  C   UNK N   1      28.226  25.897  -4.188  0.00  0.00     0.024 C 
HETATM   19  O   UNK N   1      26.245  27.156  -2.366  0.00  0.00    -0.297 OA
HETATM   20  O   UNK N   1      26.185  20.725 -10.914  0.00  0.00    -0.289 OA
HETATM   21  C   UNK N   1      27.830  22.901  -7.612  0.00  0.00     0.025 C 
ENDROOT
TORSDOF 0
ENDMDL
MODEL 3
REMARK VINA RESULT:      -7.3      1.296      6.256
REMARK  0 active torsions:
REMARK  status: ('A' for Active; 'I' for Inactive)
ROOT
HETATM    1  C   UNK N   1      35.129  10.884  16.561  0.00  0.00     0.001 C 
HETATM    2  C   UNK N   1      34.974  12.406  16.604  0.00  0.00    -0.064 C 
HETATM    3  C   UNK N   1      34.289  10.284  15.446  0.00  0.00    -0.009 C 
HETATM    4  C   UNK N   1      34.875  13.079  15.441  0.00  0.00     0.058 C 
HETATM    5  C   UNK N   1      34.150  10.938  14.281  0.00  0.00     0.052 C 
HETATM    6  C   UNK N   1      34.601  12.341  14.190  0.00  0.00     0.171 C 
HETATM    7  C   UNK N   1      35.627  10.956  19.043  0.00  0.00    -0.004 C 
HETATM    8  C   UNK N   1      35.171  12.416  19.134  0.00  0.00     0.010 C 
HETATM    9  C   UNK N   1      34.816  10.231  17.940  0.00  0.00     0.006 C 
HETATM   10  C   UNK N   1      35.391  13.180  17.827  0.00  0.00     0.036 C 
HETATM   11  C   UNK N   1      35.840   8.759  20.345  0.00  0.00     0.021 C 
HETATM   12  C   UNK N   1      35.544  10.264  20.419  0.00  0.00     0.006 C 
HETATM   13  C   UNK N   1      34.994   8.070  19.264  0.00  0.00     0.018 C 
HETATM   14  C   UNK N   1      35.176   8.733  17.904  0.00  0.00     0.007 C 
HETATM   15  C   UNK N   1      35.331   8.324  21.669  0.00  0.00     0.135 C 
HETATM   16  C   UNK N   1      34.410   9.308  22.305  0.00  0.00     0.079 C 
HETATM   17  C   UNK N   1      34.225  10.340  21.185  0.00  0.00     0.013 C 
HETATM   18  C   UNK N   1      37.328   8.488  20.152  0.00  0.00     0.024 C 
HETATM   19  O   UNK N   1      35.511   7.203  22.122  0.00  0.00    -0.297 OA
HETATM   20  O   UNK N   1      34.670  12.903  13.110  0.00  0.00    -0.289 OA
HETATM   21  C   UNK N   1      36.591  10.616  16.179  0.00  0.00     0.025 C 
ENDROOT
TORSDOF 0
ENDMDL
MODEL 4
REMARK VINA RESULT:      -7.3     13.594     17.662
REMARK  0 active torsions:
REMARK  status: ('A' for Active; 'I' for Inactive)
ROOT
HETATM    1  C   UNK N   1      26.057  19.108   4.302  0.00  0.00     0.001 C 
HETATM    2  C   UNK N   1      24.684  18.436   4.229  0.00  0.00    -0.064 C 
HETATM    3  C   UNK N   1      26.261  20.054   3.131  0.00  0.00    -0.009 C 
HETATM    4  C   UNK N   1      23.632  19.158   3.796  0.00  0.00     0.058 C 
HETATM    5  C   UNK N   1      25.230  20.774   2.659  0.00  0.00     0.052 C 
HETATM    6  C   UNK N   1      23.863  20.449   3.114  0.00  0.00     0.171 C 
HETATM    7  C   UNK N   1      26.886  17.071   5.558  0.00  0.00    -0.004 C 
HETATM    8  C   UNK N   1      25.615  16.289   5.212  0.00  0.00     0.010 C 
HETATM    9  C   UNK N   1      27.207  18.064   4.413  0.00  0.00     0.006 C 
HETATM   10  C   UNK N   1      24.397  17.200   5.040  0.00  0.00     0.036 C 
HETATM   11  C   UNK N   1      29.384  16.851   6.082  0.00  0.00     0.021 C 
HETATM   12  C   UNK N   1      28.052  16.115   5.885  0.00  0.00     0.006 C 
HETATM   13  C   UNK N   1      29.684  17.801   4.913  0.00  0.00     0.018 C 
HETATM   14  C   UNK N   1      28.543  18.784   4.684  0.00  0.00     0.007 C 
HETATM   15  C   UNK N   1      30.331  15.711   5.999  0.00  0.00     0.135 C 
HETATM   16  C   UNK N   1      29.745  14.497   5.365  0.00  0.00     0.079 C 
HETATM   17  C   UNK N   1      28.386  15.018   4.878  0.00  0.00     0.013 C 
HETATM   18  C   UNK N   1      29.432  17.578   7.422  0.00  0.00     0.024 C 
HETATM   19  O   UNK N   1      31.519  15.804   6.269  0.00  0.00    -0.297 OA
HETATM   20  O   UNK N   1      22.931  21.194   2.861  0.00  0.00    -0.289 OA
HETATM   21  C   UNK N   1      26.032  19.990   5.558  0.00  0.00     0.025 C 
ENDROOT
TORSDOF 0
ENDMDL
MODEL 5
REMARK VINA RESULT:      -7.3     26.760     29.131
REMARK  0 active torsions:
REMARK  status: ('A' for Active; 'I' for Inactive)
ROOT
HETATM    1  C   UNK N   1      26.415  26.412  -5.400  0.00  0.00     0.001 C 
HETATM    2  C   UNK N   1      26.563  26.032  -3.925  0.00  0.00    -0.064 C 
HETATM    3  C   UNK N   1      25.551  27.651  -5.557  0.00  0.00    -0.009 C 
HETATM    4  C   UNK N   1      26.679  27.015  -3.012  0.00  0.00     0.058 C 
HETATM    5  C   UNK N   1      25.624  28.643  -4.653  0.00  0.00     0.052 C 
HETATM    6  C   UNK N   1      26.351  28.406  -3.390  0.00  0.00     0.171 C 
HETATM    7  C   UNK N   1      26.746  23.967  -5.970  0.00  0.00    -0.004 C 
HETATM    8  C   UNK N   1      26.584  23.560  -4.501  0.00  0.00     0.010 C 
HETATM    9  C   UNK N   1      25.884  25.223  -6.254  0.00  0.00     0.006 C 
HETATM   10  C   UNK N   1      27.041  24.657  -3.537  0.00  0.00     0.036 C 
HETATM   11  C   UNK N   1      26.428  23.188  -8.390  0.00  0.00     0.021 C 
HETATM   12  C   UNK N   1      26.434  22.784  -6.909  0.00  0.00     0.006 C 
HETATM   13  C   UNK N   1      25.539  24.414  -8.638  0.00  0.00     0.018 C 
HETATM   14  C   UNK N   1      25.941  25.587  -7.751  0.00  0.00     0.007 C 
HETATM   15  C   UNK N   1      25.754  22.007  -8.984  0.00  0.00     0.135 C 
HETATM   16  C   UNK N   1      25.006  21.187  -7.990  0.00  0.00     0.079 C 
HETATM   17  C   UNK N   1      25.107  22.051  -6.726  0.00  0.00     0.013 C 
HETATM   18  C   UNK N   1      27.842  23.403  -8.919  0.00  0.00     0.024 C 
HETATM   19  O   UNK N   1      25.676  21.813 -10.188  0.00  0.00    -0.297 OA
HETATM   20  O   UNK N   1      26.603  29.331  -2.635  0.00  0.00    -0.289 OA
HETATM   21  C   UNK N   1      27.817  26.812  -5.879  0.00  0.00     0.025 C 
ENDROOT
TORSDOF 0
ENDMDL
MODEL 6
REMARK VINA RESULT:      -7.1     23.354     27.203
REMARK  0 active torsions:
REMARK  status: ('A' for Active; 'I' for Inactive)
ROOT
HETATM    1  C   UNK N   1      29.802  22.495  -5.009  0.00  0.00     0.001 C 
HETATM    2  C   UNK N   1      30.565  21.169  -5.057  0.00  0.00    -0.064 C 
HETATM    3  C   UNK N   1      29.507  22.899  -3.575  0.00  0.00    -0.009 C 
HETATM    4  C   UNK N   1      31.498  20.925  -4.117  0.00  0.00     0.058 C 
HETATM    5  C   UNK N   1      30.404  22.651  -2.607  0.00  0.00     0.052 C 
HETATM    6  C   UNK N   1      31.548  21.765  -2.902  0.00  0.00     0.171 C 
HETATM    7  C   UNK N   1      28.866  21.935  -7.294  0.00  0.00    -0.004 C 
HETATM    8  C   UNK N   1      29.379  20.494  -7.198  0.00  0.00     0.010 C 
HETATM    9  C   UNK N   1      28.510  22.451  -5.878  0.00  0.00     0.006 C 
HETATM   10  C   UNK N   1      30.640  20.380  -6.338  0.00  0.00     0.036 C 
HETATM   11  C   UNK N   1      27.049  23.431  -8.308  0.00  0.00     0.021 C 
HETATM   12  C   UNK N   1      27.698  22.039  -8.297  0.00  0.00     0.006 C 
HETATM   13  C   UNK N   1      26.681  23.894  -6.891  0.00  0.00     0.018 C 
HETATM   14  C   UNK N   1      27.886  23.858  -5.959  0.00  0.00     0.007 C 
HETATM   15  C   UNK N   1      25.789  23.130  -9.032  0.00  0.00     0.135 C 
HETATM   16  C   UNK N   1      25.451  21.679  -9.059  0.00  0.00     0.079 C 
HETATM   17  C   UNK N   1      26.516  21.087  -8.126  0.00  0.00     0.013 C 
HETATM   18  C   UNK N   1      27.925  24.453  -9.023  0.00  0.00     0.024 C 
HETATM   19  O   UNK N   1      25.017  23.992  -9.423  0.00  0.00    -0.297 OA
HETATM   20  O   UNK N   1      32.479  21.670  -2.119  0.00  0.00    -0.289 OA
HETATM   21  C   UNK N   1      30.762  23.559  -5.558  0.00  0.00     0.025 C 
ENDROOT
TORSDOF 0
ENDMDL
MODEL 7
REMARK VINA RESULT:      -7.0     27.300     29.428
REMARK  0 active torsions:
REMARK  status: ('A' for Active; 'I' for Inactive)
ROOT
HETATM    1  C   UNK N   1      26.422  26.058  -6.544  0.00  0.00     0.001 C 
HETATM    2  C   UNK N   1      26.458  24.630  -5.997  0.00  0.00    -0.064 C 
HETATM    3  C   UNK N   1      26.452  26.058  -8.063  0.00  0.00    -0.009 C 
HETATM    4  C   UNK N   1      25.780  23.668  -6.652  0.00  0.00     0.058 C 
HETATM    5  C   UNK N   1      25.805  25.102  -8.750  0.00  0.00     0.052 C 
HETATM    6  C   UNK N   1      25.290  23.924  -8.023  0.00  0.00     0.171 C 
HETATM    7  C   UNK N   1      27.532  26.813  -4.397  0.00  0.00    -0.004 C 
HETATM    8  C   UNK N   1      27.840  25.365  -3.999  0.00  0.00     0.010 C 
HETATM    9  C   UNK N   1      27.556  26.938  -5.941  0.00  0.00     0.006 C 
HETATM   10  C   UNK N   1      26.815  24.375  -4.556  0.00  0.00     0.036 C 
HETATM   11  C   UNK N   1      28.317  29.242  -4.176  0.00  0.00     0.021 C 
HETATM   12  C   UNK N   1      28.485  27.796  -3.687  0.00  0.00     0.006 C 
HETATM   13  C   UNK N   1      28.379  29.331  -5.708  0.00  0.00     0.018 C 
HETATM   14  C   UNK N   1      27.360  28.408  -6.364  0.00  0.00     0.007 C 
HETATM   15  C   UNK N   1      29.557  29.851  -3.633  0.00  0.00     0.135 C 
HETATM   16  C   UNK N   1      30.599  28.851  -3.266  0.00  0.00     0.079 C 
HETATM   17  C   UNK N   1      29.988  27.547  -3.795  0.00  0.00     0.013 C 
HETATM   18  C   UNK N   1      27.044  29.876  -3.628  0.00  0.00     0.024 C 
HETATM   19  O   UNK N   1      29.772  31.054  -3.639  0.00  0.00    -0.297 OA
HETATM   20  O   UNK N   1      24.537  23.136  -8.571  0.00  0.00    -0.289 OA
HETATM   21  C   UNK N   1      25.054  26.630  -6.150  0.00  0.00     0.025 C 
ENDROOT
TORSDOF 0
ENDMDL
MODEL 8
REMARK VINA RESULT:      -7.0     23.339     27.920
REMARK  0 active torsions:
REMARK  status: ('A' for Active; 'I' for Inactive)
ROOT
HETATM    1  C   UNK N   1      27.506  23.712  -7.200  0.00  0.00     0.001 C 
HETATM    2  C   UNK N   1      26.421  24.772  -7.000  0.00  0.00    -0.064 C 
HETATM    3  C   UNK N   1      26.987  22.556  -8.037  0.00  0.00    -0.009 C 
HETATM    4  C   UNK N   1      25.585  25.043  -8.020  0.00  0.00     0.058 C 
HETATM    5  C   UNK N   1      26.135  22.786  -9.049  0.00  0.00     0.052 C 
HETATM    6  C   UNK N   1      25.517  24.121  -9.174  0.00  0.00     0.171 C 
HETATM    7  C   UNK N   1      28.513  24.459  -4.999  0.00  0.00    -0.004 C 
HETATM    8  C   UNK N   1      27.269  25.288  -4.664  0.00  0.00     0.010 C 
HETATM    9  C   UNK N   1      28.099  23.228  -5.844  0.00  0.00     0.006 C 
HETATM   10  C   UNK N   1      26.558  25.808  -5.915  0.00  0.00     0.036 C 
HETATM   11  C   UNK N   1      30.458  23.128  -3.993  0.00  0.00     0.021 C 
HETATM   12  C   UNK N   1      29.294  24.091  -3.721  0.00  0.00     0.006 C 
HETATM   13  C   UNK N   1      30.003  21.906  -4.803  0.00  0.00     0.018 C 
HETATM   14  C   UNK N   1      29.316  22.317  -6.100  0.00  0.00     0.007 C 
HETATM   15  C   UNK N   1      30.757  22.676  -2.612  0.00  0.00     0.135 C 
HETATM   16  C   UNK N   1      29.648  22.931  -1.650  0.00  0.00     0.079 C 
HETATM   17  C   UNK N   1      28.530  23.425  -2.578  0.00  0.00     0.013 C 
HETATM   18  C   UNK N   1      31.630  23.839  -4.661  0.00  0.00     0.024 C 
HETATM   19  O   UNK N   1      31.740  22.010  -2.321  0.00  0.00    -0.297 OA
HETATM   20  O   UNK N   1      24.895  24.426 -10.178  0.00  0.00    -0.289 OA
HETATM   21  C   UNK N   1      28.604  24.381  -8.038  0.00  0.00     0.025 C 
ENDROOT
TORSDOF 0
ENDMDL
MODEL 9
REMARK VINA RESULT:      -6.9     10.014     13.684
REMARK  0 active torsions:
REMARK  status: ('A' for Active; 'I' for Inactive)
ROOT
HETATM    1  C   UNK N   1      32.024  16.812   7.547  0.00  0.00     0.001 C 
HETATM    2  C   UNK N   1      33.322  16.840   6.738  0.00  0.00    -0.064 C 
HETATM    3  C   UNK N   1      32.103  15.786   8.665  0.00  0.00    -0.009 C 
HETATM    4  C   UNK N   1      34.493  16.687   7.387  0.00  0.00     0.058 C 
HETATM    5  C   UNK N   1      33.260  15.591   9.319  0.00  0.00     0.052 C 
HETATM    6  C   UNK N   1      34.497  16.188   8.778  0.00  0.00     0.171 C 
HETATM    7  C   UNK N   1      30.815  17.595   5.464  0.00  0.00    -0.004 C 
HETATM    8  C   UNK N   1      32.049  17.325   4.596  0.00  0.00     0.010 C 
HETATM    9  C   UNK N   1      30.780  16.585   6.638  0.00  0.00     0.006 C 
HETATM   10  C   UNK N   1      33.357  17.481   5.375  0.00  0.00     0.036 C 
HETATM   11  C   UNK N   1      28.255  17.701   5.463  0.00  0.00     0.021 C 
HETATM   12  C   UNK N   1      29.529  17.592   4.613  0.00  0.00     0.006 C 
HETATM   13  C   UNK N   1      28.241  16.663   6.595  0.00  0.00     0.018 C 
HETATM   14  C   UNK N   1      29.490  16.763   7.462  0.00  0.00     0.007 C 
HETATM   15  C   UNK N   1      27.234  17.300   4.463  0.00  0.00     0.135 C 
HETATM   16  C   UNK N   1      27.803  16.578   3.290  0.00  0.00     0.079 C 
HETATM   17  C   UNK N   1      29.265  16.387   3.713  0.00  0.00     0.013 C 
HETATM   18  C   UNK N   1      28.054  19.115   5.995  0.00  0.00     0.024 C 
HETATM   19  O   UNK N   1      26.031  17.400   4.654  0.00  0.00    -0.297 OA
HETATM   20  O   UNK N   1      35.523  16.197   9.438  0.00  0.00    -0.289 OA
HETATM   21  C   UNK N   1      31.922  18.180   8.236  0.00  0.00     0.025 C 
ENDROOT
TORSDOF 0
ENDMDL
