MODEL 1
REMARK VINA RESULT:      -7.2      0.000      0.000
REMARK  9 active torsions:
REMARK  status: ('A' for Active; 'I' for Inactive)
REMARK    1  A    between atoms: C_8  and  C_6 
REMARK    2  A    between atoms: C_17  and  C_6 
REMARK    3  A    between atoms: N_27  and  C_8 
REMARK    4  A    between atoms: C_10  and  C_9 
REMARK    5  A    between atoms: N_25  and  C_9 
REMARK    6  A    between atoms: N_30  and  C_10 
REMARK    7  A    between atoms: C_15  and  C_12 
REMARK    8  A    between atoms: N_25  and  C_12 
REMARK    9  A    between atoms: O_31  and  C_22 
ROOT
HETATM    1  C   UNK N   1      37.980  13.081   9.893  0.00  0.00     0.173 C 
HETATM    2  C   UNK N   1      36.715  12.382   9.394  0.00  0.00     0.339 C 
HETATM    3  C   UNK N   1      36.908  13.174  12.136  0.00  0.00     0.133 C 
HETATM    4  C   UNK N   1      35.648  12.526  11.585  0.00  0.00     0.426 C 
HETATM    5 Cl   UNK N   1      36.565  12.769   7.654  0.00  0.00    -0.090 Cl
HETATM    6  N   UNK N   1      36.980  13.794  13.270  0.00  0.00    -0.376 N 
ATOM      7  HN  UNK N   1      37.890  14.169  13.534  1.00  0.00     0.160 HD
HETATM    8  N   UNK N   1      38.072  13.124  11.335  0.00  0.00    -0.373 N 
HETATM    9  N   UNK N   1      35.519  12.835  10.146  0.00  0.00     0.146 N 
HETATM   10  H   UNK N   1      38.957  13.121  11.765  0.00  0.00     0.161 HD
ENDROOT
BRANCH   9  11
HETATM   11  C   UNK N   1      34.256  12.293   9.597  0.00  0.00     0.297 C 
BRANCH  11  12
HETATM   12  C   UNK N   1      33.310  13.338   8.997  0.00  0.00     0.144 C 
BRANCH  12  13
HETATM   13  N   UNK N   1      33.000  14.383   9.959  0.00  0.00    -0.416 N 
HETATM   14  H   UNK N   1      33.393  14.487  10.895  0.00  0.00     0.153 HD
BRANCH  13  15
HETATM   15  C   UNK N   1      32.022  15.253   9.328  0.00  0.00     0.154 C 
BRANCH  15  16
HETATM   16  C   UNK N   1      32.729  16.251   8.482  0.00  0.00    -0.023 A 
HETATM   17  C   UNK N   1      33.723  17.111   8.988  0.00  0.00     0.060 A 
HETATM   18  S   UNK N   1      34.261  18.000   7.679  0.00  0.00    -0.101 SA
HETATM   19  C   UNK N   1      33.309  17.353   6.496  0.00  0.00     0.015 A 
HETATM   20  C   UNK N   1      33.260  17.636   5.137  0.00  0.00     0.021 A 
HETATM   21  C   UNK N   1      32.501  16.394   7.087  0.00  0.00    -0.009 A 
HETATM   22  C   UNK N   1      32.350  16.912   4.350  0.00  0.00     0.025 A 
HETATM   23  C   UNK N   1      31.518  15.934   4.936  0.00  0.00     0.035 A 
HETATM   24  C   UNK N   1      31.592  15.668   6.314  0.00  0.00     0.037 A 
HETATM   25 Cl   UNK N   1      30.387  15.044   3.939  0.00  0.00    -0.084 Cl
ENDBRANCH  15  16
ENDBRANCH  13  15
ENDBRANCH  12  13
ENDBRANCH  11  12
ENDBRANCH   9  11
BRANCH   4  26
HETATM   26  O   UNK N   1      34.483  12.898  12.265  0.00  0.00    -0.362 OA
HETATM   27  H   UNK N   1      34.334  13.623  12.891  0.00  0.00     0.212 HD
ENDBRANCH   4  26
BRANCH   6  28
HETATM   28  C   UNK N   1      35.894  14.005  14.193  0.00  0.00     0.123 C 
BRANCH  28  29
HETATM   29  C   UNK N   1      36.322  13.612  15.614  0.00  0.00     0.044 C 
BRANCH  29  30
HETATM   30  C   UNK N   1      36.024  12.158  15.999  0.00  0.00     0.078 C 
HETATM   31  C   UNK N   1      35.407  12.096  17.403  0.00  0.00     0.025 C 
HETATM   32  C   UNK N   1      35.134  10.651  17.835  0.00  0.00     0.004 C 
HETATM   33  C   UNK N   1      34.912   9.707  16.651  0.00  0.00     0.019 C 
HETATM   34  C   UNK N   1      34.291  10.458  15.479  0.00  0.00     0.114 C 
HETATM   35  N   UNK N   1      35.167  11.528  14.975  0.00  0.00    -0.417 N 
HETATM   36  H   UNK N   1      35.182  11.811  13.996  0.00  0.00     0.153 HD
ENDBRANCH  29  30
ENDBRANCH  28  29
ENDBRANCH   6  28
TORSDOF 9
ENDMDL
MODEL 2
REMARK VINA RESULT:      -7.1      7.716     11.298
REMARK  9 active torsions:
REMARK  status: ('A' for Active; 'I' for Inactive)
REMARK    1  A    between atoms: C_8  and  C_6 
REMARK    2  A    between atoms: C_17  and  C_6 
REMARK    3  A    between atoms: N_27  and  C_8 
REMARK    4  A    between atoms: C_10  and  C_9 
REMARK    5  A    between atoms: N_25  and  C_9 
REMARK    6  A    between atoms: N_30  and  C_10 
REMARK    7  A    between atoms: C_15  and  C_12 
REMARK    8  A    between atoms: N_25  and  C_12 
REMARK    9  A    between atoms: O_31  and  C_22 
ROOT
HETATM    1  C   UNK N   1      26.644  20.795   5.600  0.00  0.00     0.173 C 
HETATM    2  C   UNK N   1      26.863  19.702   4.553  0.00  0.00     0.339 C 
HETATM    3  C   UNK N   1      27.733  19.280   7.245  0.00  0.00     0.133 C 
HETATM    4  C   UNK N   1      27.880  18.199   6.186  0.00  0.00     0.426 C 
HETATM    5 Cl   UNK N   1      25.569  19.893   3.332  0.00  0.00    -0.090 Cl
HETATM    6  N   UNK N   1      27.849  19.081   8.519  0.00  0.00    -0.376 N 
ATOM      7  HN  UNK N   1      27.746  19.894   9.125  1.00  0.00     0.160 HD
HETATM    8  N   UNK N   1      27.412  20.585   6.807  0.00  0.00    -0.373 N 
HETATM    9  N   UNK N   1      26.820  18.353   5.169  0.00  0.00     0.146 N 
HETATM   10  H   UNK N   1      27.713  21.361   7.332  0.00  0.00     0.161 HD
ENDROOT
BRANCH   9  11
HETATM   11  C   UNK N   1      26.880  17.263   4.169  0.00  0.00     0.297 C 
BRANCH  11  12
HETATM   12  C   UNK N   1      25.692  16.296   4.195  0.00  0.00     0.144 C 
BRANCH  12  13
HETATM   13  N   UNK N   1      24.896  16.470   5.399  0.00  0.00    -0.416 N 
HETATM   14  H   UNK N   1      25.081  17.120   6.163  0.00  0.00     0.153 HD
BRANCH  13  15
HETATM   15  C   UNK N   1      23.784  15.539   5.300  0.00  0.00     0.154 C 
BRANCH  15  16
HETATM   16  C   UNK N   1      22.661  16.029   6.143  0.00  0.00    -0.023 A 
HETATM   17  C   UNK N   1      21.964  17.221   5.865  0.00  0.00     0.060 A 
HETATM   18  S   UNK N   1      20.772  17.329   7.032  0.00  0.00    -0.101 SA
HETATM   19  C   UNK N   1      21.081  15.943   7.873  0.00  0.00     0.015 A 
HETATM   20  C   UNK N   1      20.431  15.406   8.976  0.00  0.00     0.021 A 
HETATM   21  C   UNK N   1      22.163  15.320   7.269  0.00  0.00    -0.009 A 
HETATM   22  C   UNK N   1      20.905  14.186   9.487  0.00  0.00     0.025 A 
HETATM   23  C   UNK N   1      22.007  13.541   8.886  0.00  0.00     0.035 A 
HETATM   24  C   UNK N   1      22.643  14.108   7.768  0.00  0.00     0.037 A 
HETATM   25 Cl   UNK N   1      22.586  12.023   9.537  0.00  0.00    -0.084 Cl
ENDBRANCH  15  16
ENDBRANCH  13  15
ENDBRANCH  12  13
ENDBRANCH  11  12
ENDBRANCH   9  11
BRANCH   4  26
HETATM   26  O   UNK N   1      27.867  16.900   6.705  0.00  0.00    -0.362 OA
HETATM   27  H   UNK N   1      27.333  16.523   7.421  0.00  0.00     0.212 HD
ENDBRANCH   4  26
BRANCH   6  28
HETATM   28  C   UNK N   1      28.110  17.818   9.161  0.00  0.00     0.123 C 
BRANCH  28  29
HETATM   29  C   UNK N   1      29.529  17.802   9.745  0.00  0.00     0.044 C 
BRANCH  29  30
HETATM   30  C   UNK N   1      30.582  17.124   8.861  0.00  0.00     0.078 C 
HETATM   31  C   UNK N   1      31.630  18.147   8.403  0.00  0.00     0.025 C 
HETATM   32  C   UNK N   1      32.677  17.509   7.483  0.00  0.00     0.004 C 
HETATM   33  C   UNK N   1      32.849  16.009   7.727  0.00  0.00     0.019 C 
HETATM   34  C   UNK N   1      32.567  15.669   9.186  0.00  0.00     0.114 C 
HETATM   35  N   UNK N   1      31.182  15.978   9.572  0.00  0.00    -0.417 N 
HETATM   36  H   UNK N   1      30.674  15.442  10.277  0.00  0.00     0.153 HD
ENDBRANCH  29  30
ENDBRANCH  28  29
ENDBRANCH   6  28
TORSDOF 9
ENDMDL
MODEL 3
REMARK VINA RESULT:      -7.1      3.956      9.989
REMARK  9 active torsions:
REMARK  status: ('A' for Active; 'I' for Inactive)
REMARK    1  A    between atoms: C_8  and  C_6 
REMARK    2  A    between atoms: C_17  and  C_6 
REMARK    3  A    between atoms: N_27  and  C_8 
REMARK    4  A    between atoms: C_10  and  C_9 
REMARK    5  A    between atoms: N_25  and  C_9 
REMARK    6  A    between atoms: N_30  and  C_10 
REMARK    7  A    between atoms: C_15  and  C_12 
REMARK    8  A    between atoms: N_25  and  C_12 
REMARK    9  A    between atoms: O_31  and  C_22 
ROOT
HETATM    1  C   UNK N   1      36.789  13.543   9.217  0.00  0.00     0.173 C 
HETATM    2  C   UNK N   1      36.658  13.560  10.740  0.00  0.00     0.339 C 
HETATM    3  C   UNK N   1      34.786  15.018   9.142  0.00  0.00     0.133 C 
HETATM    4  C   UNK N   1      34.661  14.961  10.656  0.00  0.00     0.426 C 
HETATM    5 Cl   UNK N   1      37.355  12.023  11.333  0.00  0.00    -0.090 Cl
HETATM    6  N   UNK N   1      33.852  15.419   8.342  0.00  0.00    -0.376 N 
ATOM      7  HN  UNK N   1      34.068  15.427   7.345  1.00  0.00     0.160 HD
HETATM    8  N   UNK N   1      35.997  14.565   8.569  0.00  0.00    -0.373 N 
HETATM    9  N   UNK N   1      35.240  13.697  11.155  0.00  0.00     0.146 N 
HETATM   10  H   UNK N   1      36.304  14.951   7.718  0.00  0.00     0.161 HD
ENDROOT
BRANCH   9  11
HETATM   11  C   UNK N   1      35.056  13.569  12.619  0.00  0.00     0.297 C 
BRANCH  11  12
HETATM   12  C   UNK N   1      36.121  14.271  13.468  0.00  0.00     0.144 C 
BRANCH  12  13
HETATM   13  N   UNK N   1      36.506  13.458  14.610  0.00  0.00    -0.416 N 
HETATM   14  H   UNK N   1      37.374  13.525  15.142  0.00  0.00     0.153 HD
BRANCH  13  15
HETATM   15  C   UNK N   1      35.412  12.531  14.848  0.00  0.00     0.154 C 
BRANCH  15  16
HETATM   16  C   UNK N   1      35.903  11.399  15.678  0.00  0.00    -0.023 A 
HETATM   17  C   UNK N   1      36.544  10.273  15.127  0.00  0.00     0.060 A 
HETATM   18  S   UNK N   1      36.960   9.308  16.427  0.00  0.00    -0.101 SA
HETATM   19  C   UNK N   1      36.378  10.239  17.660  0.00  0.00     0.015 A 
HETATM   20  C   UNK N   1      36.413  10.026  19.031  0.00  0.00     0.021 A 
HETATM   21  C   UNK N   1      35.810  11.372  17.095  0.00  0.00    -0.009 A 
HETATM   22  C   UNK N   1      35.845  11.007  19.862  0.00  0.00     0.025 A 
HETATM   23  C   UNK N   1      35.261  12.164  19.304  0.00  0.00     0.035 A 
HETATM   24  C   UNK N   1      35.243  12.354  17.911  0.00  0.00     0.037 A 
HETATM   25 Cl   UNK N   1      34.556  13.374  20.354  0.00  0.00    -0.084 Cl
ENDBRANCH  15  16
ENDBRANCH  13  15
ENDBRANCH  12  13
ENDBRANCH  11  12
ENDBRANCH   9  11
BRANCH   4  26
HETATM   26  O   UNK N   1      33.347  15.105  11.116  0.00  0.00    -0.362 OA
HETATM   27  H   UNK N   1      32.556  15.415  10.648  0.00  0.00     0.212 HD
ENDBRANCH   4  26
BRANCH   6  28
HETATM   28  C   UNK N   1      32.533  15.856   8.726  0.00  0.00     0.123 C 
BRANCH  28  29
HETATM   29  C   UNK N   1      32.258  17.261   8.174  0.00  0.00     0.044 C 
BRANCH  29  30
HETATM   30  C   UNK N   1      30.832  17.776   8.405  0.00  0.00     0.078 C 
HETATM   31  C   UNK N   1      29.894  17.254   7.307  0.00  0.00     0.025 C 
HETATM   32  C   UNK N   1      28.467  17.784   7.485  0.00  0.00     0.004 C 
HETATM   33  C   UNK N   1      28.137  18.129   8.939  0.00  0.00     0.019 C 
HETATM   34  C   UNK N   1      28.920  17.232   9.891  0.00  0.00     0.114 C 
HETATM   35  N   UNK N   1      30.373  17.413   9.760  0.00  0.00    -0.417 N 
HETATM   36  H   UNK N   1      31.015  17.298  10.545  0.00  0.00     0.153 HD
ENDBRANCH  29  30
ENDBRANCH  28  29
ENDBRANCH   6  28
TORSDOF 9
ENDMDL
MODEL 4
REMARK VINA RESULT:      -7.0      2.115      2.698
REMARK  9 active torsions:
REMARK  status: ('A' for Active; 'I' for Inactive)
REMARK    1  A    between atoms: C_8  and  C_6 
REMARK    2  A    between atoms: C_17  and  C_6 
REMARK    3  A    between atoms: N_27  and  C_8 
REMARK    4  A    between atoms: C_10  and  C_9 
REMARK    5  A    between atoms: N_25  and  C_9 
REMARK    6  A    between atoms: N_30  and  C_10 
REMARK    7  A    between atoms: C_15  and  C_12 
REMARK    8  A    between atoms: N_25  and  C_12 
REMARK    9  A    between atoms: O_31  and  C_22 
ROOT
HETATM    1  C   UNK N   1      34.724  12.174  10.506  0.00  0.00     0.173 C 
HETATM    2  C   UNK N   1      35.004  13.626  10.113  0.00  0.00     0.339 C 
HETATM    3  C   UNK N   1      35.086  12.862  12.869  0.00  0.00     0.133 C 
HETATM    4  C   UNK N   1      35.412  14.280  12.430  0.00  0.00     0.426 C 
HETATM    5 Cl   UNK N   1      35.669  13.591   8.453  0.00  0.00    -0.090 Cl
HETATM    6  N   UNK N   1      35.356  12.374  14.037  0.00  0.00    -0.376 N 
ATOM      7  HN  UNK N   1      35.068  11.412  14.214  1.00  0.00     0.160 HD
HETATM    8  N   UNK N   1      34.479  12.007  11.921  0.00  0.00    -0.373 N 
HETATM    9  N   UNK N   1      35.956  14.262  11.057  0.00  0.00     0.146 N 
HETATM   10  H   UNK N   1      33.882  11.288  12.228  0.00  0.00     0.161 HD
ENDROOT
BRANCH   9  11
HETATM   11  C   UNK N   1      36.367  15.619  10.629  0.00  0.00     0.297 C 
BRANCH  11  12
HETATM   12  C   UNK N   1      35.274  16.688  10.735  0.00  0.00     0.144 C 
BRANCH  12  13
HETATM   13  N   UNK N   1      34.922  17.214   9.426  0.00  0.00    -0.416 N 
HETATM   14  H   UNK N   1      35.524  17.753   8.804  0.00  0.00     0.153 HD
BRANCH  13  15
HETATM   15  C   UNK N   1      33.545  16.820   9.176  0.00  0.00     0.154 C 
BRANCH  15  16
HETATM   16  C   UNK N   1      33.254  16.957   7.724  0.00  0.00    -0.023 A 
HETATM   17  C   UNK N   1      34.257  16.898   6.737  0.00  0.00     0.060 A 
HETATM   18  S   UNK N   1      33.460  17.043   5.275  0.00  0.00    -0.101 SA
HETATM   19  C   UNK N   1      31.906  17.171   5.818  0.00  0.00     0.015 A 
HETATM   20  C   UNK N   1      30.721  17.300   5.106  0.00  0.00     0.021 A 
HETATM   21  C   UNK N   1      31.941  17.112   7.203  0.00  0.00    -0.009 A 
HETATM   22  C   UNK N   1      29.523  17.374   5.836  0.00  0.00     0.025 A 
HETATM   23  C   UNK N   1      29.541  17.320   7.246  0.00  0.00     0.035 A 
HETATM   24  C   UNK N   1      30.757  17.186   7.939  0.00  0.00     0.037 A 
HETATM   25 Cl   UNK N   1      28.039  17.417   8.139  0.00  0.00    -0.084 Cl
ENDBRANCH  15  16
ENDBRANCH  13  15
ENDBRANCH  12  13
ENDBRANCH  11  12
ENDBRANCH   9  11
BRANCH   4  26
HETATM   26  O   UNK N   1      36.293  14.945  13.290  0.00  0.00    -0.362 OA
HETATM   27  H   UNK N   1      37.254  15.057  13.229  0.00  0.00     0.212 HD
ENDBRANCH   4  26
BRANCH   6  28
HETATM   28  C   UNK N   1      36.025  13.062  15.112  0.00  0.00     0.123 C 
BRANCH  28  29
HETATM   29  C   UNK N   1      35.154  13.048  16.375  0.00  0.00     0.044 C 
BRANCH  29  30
HETATM   30  C   UNK N   1      35.582  12.032  17.441  0.00  0.00     0.078 C 
HETATM   31  C   UNK N   1      35.151  12.511  18.835  0.00  0.00     0.025 C 
HETATM   32  C   UNK N   1      35.600  11.537  19.929  0.00  0.00     0.004 C 
HETATM   33  C   UNK N   1      35.764  10.104  19.420  0.00  0.00     0.019 C 
HETATM   34  C   UNK N   1      34.796   9.830  18.275  0.00  0.00     0.114 C 
HETATM   35  N   UNK N   1      35.049  10.695  17.113  0.00  0.00    -0.417 N 
HETATM   36  H   UNK N   1      34.871  10.395  16.154  0.00  0.00     0.153 HD
ENDBRANCH  29  30
ENDBRANCH  28  29
ENDBRANCH   6  28
TORSDOF 9
ENDMDL
MODEL 5
REMARK VINA RESULT:      -6.9      2.150      2.911
REMARK  9 active torsions:
REMARK  status: ('A' for Active; 'I' for Inactive)
REMARK    1  A    between atoms: C_8  and  C_6 
REMARK    2  A    between atoms: C_17  and  C_6 
REMARK    3  A    between atoms: N_27  and  C_8 
REMARK    4  A    between atoms: C_10  and  C_9 
REMARK    5  A    between atoms: N_25  and  C_9 
REMARK    6  A    between atoms: N_30  and  C_10 
REMARK    7  A    between atoms: C_15  and  C_12 
REMARK    8  A    between atoms: N_25  and  C_12 
REMARK    9  A    between atoms: O_31  and  C_22 
ROOT
HETATM    1  C   UNK N   1      37.444  11.803  10.347  0.00  0.00     0.173 C 
HETATM    2  C   UNK N   1      36.826  13.191  10.169  0.00  0.00     0.339 C 
HETATM    3  C   UNK N   1      35.496  11.245  11.790  0.00  0.00     0.133 C 
HETATM    4  C   UNK N   1      34.946  12.653  11.631  0.00  0.00     0.426 C 
HETATM    5 Cl   UNK N   1      38.178  14.321   9.863  0.00  0.00    -0.090 Cl
HETATM    6  N   UNK N   1      35.114  10.405  12.698  0.00  0.00    -0.376 N 
ATOM      7  HN  UNK N   1      35.549   9.482  12.687  1.00  0.00     0.160 HD
HETATM    8  N   UNK N   1      36.522  10.840  10.906  0.00  0.00    -0.373 N 
HETATM    9  N   UNK N   1      36.056  13.593  11.372  0.00  0.00     0.146 N 
HETATM   10  H   UNK N   1      36.611   9.889  10.669  0.00  0.00     0.161 HD
ENDROOT
BRANCH   9  11
HETATM   11  C   UNK N   1      35.565  14.988  11.298  0.00  0.00     0.297 C 
BRANCH  11  12
HETATM   12  C   UNK N   1      34.559  15.261  10.175  0.00  0.00     0.144 C 
BRANCH  12  13
HETATM   13  N   UNK N   1      35.170  16.014   9.091  0.00  0.00    -0.416 N 
HETATM   14  H   UNK N   1      35.988  15.743   8.545  0.00  0.00     0.153 HD
BRANCH  13  15
HETATM   15  C   UNK N   1      34.387  17.228   8.937  0.00  0.00     0.154 C 
BRANCH  15  16
HETATM   16  C   UNK N   1      33.650  17.174   7.646  0.00  0.00    -0.023 A 
HETATM   17  C   UNK N   1      34.291  16.947   6.412  0.00  0.00     0.060 A 
HETATM   18  S   UNK N   1      33.072  16.915   5.270  0.00  0.00    -0.101 SA
HETATM   19  C   UNK N   1      31.767  17.166   6.250  0.00  0.00     0.015 A 
HETATM   20  C   UNK N   1      30.416  17.234   5.936  0.00  0.00     0.021 A 
HETATM   21  C   UNK N   1      32.239  17.298   7.547  0.00  0.00    -0.009 A 
HETATM   22  C   UNK N   1      29.509  17.447   6.987  0.00  0.00     0.025 A 
HETATM   23  C   UNK N   1      29.972  17.586   8.313  0.00  0.00     0.035 A 
HETATM   24  C   UNK N   1      31.346  17.510   8.600  0.00  0.00     0.037 A 
HETATM   25 Cl   UNK N   1      28.828  17.853   9.610  0.00  0.00    -0.084 Cl
ENDBRANCH  15  16
ENDBRANCH  13  15
ENDBRANCH  12  13
ENDBRANCH  11  12
ENDBRANCH   9  11
BRANCH   4  26
HETATM   26  O   UNK N   1      34.191  13.087  12.725  0.00  0.00    -0.362 OA
HETATM   27  H   UNK N   1      33.927  12.608  13.527  0.00  0.00     0.212 HD
ENDBRANCH   4  26
BRANCH   6  28
HETATM   28  C   UNK N   1      34.133  10.650  13.724  0.00  0.00     0.123 C 
BRANCH  28  29
HETATM   29  C   UNK N   1      34.742  10.404  15.111  0.00  0.00     0.044 C 
BRANCH  29  30
HETATM   30  C   UNK N   1      34.716  11.616  16.050  0.00  0.00     0.078 C 
HETATM   31  C   UNK N   1      35.315  11.244  17.414  0.00  0.00     0.025 C 
HETATM   32  C   UNK N   1      35.267  12.423  18.391  0.00  0.00     0.004 C 
HETATM   33  C   UNK N   1      35.267  13.781  17.687  0.00  0.00     0.019 C 
HETATM   34  C   UNK N   1      36.028  13.699  16.369  0.00  0.00     0.114 C 
HETATM   35  N   UNK N   1      35.406  12.761  15.423  0.00  0.00    -0.417 N 
HETATM   36  H   UNK N   1      35.446  12.890  14.412  0.00  0.00     0.153 HD
ENDBRANCH  29  30
ENDBRANCH  28  29
ENDBRANCH   6  28
TORSDOF 9
ENDMDL
MODEL 6
REMARK VINA RESULT:      -6.8      4.456     10.469
REMARK  9 active torsions:
REMARK  status: ('A' for Active; 'I' for Inactive)
REMARK    1  A    between atoms: C_8  and  C_6 
REMARK    2  A    between atoms: C_17  and  C_6 
REMARK    3  A    between atoms: N_27  and  C_8 
REMARK    4  A    between atoms: C_10  and  C_9 
REMARK    5  A    between atoms: N_25  and  C_9 
REMARK    6  A    between atoms: N_30  and  C_10 
REMARK    7  A    between atoms: C_15  and  C_12 
REMARK    8  A    between atoms: N_25  and  C_12 
REMARK    9  A    between atoms: O_31  and  C_22 
ROOT
HETATM    1  C   UNK N   1      32.944  14.166   6.321  0.00  0.00     0.173 C 
HETATM    2  C   UNK N   1      34.008  14.584   7.337  0.00  0.00     0.339 C 
HETATM    3  C   UNK N   1      31.624  16.141   7.060  0.00  0.00     0.133 C 
HETATM    4  C   UNK N   1      32.681  16.488   8.096  0.00  0.00     0.426 C 
HETATM    5 Cl   UNK N   1      34.860  13.091   7.832  0.00  0.00    -0.090 Cl
HETATM    6  N   UNK N   1      30.421  16.618   7.050  0.00  0.00    -0.376 N 
ATOM      7  HN  UNK N   1      29.811  16.320   6.288  1.00  0.00     0.160 HD
HETATM    8  N   UNK N   1      31.970  15.203   6.061  0.00  0.00    -0.373 N 
HETATM    9  N   UNK N   1      33.395  15.262   8.506  0.00  0.00     0.146 N 
HETATM   10  H   UNK N   1      31.543  15.257   5.176  0.00  0.00     0.161 HD
ENDROOT
BRANCH   9  11
HETATM   11  C   UNK N   1      34.373  15.550   9.579  0.00  0.00     0.297 C 
BRANCH  11  12
HETATM   12  C   UNK N   1      34.122  14.812  10.898  0.00  0.00     0.144 C 
BRANCH  12  13
HETATM   13  N   UNK N   1      35.234  13.936  11.233  0.00  0.00    -0.416 N 
HETATM   14  H   UNK N   1      35.817  13.415  10.579  0.00  0.00     0.153 HD
BRANCH  13  15
HETATM   15  C   UNK N   1      35.352  13.949  12.681  0.00  0.00     0.154 C 
BRANCH  15  16
HETATM   16  C   UNK N   1      35.105  12.579  13.204  0.00  0.00    -0.023 A 
HETATM   17  C   UNK N   1      34.959  11.458  12.364  0.00  0.00     0.060 A 
HETATM   18  S   UNK N   1      34.757  10.151  13.386  0.00  0.00    -0.101 SA
HETATM   19  C   UNK N   1      34.851  10.922  14.843  0.00  0.00     0.015 A 
HETATM   20  C   UNK N   1      34.781  10.407  16.130  0.00  0.00     0.021 A 
HETATM   21  C   UNK N   1      35.041  12.272  14.590  0.00  0.00    -0.009 A 
HETATM   22  C   UNK N   1      34.907  11.304  17.203  0.00  0.00     0.025 A 
HETATM   23  C   UNK N   1      35.098  12.682  16.963  0.00  0.00     0.035 A 
HETATM   24  C   UNK N   1      35.168  13.174  15.648  0.00  0.00     0.037 A 
HETATM   25 Cl   UNK N   1      35.252  13.786  18.313  0.00  0.00    -0.084 Cl
ENDBRANCH  15  16
ENDBRANCH  13  15
ENDBRANCH  12  13
ENDBRANCH  11  12
ENDBRANCH   9  11
BRANCH   4  26
HETATM   26  O   UNK N   1      32.171  17.149   9.218  0.00  0.00    -0.362 OA
HETATM   27  H   UNK N   1      32.632  17.661   9.900  0.00  0.00     0.212 HD
ENDBRANCH   4  26
BRANCH   6  28
HETATM   28  C   UNK N   1      29.860  17.531   8.013  0.00  0.00     0.123 C 
BRANCH  28  29
HETATM   29  C   UNK N   1      28.395  17.833   7.669  0.00  0.00     0.044 C 
BRANCH  29  30
HETATM   30  C   UNK N   1      28.137  19.246   7.132  0.00  0.00     0.078 C 
HETATM   31  C   UNK N   1      27.789  19.191   5.638  0.00  0.00     0.025 C 
HETATM   32  C   UNK N   1      27.565  20.592   5.059  0.00  0.00     0.004 C 
HETATM   33  C   UNK N   1      27.106  21.604   6.110  0.00  0.00     0.019 C 
HETATM   34  C   UNK N   1      26.298  20.911   7.202  0.00  0.00     0.114 C 
HETATM   35  N   UNK N   1      27.091  19.912   7.933  0.00  0.00    -0.417 N 
HETATM   36  H   UNK N   1      26.932  19.695   8.917  0.00  0.00     0.153 HD
ENDBRANCH  29  30
ENDBRANCH  28  29
ENDBRANCH   6  28
TORSDOF 9
ENDMDL
MODEL 7
REMARK VINA RESULT:      -6.8      3.328      5.073
REMARK  9 active torsions:
REMARK  status: ('A' for Active; 'I' for Inactive)
REMARK    1  A    between atoms: C_8  and  C_6 
REMARK    2  A    between atoms: C_17  and  C_6 
REMARK    3  A    between atoms: N_27  and  C_8 
REMARK    4  A    between atoms: C_10  and  C_9 
REMARK    5  A    between atoms: N_25  and  C_9 
REMARK    6  A    between atoms: N_30  and  C_10 
REMARK    7  A    between atoms: C_15  and  C_12 
REMARK    8  A    between atoms: N_25  and  C_12 
REMARK    9  A    between atoms: O_31  and  C_22 
ROOT
HETATM    1  C   UNK N   1      34.240  18.299   7.932  0.00  0.00     0.173 C 
HETATM    2  C   UNK N   1      34.200  17.169   6.902  0.00  0.00     0.339 C 
HETATM    3  C   UNK N   1      34.858  16.582   9.623  0.00  0.00     0.133 C 
HETATM    4  C   UNK N   1      34.752  15.483   8.579  0.00  0.00     0.426 C 
HETATM    5 Cl   UNK N   1      33.032  17.666   5.641  0.00  0.00    -0.090 Cl
HETATM    6  N   UNK N   1      34.884  16.381  10.901  0.00  0.00    -0.376 N 
ATOM      7  HN  UNK N   1      34.977  17.203  11.497  1.00  0.00     0.160 HD
HETATM    8  N   UNK N   1      34.895  17.918   9.164  0.00  0.00    -0.373 N 
HETATM    9  N   UNK N   1      33.794  15.887   7.529  0.00  0.00     0.146 N 
HETATM   10  H   UNK N   1      35.371  18.599   9.691  0.00  0.00     0.161 HD
ENDROOT
BRANCH   9  11
HETATM   11  C   UNK N   1      33.600  14.802   6.540  0.00  0.00     0.297 C 
BRANCH  11  12
HETATM   12  C   UNK N   1      32.162  14.285   6.422  0.00  0.00     0.144 C 
BRANCH  12  13
HETATM   13  N   UNK N   1      31.456  14.934   5.330  0.00  0.00    -0.416 N 
HETATM   14  H   UNK N   1      31.872  15.472   4.569  0.00  0.00     0.153 HD
BRANCH  13  15
HETATM   15  C   UNK N   1      30.042  14.668   5.532  0.00  0.00     0.154 C 
BRANCH  15  16
HETATM   16  C   UNK N   1      29.258  15.871   5.146  0.00  0.00    -0.023 A 
HETATM   17  C   UNK N   1      28.669  16.021   3.875  0.00  0.00     0.060 A 
HETATM   18  S   UNK N   1      27.858  17.481   3.924  0.00  0.00    -0.101 SA
HETATM   19  C   UNK N   1      28.201  17.938   5.473  0.00  0.00     0.015 A 
HETATM   20  C   UNK N   1      27.809  19.069   6.176  0.00  0.00     0.021 A 
HETATM   21  C   UNK N   1      28.994  16.948   6.034  0.00  0.00    -0.009 A 
HETATM   22  C   UNK N   1      28.243  19.196   7.506  0.00  0.00     0.025 A 
HETATM   23  C   UNK N   1      29.052  18.200   8.092  0.00  0.00     0.035 A 
HETATM   24  C   UNK N   1      29.431  17.064   7.355  0.00  0.00     0.037 A 
HETATM   25 Cl   UNK N   1      29.585  18.377   9.750  0.00  0.00    -0.084 Cl
ENDBRANCH  15  16
ENDBRANCH  13  15
ENDBRANCH  12  13
ENDBRANCH  11  12
ENDBRANCH   9  11
BRANCH   4  26
HETATM   26  O   UNK N   1      34.391  14.239   9.108  0.00  0.00    -0.362 OA
HETATM   27  H   UNK N   1      34.933  13.580   9.570  0.00  0.00     0.212 HD
ENDBRANCH   4  26
BRANCH   6  28
HETATM   28  C   UNK N   1      34.794  15.104  11.563  0.00  0.00     0.123 C 
BRANCH  28  29
HETATM   29  C   UNK N   1      35.976  14.919  12.525  0.00  0.00     0.044 C 
BRANCH  29  30
HETATM   30  C   UNK N   1      36.524  13.490  12.605  0.00  0.00     0.078 C 
HETATM   31  C   UNK N   1      35.400  12.475  12.356  0.00  0.00     0.025 C 
HETATM   32  C   UNK N   1      35.907  11.033  12.470  0.00  0.00     0.004 C 
HETATM   33  C   UNK N   1      37.399  10.900  12.161  0.00  0.00     0.019 C 
HETATM   34  C   UNK N   1      37.832  11.959  11.154  0.00  0.00     0.114 C 
HETATM   35  N   UNK N   1      37.654  13.325  11.669  0.00  0.00    -0.417 N 
HETATM   36  H   UNK N   1      38.262  14.099  11.401  0.00  0.00     0.153 HD
ENDBRANCH  29  30
ENDBRANCH  28  29
ENDBRANCH   6  28
TORSDOF 9
ENDMDL
MODEL 8
REMARK VINA RESULT:      -6.8      3.597      4.606
REMARK  9 active torsions:
REMARK  status: ('A' for Active; 'I' for Inactive)
REMARK    1  A    between atoms: C_8  and  C_6 
REMARK    2  A    between atoms: C_17  and  C_6 
REMARK    3  A    between atoms: N_27  and  C_8 
REMARK    4  A    between atoms: C_10  and  C_9 
REMARK    5  A    between atoms: N_25  and  C_9 
REMARK    6  A    between atoms: N_30  and  C_10 
REMARK    7  A    between atoms: C_15  and  C_12 
REMARK    8  A    between atoms: N_25  and  C_12 
REMARK    9  A    between atoms: O_31  and  C_22 
ROOT
HETATM    1  C   UNK N   1      35.421  14.166   7.489  0.00  0.00     0.173 C 
HETATM    2  C   UNK N   1      34.231  15.122   7.576  0.00  0.00     0.339 C 
HETATM    3  C   UNK N   1      34.934  13.522   9.842  0.00  0.00     0.133 C 
HETATM    4  C   UNK N   1      33.794  14.526   9.903  0.00  0.00     0.426 C 
HETATM    5 Cl   UNK N   1      34.560  16.460   6.435  0.00  0.00    -0.090 Cl
HETATM    6  N   UNK N   1      35.480  12.967  10.875  0.00  0.00    -0.376 N 
ATOM      7  HN  UNK N   1      36.226  12.294  10.698  1.00  0.00     0.160 HD
HETATM    8  N   UNK N   1      35.456  13.204   8.567  0.00  0.00    -0.373 N 
HETATM    9  N   UNK N   1      34.054  15.632   8.959  0.00  0.00     0.146 N 
HETATM   10  H   UNK N   1      35.849  12.315   8.413  0.00  0.00     0.161 HD
ENDROOT
BRANCH   9  11
HETATM   11  C   UNK N   1      33.005  16.672   9.056  0.00  0.00     0.297 C 
BRANCH  11  12
HETATM   12  C   UNK N   1      31.695  16.338   8.336  0.00  0.00     0.144 C 
BRANCH  12  13
HETATM   13  N   UNK N   1      30.977  17.545   7.958  0.00  0.00    -0.416 N 
HETATM   14  H   UNK N   1      31.374  18.477   7.837  0.00  0.00     0.153 HD
BRANCH  13  15
HETATM   15  C   UNK N   1      29.585  17.165   7.786  0.00  0.00     0.154 C 
BRANCH  15  16
HETATM   16  C   UNK N   1      29.195  17.373   6.366  0.00  0.00    -0.023 A 
HETATM   17  C   UNK N   1      29.575  16.492   5.334  0.00  0.00     0.060 A 
HETATM   18  S   UNK N   1      28.869  17.093   3.944  0.00  0.00    -0.101 SA
HETATM   19  C   UNK N   1      28.097  18.411   4.573  0.00  0.00     0.015 A 
HETATM   20  C   UNK N   1      27.293  19.355   3.949  0.00  0.00     0.021 A 
HETATM   21  C   UNK N   1      28.370  18.445   5.932  0.00  0.00    -0.009 A 
HETATM   22  C   UNK N   1      26.746  20.377   4.742  0.00  0.00     0.025 A 
HETATM   23  C   UNK N   1      27.017  20.429   6.126  0.00  0.00     0.035 A 
HETATM   24  C   UNK N   1      27.832  19.457   6.731  0.00  0.00     0.037 A 
HETATM   25 Cl   UNK N   1      26.329  21.712   7.098  0.00  0.00    -0.084 Cl
ENDBRANCH  15  16
ENDBRANCH  13  15
ENDBRANCH  12  13
ENDBRANCH  11  12
ENDBRANCH   9  11
BRANCH   4  26
HETATM   26  O   UNK N   1      33.560  15.032  11.187  0.00  0.00    -0.362 OA
HETATM   27  H   UNK N   1      33.591  14.583  12.046  0.00  0.00     0.212 HD
ENDBRANCH   4  26
BRANCH   6  28
HETATM   28  C   UNK N   1      35.134  13.208  12.253  0.00  0.00     0.123 C 
BRANCH  28  29
HETATM   29  C   UNK N   1      36.389  13.564  13.061  0.00  0.00     0.044 C 
BRANCH  29  30
HETATM   30  C   UNK N   1      36.115  14.127  14.461  0.00  0.00     0.078 C 
HETATM   31  C   UNK N   1      36.024  12.987  15.484  0.00  0.00     0.025 C 
HETATM   32  C   UNK N   1      35.711  13.514  16.889  0.00  0.00     0.004 C 
HETATM   33  C   UNK N   1      36.179  14.954  17.103  0.00  0.00     0.019 C 
HETATM   34  C   UNK N   1      37.413  15.246  16.257  0.00  0.00     0.114 C 
HETATM   35  N   UNK N   1      37.142  15.127  14.816  0.00  0.00    -0.417 N 
HETATM   36  H   UNK N   1      37.625  15.690  14.116  0.00  0.00     0.153 HD
ENDBRANCH  29  30
ENDBRANCH  28  29
ENDBRANCH   6  28
TORSDOF 9
ENDMDL
MODEL 9
REMARK VINA RESULT:      -6.7      1.967      2.434
REMARK  9 active torsions:
REMARK  status: ('A' for Active; 'I' for Inactive)
REMARK    1  A    between atoms: C_8  and  C_6 
REMARK    2  A    between atoms: C_17  and  C_6 
REMARK    3  A    between atoms: N_27  and  C_8 
REMARK    4  A    between atoms: C_10  and  C_9 
REMARK    5  A    between atoms: N_25  and  C_9 
REMARK    6  A    between atoms: N_30  and  C_10 
REMARK    7  A    between atoms: C_15  and  C_12 
REMARK    8  A    between atoms: N_25  and  C_12 
REMARK    9  A    between atoms: O_31  and  C_22 
ROOT
HETATM    1  C   UNK N   1      38.069  12.596   9.765  0.00  0.00     0.173 C 
HETATM    2  C   UNK N   1      36.718  12.775   9.071  0.00  0.00     0.339 C 
HETATM    3  C   UNK N   1      36.919  13.150  11.900  0.00  0.00     0.133 C 
HETATM    4  C   UNK N   1      35.609  13.372  11.163  0.00  0.00     0.426 C 
HETATM    5 Cl   UNK N   1      37.066  13.282   7.391  0.00  0.00    -0.090 Cl
HETATM    6  N   UNK N   1      37.160  13.549  13.108  0.00  0.00    -0.376 N 
ATOM      7  HN  UNK N   1      38.074  13.320  13.497  1.00  0.00     0.160 HD
HETATM    8  N   UNK N   1      37.958  12.492  11.203  0.00  0.00    -0.373 N 
HETATM    9  N   UNK N   1      35.886  13.785   9.772  0.00  0.00     0.146 N 
HETATM   10  H   UNK N   1      38.616  11.958  11.703  0.00  0.00     0.161 HD
ENDROOT
BRANCH   9  11
HETATM   11  C   UNK N   1      34.632  14.095   9.049  0.00  0.00     0.297 C 
BRANCH  11  12
HETATM   12  C   UNK N   1      34.538  15.522   8.500  0.00  0.00     0.144 C 
BRANCH  12  13
HETATM   13  N   UNK N   1      33.746  16.373   9.372  0.00  0.00    -0.416 N 
HETATM   14  H   UNK N   1      33.334  16.112  10.269  0.00  0.00     0.153 HD
BRANCH  13  15
HETATM   15  C   UNK N   1      33.655  17.668   8.720  0.00  0.00     0.154 C 
BRANCH  15  16
HETATM   16  C   UNK N   1      32.936  17.515   7.427  0.00  0.00    -0.023 A 
HETATM   17  C   UNK N   1      33.605  17.398   6.193  0.00  0.00     0.060 A 
HETATM   18  S   UNK N   1      32.406  17.193   5.047  0.00  0.00    -0.101 SA
HETATM   19  C   UNK N   1      31.077  17.238   6.026  0.00  0.00     0.015 A 
HETATM   20  C   UNK N   1      29.732  17.105   5.709  0.00  0.00     0.021 A 
HETATM   21  C   UNK N   1      31.522  17.427   7.326  0.00  0.00    -0.009 A 
HETATM   22  C   UNK N   1      28.802  17.170   6.760  0.00  0.00     0.025 A 
HETATM   23  C   UNK N   1      29.237  17.366   8.088  0.00  0.00     0.035 A 
HETATM   24  C   UNK N   1      30.607  17.494   8.378  0.00  0.00     0.037 A 
HETATM   25 Cl   UNK N   1      28.064  17.447   9.384  0.00  0.00    -0.084 Cl
ENDBRANCH  15  16
ENDBRANCH  13  15
ENDBRANCH  12  13
ENDBRANCH  11  12
ENDBRANCH   9  11
BRANCH   4  26
HETATM   26  O   UNK N   1      34.767  14.301  11.783  0.00  0.00    -0.362 OA
HETATM   27  H   UNK N   1      34.739  14.594  12.708  0.00  0.00     0.212 HD
ENDBRANCH   4  26
BRANCH   6  28
HETATM   28  C   UNK N   1      36.257  14.286  13.955  0.00  0.00     0.123 C 
BRANCH  28  29
HETATM   29  C   UNK N   1      36.370  13.796  15.405  0.00  0.00     0.044 C 
BRANCH  29  30
HETATM   30  C   UNK N   1      35.668  12.463  15.691  0.00  0.00     0.078 C 
HETATM   31  C   UNK N   1      34.562  12.213  14.657  0.00  0.00     0.025 C 
HETATM   32  C   UNK N   1      33.812  10.906  14.939  0.00  0.00     0.004 C 
HETATM   33  C   UNK N   1      34.662   9.883  15.695  0.00  0.00     0.019 C 
HETATM   34  C   UNK N   1      36.136  10.050  15.344  0.00  0.00     0.114 C 
HETATM   35  N   UNK N   1      36.657  11.368  15.738  0.00  0.00    -0.417 N 
HETATM   36  H   UNK N   1      37.626  11.515  16.023  0.00  0.00     0.153 HD
ENDBRANCH  29  30
ENDBRANCH  28  29
ENDBRANCH   6  28
TORSDOF 9
ENDMDL
