MODEL 1
REMARK VINA RESULT:      -6.8      0.000      0.000
REMARK  2 active torsions:
REMARK  status: ('A' for Active; 'I' for Inactive)
REMARK    1  A    between atoms: C_11  and  S_14 
REMARK    2  A    between atoms: S_14  and  N_18 
ROOT
HETATM    1  C   UNK N   1      29.032  17.225   4.124  0.00  0.00     0.100 A 
HETATM    2  C   UNK N   1      31.154  16.639   3.237  0.00  0.00     0.088 A 
HETATM    3  C   UNK N   1      31.749  16.773   4.496  0.00  0.00     0.031 A 
HETATM    4  C   UNK N   1      29.581  17.376   5.397  0.00  0.00    -0.009 A 
HETATM    5  C   UNK N   1      30.968  17.143   5.592  0.00  0.00    -0.000 A 
HETATM    6  C   UNK N   1      28.769  17.752   6.464  0.00  0.00     0.014 A 
HETATM    7  C   UNK N   1      30.677  17.686   7.940  0.00  0.00     0.026 A 
HETATM    8  C   UNK N   1      29.316  17.910   7.735  0.00  0.00     0.002 A 
HETATM    9  N   UNK N   1      29.819  16.865   3.079  0.00  0.00    -0.374 N 
ATOM     10  HN  UNK N   1      29.402  16.760   2.154  1.00  0.00     0.164 HD
HETATM   11  C   UNK N   1      31.517  17.291   6.886  0.00  0.00     0.086 A 
ENDROOT
BRANCH  11  12
HETATM   12  S   UNK N   1      33.268  17.022   7.279  0.00  0.00     0.245 S 
HETATM   13  O   UNK N   1      34.218  17.904   6.453  0.00  0.00    -0.206 OA
HETATM   14  O   UNK N   1      33.086  18.156   8.301  0.00  0.00    -0.206 OA
BRANCH  12  15
HETATM   15  N   UNK N   1      34.196  16.173   8.552  0.00  0.00    -0.199 NA
HETATM   16  C   UNK N   1      34.744  17.181   9.457  0.00  0.00     0.127 C 
HETATM   17  C   UNK N   1      35.537  16.501  10.573  0.00  0.00     0.129 C 
HETATM   18  N   UNK N   1      34.646  15.648  11.353  0.00  0.00    -0.418 N 
HETATM   19  C   UNK N   1      34.112  14.616  10.471  0.00  0.00     0.134 C 
HETATM   20  H   UNK N   1      34.433  15.754  12.344  0.00  0.00     0.153 HD
HETATM   21  C   UNK N   1      33.329  15.250   9.319  0.00  0.00     0.088 C 
HETATM   22  C   UNK N   1      32.828  14.102   8.455  0.00  0.00     0.029 C 
ENDBRANCH  12  15
ENDBRANCH  11  12
TORSDOF 2
ENDMDL
MODEL 2
REMARK VINA RESULT:      -6.7      8.099     12.112
REMARK  2 active torsions:
REMARK  status: ('A' for Active; 'I' for Inactive)
REMARK    1  A    between atoms: C_11  and  S_14 
REMARK    2  A    between atoms: S_14  and  N_18 
ROOT
HETATM    1  C   UNK N   1      35.510   9.891  19.979  0.00  0.00     0.100 A 
HETATM    2  C   UNK N   1      35.248   8.249  18.286  0.00  0.00     0.088 A 
HETATM    3  C   UNK N   1      35.072   9.240  17.313  0.00  0.00     0.031 A 
HETATM    4  C   UNK N   1      35.336  10.914  19.046  0.00  0.00    -0.009 A 
HETATM    5  C   UNK N   1      35.114  10.585  17.683  0.00  0.00    -0.000 A 
HETATM    6  C   UNK N   1      35.379  12.244  19.457  0.00  0.00     0.014 A 
HETATM    7  C   UNK N   1      34.978  12.958  17.187  0.00  0.00     0.026 A 
HETATM    8  C   UNK N   1      35.197  13.266  18.529  0.00  0.00     0.002 A 
HETATM    9  N   UNK N   1      35.463   8.594  19.587  0.00  0.00    -0.374 N 
ATOM     10  HN  UNK N   1      35.592   7.858  20.282  1.00  0.00     0.164 HD
HETATM   11  C   UNK N   1      34.944  11.625  16.742  0.00  0.00     0.086 A 
ENDROOT
BRANCH  11  12
HETATM   12  S   UNK N   1      34.659  11.351  14.971  0.00  0.00     0.245 S 
HETATM   13  O   UNK N   1      33.238  10.858  14.654  0.00  0.00    -0.206 OA
HETATM   14  O   UNK N   1      34.171  12.808  14.949  0.00  0.00    -0.206 OA
BRANCH  12  15
HETATM   15  N   UNK N   1      35.513  11.731  13.445  0.00  0.00    -0.199 NA
HETATM   16  C   UNK N   1      35.227  13.123  13.103  0.00  0.00     0.127 C 
HETATM   17  C   UNK N   1      35.949  13.498  11.809  0.00  0.00     0.129 C 
HETATM   18  N   UNK N   1      37.391  13.382  12.005  0.00  0.00    -0.418 N 
HETATM   19  C   UNK N   1      37.699  11.991  12.318  0.00  0.00     0.134 C 
HETATM   20  H   UNK N   1      38.066  14.142  11.935  0.00  0.00     0.153 HD
HETATM   21  C   UNK N   1      36.977  11.559  13.596  0.00  0.00     0.088 C 
HETATM   22  C   UNK N   1      37.349  10.102  13.828  0.00  0.00     0.029 C 
ENDBRANCH  12  15
ENDBRANCH  11  12
TORSDOF 2
ENDMDL
MODEL 3
REMARK VINA RESULT:      -6.4      1.602      2.702
REMARK  2 active torsions:
REMARK  status: ('A' for Active; 'I' for Inactive)
REMARK    1  A    between atoms: C_11  and  S_14 
REMARK    2  A    between atoms: S_14  and  N_18 
ROOT
HETATM    1  C   UNK N   1      29.311  17.647   6.710  0.00  0.00     0.100 A 
HETATM    2  C   UNK N   1      30.334  16.962   8.739  0.00  0.00     0.088 A 
HETATM    3  C   UNK N   1      31.528  16.667   8.070  0.00  0.00     0.031 A 
HETATM    4  C   UNK N   1      30.477  17.363   6.000  0.00  0.00    -0.009 A 
HETATM    5  C   UNK N   1      31.613  16.865   6.691  0.00  0.00    -0.000 A 
HETATM    6  C   UNK N   1      30.520  17.570   4.623  0.00  0.00     0.014 A 
HETATM    7  C   UNK N   1      32.803  16.789   4.577  0.00  0.00     0.026 A 
HETATM    8  C   UNK N   1      31.681  17.280   3.910  0.00  0.00     0.002 A 
HETATM    9  N   UNK N   1      29.261  17.443   8.050  0.00  0.00    -0.374 N 
ATOM     10  HN  UNK N   1      28.400  17.655   8.555  1.00  0.00     0.164 HD
HETATM   11  C   UNK N   1      32.793  16.585   5.967  0.00  0.00     0.086 A 
ENDROOT
BRANCH  11  12
HETATM   12  S   UNK N   1      34.317  15.951   6.721  0.00  0.00     0.245 S 
HETATM   13  O   UNK N   1      35.462  15.766   5.713  0.00  0.00    -0.206 OA
HETATM   14  O   UNK N   1      34.698  17.429   6.900  0.00  0.00    -0.206 OA
BRANCH  12  15
HETATM   15  N   UNK N   1      34.937  15.704   8.381  0.00  0.00    -0.199 NA
HETATM   16  C   UNK N   1      34.765  16.955   9.117  0.00  0.00     0.127 C 
HETATM   17  C   UNK N   1      35.271  16.789  10.549  0.00  0.00     0.129 C 
HETATM   18  N   UNK N   1      34.480  15.767  11.229  0.00  0.00    -0.418 N 
HETATM   19  C   UNK N   1      34.664  14.502  10.525  0.00  0.00     0.134 C 
HETATM   20  H   UNK N   1      33.899  15.912  12.054  0.00  0.00     0.153 HD
HETATM   21  C   UNK N   1      34.194  14.626   9.074  0.00  0.00     0.088 C 
HETATM   22  C   UNK N   1      34.438  13.271   8.426  0.00  0.00     0.029 C 
ENDBRANCH  12  15
ENDBRANCH  11  12
TORSDOF 2
ENDMDL
MODEL 4
REMARK VINA RESULT:      -6.4      9.894     12.707
REMARK  2 active torsions:
REMARK  status: ('A' for Active; 'I' for Inactive)
REMARK    1  A    between atoms: C_11  and  S_14 
REMARK    2  A    between atoms: S_14  and  N_18 
ROOT
HETATM    1  C   UNK N   1      23.219  11.708  11.348  0.00  0.00     0.100 A 
HETATM    2  C   UNK N   1      20.915  12.221  11.595  0.00  0.00     0.088 A 
HETATM    3  C   UNK N   1      20.939  13.014  10.442  0.00  0.00     0.031 A 
HETATM    4  C   UNK N   1      23.293  12.490  10.196  0.00  0.00    -0.009 A 
HETATM    5  C   UNK N   1      22.130  13.156   9.728  0.00  0.00    -0.000 A 
HETATM    6  C   UNK N   1      24.502  12.611   9.515  0.00  0.00     0.014 A 
HETATM    7  C   UNK N   1      23.446  14.058   7.898  0.00  0.00     0.026 A 
HETATM    8  C   UNK N   1      24.581  13.398   8.368  0.00  0.00     0.002 A 
HETATM    9  N   UNK N   1      22.046  11.590  12.019  0.00  0.00    -0.374 N 
ATOM     10  HN  UNK N   1      22.009  11.014  12.861  1.00  0.00     0.164 HD
HETATM   11  C   UNK N   1      22.210  13.942   8.556  0.00  0.00     0.086 A 
ENDROOT
BRANCH  11  12
HETATM   12  S   UNK N   1      20.806  14.843   7.844  0.00  0.00     0.245 S 
HETATM   13  O   UNK N   1      20.417  16.095   8.648  0.00  0.00    -0.206 OA
HETATM   14  O   UNK N   1      21.868  15.650   7.081  0.00  0.00    -0.206 OA
BRANCH  12  15
HETATM   15  N   UNK N   1      19.887  14.811   6.309  0.00  0.00    -0.199 NA
HETATM   16  C   UNK N   1      19.905  16.158   5.744  0.00  0.00     0.127 C 
HETATM   17  C   UNK N   1      19.141  16.177   4.421  0.00  0.00     0.129 C 
HETATM   18  N   UNK N   1      19.801  15.293   3.466  0.00  0.00    -0.418 N 
HETATM   19  C   UNK N   1      19.766  13.935   3.999  0.00  0.00     0.134 C 
HETATM   20  H   UNK N   1      20.215  15.575   2.578  0.00  0.00     0.153 HD
HETATM   21  C   UNK N   1      20.498  13.870   5.341  0.00  0.00     0.088 C 
HETATM   22  C   UNK N   1      20.395  12.429   5.818  0.00  0.00     0.029 C 
ENDBRANCH  12  15
ENDBRANCH  11  12
TORSDOF 2
ENDMDL
MODEL 5
REMARK VINA RESULT:      -6.2      2.015      6.654
REMARK  2 active torsions:
REMARK  status: ('A' for Active; 'I' for Inactive)
REMARK    1  A    between atoms: C_11  and  S_14 
REMARK    2  A    between atoms: S_14  and  N_18 
ROOT
HETATM    1  C   UNK N   1      36.696  14.105  10.688  0.00  0.00     0.100 A 
HETATM    2  C   UNK N   1      35.683  16.077  11.535  0.00  0.00     0.088 A 
HETATM    3  C   UNK N   1      35.190  16.402  10.266  0.00  0.00     0.031 A 
HETATM    4  C   UNK N   1      36.229  14.390   9.405  0.00  0.00    -0.009 A 
HETATM    5  C   UNK N   1      35.457  15.560   9.186  0.00  0.00    -0.000 A 
HETATM    6  C   UNK N   1      36.523  13.526   8.351  0.00  0.00     0.014 A 
HETATM    7  C   UNK N   1      35.305  14.959   6.838  0.00  0.00     0.026 A 
HETATM    8  C   UNK N   1      36.064  13.812   7.068  0.00  0.00     0.002 A 
HETATM    9  N   UNK N   1      36.419  14.945  11.717  0.00  0.00    -0.374 N 
ATOM     10  HN  UNK N   1      36.769  14.723  12.649  1.00  0.00     0.164 HD
HETATM   11  C   UNK N   1      34.982  15.840   7.884  0.00  0.00     0.086 A 
ENDROOT
BRANCH  11  12
HETATM   12  S   UNK N   1      33.982  17.294   7.463  0.00  0.00     0.245 S 
HETATM   13  O   UNK N   1      34.723  18.623   7.678  0.00  0.00    -0.206 OA
HETATM   14  O   UNK N   1      34.602  17.162   6.063  0.00  0.00    -0.206 OA
BRANCH  12  15
HETATM   15  N   UNK N   1      32.431  17.604   6.626  0.00  0.00    -0.199 NA
HETATM   16  C   UNK N   1      32.449  16.876   5.359  0.00  0.00     0.127 C 
HETATM   17  C   UNK N   1      31.136  17.101   4.611  0.00  0.00     0.129 C 
HETATM   18  N   UNK N   1      30.029  16.574   5.404  0.00  0.00    -0.418 N 
HETATM   19  C   UNK N   1      29.976  17.310   6.662  0.00  0.00     0.134 C 
HETATM   20  H   UNK N   1      29.400  15.821   5.126  0.00  0.00     0.153 HD
HETATM   21  C   UNK N   1      31.284  17.137   7.438  0.00  0.00     0.088 C 
HETATM   22  C   UNK N   1      31.136  17.948   8.717  0.00  0.00     0.029 C 
ENDBRANCH  12  15
ENDBRANCH  11  12
TORSDOF 2
ENDMDL
MODEL 6
REMARK VINA RESULT:      -6.1     12.921     15.284
REMARK  2 active torsions:
REMARK  status: ('A' for Active; 'I' for Inactive)
REMARK    1  A    between atoms: C_11  and  S_14 
REMARK    2  A    between atoms: S_14  and  N_18 
ROOT
HETATM    1  C   UNK N   1      30.847  20.709  -5.384  0.00  0.00     0.100 A 
HETATM    2  C   UNK N   1      29.419  21.408  -7.146  0.00  0.00     0.088 A 
HETATM    3  C   UNK N   1      28.847  22.392  -6.331  0.00  0.00     0.031 A 
HETATM    4  C   UNK N   1      30.304  21.672  -4.532  0.00  0.00    -0.009 A 
HETATM    5  C   UNK N   1      29.285  22.535  -5.013  0.00  0.00    -0.000 A 
HETATM    6  C   UNK N   1      30.764  21.780  -3.222  0.00  0.00     0.014 A 
HETATM    7  C   UNK N   1      29.216  23.588  -2.827  0.00  0.00     0.026 A 
HETATM    8  C   UNK N   1      30.219  22.735  -2.368  0.00  0.00     0.002 A 
HETATM    9  N   UNK N   1      30.399  20.596  -6.659  0.00  0.00    -0.374 N 
ATOM     10  HN  UNK N   1      30.806  19.886  -7.269  1.00  0.00     0.164 HD
HETATM   11  C   UNK N   1      28.743  23.512  -4.148  0.00  0.00     0.086 A 
ENDROOT
BRANCH  11  12
HETATM   12  S   UNK N   1      27.443  24.682  -4.630  0.00  0.00     0.245 S 
HETATM   13  O   UNK N   1      26.128  23.995  -5.035  0.00  0.00    -0.206 OA
HETATM   14  O   UNK N   1      27.024  24.636  -3.152  0.00  0.00    -0.206 OA
BRANCH  12  15
HETATM   15  N   UNK N   1      27.186  26.450  -4.533  0.00  0.00    -0.199 NA
HETATM   16  C   UNK N   1      25.976  26.688  -3.749  0.00  0.00     0.127 C 
HETATM   17  C   UNK N   1      25.723  28.190  -3.627  0.00  0.00     0.129 C 
HETATM   18  N   UNK N   1      26.835  28.815  -2.917  0.00  0.00    -0.418 N 
HETATM   19  C   UNK N   1      28.049  28.614  -3.701  0.00  0.00     0.134 C 
HETATM   20  H   UNK N   1      26.774  29.307  -2.027  0.00  0.00     0.153 HD
HETATM   21  C   UNK N   1      28.331  27.120  -3.874  0.00  0.00     0.088 C 
HETATM   22  C   UNK N   1      29.599  27.015  -4.710  0.00  0.00     0.029 C 
ENDBRANCH  12  15
ENDBRANCH  11  12
TORSDOF 2
ENDMDL
MODEL 7
REMARK VINA RESULT:      -6.0     11.752     12.839
REMARK  2 active torsions:
REMARK  status: ('A' for Active; 'I' for Inactive)
REMARK    1  A    between atoms: C_11  and  S_14 
REMARK    2  A    between atoms: S_14  and  N_18 
ROOT
HETATM    1  C   UNK N   1      20.277  17.462   0.603  0.00  0.00     0.100 A 
HETATM    2  C   UNK N   1      19.923  18.825   2.514  0.00  0.00     0.088 A 
HETATM    3  C   UNK N   1      19.731  17.696   3.318  0.00  0.00     0.031 A 
HETATM    4  C   UNK N   1      20.089  16.308   1.363  0.00  0.00    -0.009 A 
HETATM    5  C   UNK N   1      19.813  16.423   2.751  0.00  0.00    -0.000 A 
HETATM    6  C   UNK N   1      20.173  15.056   0.758  0.00  0.00     0.014 A 
HETATM    7  C   UNK N   1      19.706  14.001   2.878  0.00  0.00     0.026 A 
HETATM    8  C   UNK N   1      19.978  13.902   1.514  0.00  0.00     0.002 A 
HETATM    9  N   UNK N   1      20.190  18.685   1.184  0.00  0.00    -0.374 N 
ATOM     10  HN  UNK N   1      20.330  19.519   0.614  1.00  0.00     0.164 HD
HETATM   11  C   UNK N   1      19.629  15.250   3.517  0.00  0.00     0.086 A 
ENDROOT
BRANCH  11  12
HETATM   12  S   UNK N   1      19.276  15.248   5.297  0.00  0.00     0.245 S 
HETATM   13  O   UNK N   1      17.911  15.863   5.645  0.00  0.00    -0.206 OA
HETATM   14  O   UNK N   1      18.610  13.887   5.039  0.00  0.00    -0.206 OA
BRANCH  12  15
HETATM   15  N   UNK N   1      19.984  14.500   6.760  0.00  0.00    -0.199 NA
HETATM   16  C   UNK N   1      20.704  13.297   6.347  0.00  0.00     0.127 C 
HETATM   17  C   UNK N   1      21.339  12.628   7.565  0.00  0.00     0.129 C 
HETATM   18  N   UNK N   1      22.311  13.535   8.167  0.00  0.00    -0.418 N 
HETATM   19  C   UNK N   1      21.605  14.732   8.614  0.00  0.00     0.134 C 
HETATM   20  H   UNK N   1      23.312  13.363   8.260  0.00  0.00     0.153 HD
HETATM   21  C   UNK N   1      20.928  15.425   7.429  0.00  0.00     0.088 C 
HETATM   22  C   UNK N   1      20.212  16.643   7.995  0.00  0.00     0.029 C 
ENDBRANCH  12  15
ENDBRANCH  11  12
TORSDOF 2
ENDMDL
MODEL 8
REMARK VINA RESULT:      -6.0      3.611      7.242
REMARK  2 active torsions:
REMARK  status: ('A' for Active; 'I' for Inactive)
REMARK    1  A    between atoms: C_11  and  S_14 
REMARK    2  A    between atoms: S_14  and  N_18 
ROOT
HETATM    1  C   UNK N   1      32.412  17.941   8.334  0.00  0.00     0.100 A 
HETATM    2  C   UNK N   1      32.506  17.075   6.127  0.00  0.00     0.088 A 
HETATM    3  C   UNK N   1      31.110  17.032   6.053  0.00  0.00     0.031 A 
HETATM    4  C   UNK N   1      31.017  17.913   8.309  0.00  0.00    -0.009 A 
HETATM    5  C   UNK N   1      30.348  17.452   7.145  0.00  0.00    -0.000 A 
HETATM    6  C   UNK N   1      30.294  18.336   9.422  0.00  0.00     0.014 A 
HETATM    7  C   UNK N   1      28.232  17.850   8.266  0.00  0.00     0.026 A 
HETATM    8  C   UNK N   1      28.902  18.301   9.403  0.00  0.00     0.002 A 
HETATM    9  N   UNK N   1      33.122  17.526   7.256  0.00  0.00    -0.374 N 
ATOM     10  HN  UNK N   1      34.142  17.552   7.290  1.00  0.00     0.164 HD
HETATM   11  C   UNK N   1      28.935  17.432   7.124  0.00  0.00     0.086 A 
ENDROOT
BRANCH  11  12
HETATM   12  S   UNK N   1      27.953  16.874   5.705  0.00  0.00     0.245 S 
HETATM   13  O   UNK N   1      28.114  15.374   5.407  0.00  0.00    -0.206 OA
HETATM   14  O   UNK N   1      26.860  16.562   6.740  0.00  0.00    -0.206 OA
BRANCH  12  15
HETATM   15  N   UNK N   1      26.642  17.546   4.689  0.00  0.00    -0.199 NA
HETATM   16  C   UNK N   1      25.414  16.817   4.997  0.00  0.00     0.127 C 
HETATM   17  C   UNK N   1      24.260  17.366   4.160  0.00  0.00     0.129 C 
HETATM   18  N   UNK N   1      24.035  18.768   4.502  0.00  0.00    -0.418 N 
HETATM   19  C   UNK N   1      25.242  19.518   4.173  0.00  0.00     0.134 C 
HETATM   20  H   UNK N   1      23.181  19.156   4.902  0.00  0.00     0.153 HD
HETATM   21  C   UNK N   1      26.435  18.986   4.969  0.00  0.00     0.088 C 
HETATM   22  C   UNK N   1      27.639  19.817   4.548  0.00  0.00     0.029 C 
ENDBRANCH  12  15
ENDBRANCH  11  12
TORSDOF 2
ENDMDL
MODEL 9
REMARK VINA RESULT:      -6.0     15.137     16.657
REMARK  2 active torsions:
REMARK  status: ('A' for Active; 'I' for Inactive)
REMARK    1  A    between atoms: C_11  and  S_14 
REMARK    2  A    between atoms: S_14  and  N_18 
ROOT
HETATM    1  C   UNK N   1      27.256  21.211  -8.539  0.00  0.00     0.100 A 
HETATM    2  C   UNK N   1      25.178  22.302  -8.194  0.00  0.00     0.088 A 
HETATM    3  C   UNK N   1      25.687  22.984  -7.084  0.00  0.00     0.031 A 
HETATM    4  C   UNK N   1      27.808  21.864  -7.437  0.00  0.00    -0.009 A 
HETATM    5  C   UNK N   1      27.010  22.773  -6.692  0.00  0.00    -0.000 A 
HETATM    6  C   UNK N   1      29.131  21.621  -7.075  0.00  0.00     0.014 A 
HETATM    7  C   UNK N   1      28.909  23.161  -5.230  0.00  0.00     0.026 A 
HETATM    8  C   UNK N   1      29.681  22.266  -5.970  0.00  0.00     0.002 A 
HETATM    9  N   UNK N   1      25.967  21.438  -8.893  0.00  0.00    -0.374 N 
ATOM     10  HN  UNK N   1      25.578  20.951  -9.701  1.00  0.00     0.164 HD
HETATM   11  C   UNK N   1      27.577  23.436  -5.580  0.00  0.00     0.086 A 
ENDROOT
BRANCH  11  12
HETATM   12  S   UNK N   1      26.677  24.624  -4.545  0.00  0.00     0.245 S 
HETATM   13  O   UNK N   1      26.390  24.099  -3.129  0.00  0.00    -0.206 OA
HETATM   14  O   UNK N   1      28.068  25.101  -4.098  0.00  0.00    -0.206 OA
BRANCH  12  15
HETATM   15  N   UNK N   1      26.236  26.355  -4.641  0.00  0.00    -0.199 NA
HETATM   16  C   UNK N   1      26.394  26.935  -3.309  0.00  0.00     0.127 C 
HETATM   17  C   UNK N   1      26.040  28.421  -3.343  0.00  0.00     0.129 C 
HETATM   18  N   UNK N   1      26.959  29.119  -4.237  0.00  0.00    -0.418 N 
HETATM   19  C   UNK N   1      26.793  28.574  -5.580  0.00  0.00     0.134 C 
HETATM   20  H   UNK N   1      27.605  29.861  -3.970  0.00  0.00     0.153 HD
HETATM   21  C   UNK N   1      27.112  27.077  -5.592  0.00  0.00     0.088 C 
HETATM   22  C   UNK N   1      26.898  26.603  -7.022  0.00  0.00     0.029 C 
ENDBRANCH  12  15
ENDBRANCH  11  12
TORSDOF 2
ENDMDL
