REMARK  4 active torsions:
REMARK  status: ('A' for Active; 'I' for Inactive)
REMARK    1  A    between atoms: O_25  and  C_10 
REMARK    2  A    between atoms: O_21  and  C_13 
REMARK    3  A    between atoms: C_14  and  O_22 
REMARK    4  A    between atoms: C_17  and  O_23 
ROOT
HETATM    1  C   UNK N   1       1.615  -3.690  -0.757  0.00  0.00     0.040 C 
HETATM    2  C   UNK N   1      -0.503  -0.706  -0.050  0.00  0.00    -0.020 C 
HETATM    3  C   UNK N   1      -0.231  -2.116  -0.377  0.00  0.00     0.059 C 
HETATM    4  C   UNK N   1      -1.681  -0.088   0.094  0.00  0.00     0.049 C 
HETATM    5  C   UNK N   1       5.323   1.805  -0.191  0.00  0.00     0.047 A 
HETATM    6  C   UNK N   1       6.887   0.066   0.304  0.00  0.00     0.074 A 
HETATM    7  C   UNK N   1       1.358   3.878  -0.403  0.00  0.00     0.069 C 
HETATM    8  C   UNK N   1       1.195  -2.477   0.063  0.00  0.00     0.131 C 
HETATM    9  C   UNK N   1       6.633   1.396  -0.004  0.00  0.00     0.071 A 
HETATM   10  C   UNK N   1       4.229   0.919  -0.106  0.00  0.00    -0.005 A 
HETATM   11  C   UNK N   1      -1.615   1.390   0.235  0.00  0.00     0.180 C 
HETATM   12  C   UNK N   1       5.851  -0.854   0.415  0.00  0.00     0.085 A 
HETATM   13  C   UNK N   1      -0.043   3.510   0.146  0.00  0.00     0.157 C 
HETATM   14  C   UNK N   1       2.613   3.008  -0.095  0.00  0.00     0.158 A 
HETATM   15  C   UNK N   1       4.485  -0.472   0.201  0.00  0.00     0.081 A 
HETATM   16  C   UNK N   1      -0.302   2.044  -0.115  0.00  0.00     0.220 C 
HETATM   17  C   UNK N   1       2.851   1.517  -0.371  0.00  0.00     0.185 A 
HETATM   18  C   UNK N   1       3.426  -1.564   0.331  0.00  0.00     0.297 C 
HETATM   19  O   UNK N   1      -2.587   2.039   0.588  0.00  0.00    -0.290 OA
HETATM   20  O   UNK N   1       3.765  -2.638   0.816  0.00  0.00    -0.259 OA
HETATM   21  O   UNK N   1       2.126  -1.430  -0.077  0.00  0.00    -0.312 OA
HETATM   22  O   UNK N   1       2.972   2.493  -1.365  0.00  0.00    -0.370 OA
ENDROOT
BRANCH   9  23
HETATM   23  O   UNK N   1       7.634   2.299  -0.137  0.00  0.00    -0.356 OA
HETATM   24  C   UNK N   1       8.967   1.972  -0.017  0.00  0.00     0.210 C 
ENDBRANCH   9  23
BRANCH  12  25
HETATM   25  O   UNK N   1       6.187  -2.124   0.709  0.00  0.00    -0.360 OA
HETATM   26  H   UNK N   1       5.539  -2.768   0.915  0.00  0.00     0.217 HD
ENDBRANCH  12  25
BRANCH  13  27
HETATM   27  O   UNK N   1      -0.114   3.783   1.514  0.00  0.00    -0.392 OA
HETATM   28  H   UNK N   1       0.026   3.920   2.464  0.00  0.00     0.210 HD
ENDBRANCH  13  27
BRANCH  16  29
HETATM   29  O   UNK N   1      -0.062   1.779  -1.470  0.00  0.00    -0.385 OA
HETATM   30  H   UNK N   1      -0.137   1.544  -2.408  0.00  0.00     0.210 HD
ENDBRANCH  16  29
TORSDOF 4
