MODEL 1
REMARK VINA RESULT:      -5.2      0.000      0.000
REMARK  16 active torsions:
REMARK  status: ('A' for Active; 'I' for Inactive)
REMARK    1  A    between atoms: C_10  and  O_1 
REMARK    2  A    between atoms: O_2  and  C_18 
REMARK    3  A    between atoms: C_4  and  C_5 
REMARK    4  A    between atoms: C_4  and  C_6 
REMARK    5  A    between atoms: C_5  and  C_7 
REMARK    6  A    between atoms: C_6  and  C_8 
REMARK    7  A    between atoms: C_7  and  C_9 
REMARK    8  A    between atoms: C_8  and  C_10 
REMARK    9  A    between atoms: C_9  and  C_11 
REMARK   10  A    between atoms: C_10  and  C_12 
REMARK   11  A    between atoms: C_11  and  C_18 
REMARK   12  A    between atoms: C_13  and  C_14 
REMARK   13  A    between atoms: C_13  and  C_15 
REMARK   14  A    between atoms: C_14  and  C_16 
REMARK   15  A    between atoms: C_15  and  C_19 
REMARK   16  A    between atoms: C_17  and  C_20 
ROOT
HETATM    1  C   UNK N   1      33.552  16.931   6.179  0.00  0.00     0.141 C 
ENDROOT
BRANCH   1   2
HETATM    2  O   UNK N   1      34.862  16.472   6.030  0.00  0.00    -0.392 OA
HETATM    3  H   UNK N   1      35.360  16.146   6.796  0.00  0.00     0.210 HD
ENDBRANCH   1   2
BRANCH   1   4
HETATM    4  C   UNK N   1      33.470  17.880   7.358  0.00  0.00     0.036 C 
BRANCH   4   5
HETATM    5  C   UNK N   1      32.338  17.499   8.300  0.00  0.00     0.003 C 
BRANCH   5   6
HETATM    6  C   UNK N   1      31.986  16.025   8.150  0.00  0.00     0.000 C 
BRANCH   6   7
HETATM    7  C   UNK N   1      32.509  15.214   9.324  0.00  0.00     0.000 C 
BRANCH   7   8
HETATM    8  C   UNK N   1      33.832  14.565   8.969  0.00  0.00     0.001 C 
BRANCH   8   9
HETATM    9  C   UNK N   1      34.571  14.200  10.239  0.00  0.00     0.010 C 
BRANCH   9  10
HETATM   10  C   UNK N   1      34.665  15.417  11.145  0.00  0.00     0.110 C 
BRANCH  10  11
HETATM   11  C   UNK N   1      35.748  16.369  10.725  0.00  0.00     0.139 C 
HETATM   12  O   UNK N   1      35.476  17.456  10.235  0.00  0.00    -0.650 OA
BRANCH  11  13
HETATM   13  O   UNK N   1      37.036  16.022  10.896  0.00  0.00    -0.776 OA
HETATM   14  H   UNK N   1      37.433  15.396  10.323  0.00  0.00     0.167 HD
ENDBRANCH  11  13
ENDBRANCH  10  11
ENDBRANCH   9  10
ENDBRANCH   8   9
ENDBRANCH   7   8
ENDBRANCH   6   7
ENDBRANCH   5   6
ENDBRANCH   4   5
ENDBRANCH   1   4
BRANCH   1  15
HETATM   15  C   UNK N   1      33.130  17.680   4.950  0.00  0.00     0.004 C 
HETATM   16  C   UNK N   1      32.043  17.385   4.225  0.00  0.00    -0.002 C 
BRANCH  16  17
HETATM   17  C   UNK N   1      31.104  16.291   4.551  0.00  0.00    -0.004 C 
HETATM   18  C   UNK N   1      29.924  16.489   5.152  0.00  0.00    -0.027 C 
BRANCH  18  19
HETATM   19  C   UNK N   1      29.436  17.844   5.552  0.00  0.00     0.027 C 
BRANCH  19  20
HETATM   20  C   UNK N   1      28.588  17.715   6.798  0.00  0.00     0.004 C 
BRANCH  20  21
HETATM   21  C   UNK N   1      28.137  19.087   7.251  0.00  0.00    -0.000 C 
BRANCH  21  22
HETATM   22  C   UNK N   1      27.638  19.866   6.054  0.00  0.00    -0.005 C 
HETATM   23  C   UNK N   1      26.996  21.155   6.517  0.00  0.00     0.005 C 
ENDBRANCH  21  22
ENDBRANCH  20  21
ENDBRANCH  19  20
ENDBRANCH  18  19
ENDBRANCH  16  17
ENDBRANCH   1  15
TORSDOF 16
ENDMDL
MODEL 2
REMARK VINA RESULT:      -5.0     12.902     16.303
REMARK  16 active torsions:
REMARK  status: ('A' for Active; 'I' for Inactive)
REMARK    1  A    between atoms: C_10  and  O_1 
REMARK    2  A    between atoms: O_2  and  C_18 
REMARK    3  A    between atoms: C_4  and  C_5 
REMARK    4  A    between atoms: C_4  and  C_6 
REMARK    5  A    between atoms: C_5  and  C_7 
REMARK    6  A    between atoms: C_6  and  C_8 
REMARK    7  A    between atoms: C_7  and  C_9 
REMARK    8  A    between atoms: C_8  and  C_10 
REMARK    9  A    between atoms: C_9  and  C_11 
REMARK   10  A    between atoms: C_10  and  C_12 
REMARK   11  A    between atoms: C_11  and  C_18 
REMARK   12  A    between atoms: C_13  and  C_14 
REMARK   13  A    between atoms: C_13  and  C_15 
REMARK   14  A    between atoms: C_14  and  C_16 
REMARK   15  A    between atoms: C_15  and  C_19 
REMARK   16  A    between atoms: C_17  and  C_20 
ROOT
HETATM    1  C   UNK N   1      29.817  23.182  -2.662  0.00  0.00     0.141 C 
ENDROOT
BRANCH   1   2
HETATM    2  O   UNK N   1      30.475  23.102  -1.434  0.00  0.00    -0.392 OA
HETATM    3  H   UNK N   1      30.268  23.727  -0.721  0.00  0.00     0.210 HD
ENDBRANCH   1   2
BRANCH   1   4
HETATM    4  C   UNK N   1      29.998  21.887  -3.429  0.00  0.00     0.036 C 
BRANCH   4   5
HETATM    5  C   UNK N   1      30.487  22.143  -4.845  0.00  0.00     0.003 C 
BRANCH   5   6
HETATM    6  C   UNK N   1      29.903  21.118  -5.809  0.00  0.00     0.000 C 
BRANCH   6   7
HETATM    7  C   UNK N   1      28.994  21.780  -6.831  0.00  0.00     0.000 C 
BRANCH   7   8
HETATM    8  C   UNK N   1      28.455  20.749  -7.803  0.00  0.00     0.001 C 
BRANCH   8   9
HETATM    9  C   UNK N   1      27.229  21.305  -8.497  0.00  0.00     0.010 C 
BRANCH   9  10
HETATM   10  C   UNK N   1      26.396  22.101  -7.507  0.00  0.00     0.110 C 
BRANCH  10  11
HETATM   11  C   UNK N   1      25.223  22.783  -8.153  0.00  0.00     0.139 C 
HETATM   12  O   UNK N   1      25.313  23.928  -8.573  0.00  0.00    -0.650 OA
BRANCH  11  13
HETATM   13  O   UNK N   1      24.059  22.120  -8.275  0.00  0.00    -0.776 OA
HETATM   14  H   UNK N   1      23.509  22.272  -9.017  0.00  0.00     0.167 HD
ENDBRANCH  11  13
ENDBRANCH  10  11
ENDBRANCH   9  10
ENDBRANCH   8   9
ENDBRANCH   7   8
ENDBRANCH   6   7
ENDBRANCH   5   6
ENDBRANCH   4   5
ENDBRANCH   1   4
BRANCH   1  15
HETATM   15  C   UNK N   1      28.349  23.390  -2.443  0.00  0.00     0.004 C 
HETATM   16  C   UNK N   1      27.545  24.039  -3.297  0.00  0.00    -0.002 C 
BRANCH  16  17
HETATM   17  C   UNK N   1      27.997  24.619  -4.579  0.00  0.00    -0.004 C 
HETATM   18  C   UNK N   1      27.164  25.161  -5.475  0.00  0.00    -0.027 C 
BRANCH  18  19
HETATM   19  C   UNK N   1      25.686  25.235  -5.266  0.00  0.00     0.027 C 
BRANCH  19  20
HETATM   20  C   UNK N   1      25.193  26.596  -5.706  0.00  0.00     0.004 C 
BRANCH  20  21
HETATM   21  C   UNK N   1      25.358  27.588  -4.576  0.00  0.00    -0.000 C 
BRANCH  21  22
HETATM   22  C   UNK N   1      26.450  28.572  -4.934  0.00  0.00    -0.005 C 
HETATM   23  C   UNK N   1      27.528  28.546  -3.872  0.00  0.00     0.005 C 
ENDBRANCH  21  22
ENDBRANCH  20  21
ENDBRANCH  19  20
ENDBRANCH  18  19
ENDBRANCH  16  17
ENDBRANCH   1  15
TORSDOF 16
ENDMDL
MODEL 3
REMARK VINA RESULT:      -5.0     12.285     15.939
REMARK  16 active torsions:
REMARK  status: ('A' for Active; 'I' for Inactive)
REMARK    1  A    between atoms: C_10  and  O_1 
REMARK    2  A    between atoms: O_2  and  C_18 
REMARK    3  A    between atoms: C_4  and  C_5 
REMARK    4  A    between atoms: C_4  and  C_6 
REMARK    5  A    between atoms: C_5  and  C_7 
REMARK    6  A    between atoms: C_6  and  C_8 
REMARK    7  A    between atoms: C_7  and  C_9 
REMARK    8  A    between atoms: C_8  and  C_10 
REMARK    9  A    between atoms: C_9  and  C_11 
REMARK   10  A    between atoms: C_10  and  C_12 
REMARK   11  A    between atoms: C_11  and  C_18 
REMARK   12  A    between atoms: C_13  and  C_14 
REMARK   13  A    between atoms: C_13  and  C_15 
REMARK   14  A    between atoms: C_14  and  C_16 
REMARK   15  A    between atoms: C_15  and  C_19 
REMARK   16  A    between atoms: C_17  and  C_20 
ROOT
HETATM    1  C   UNK N   1      29.725  22.718  -2.523  0.00  0.00     0.141 C 
ENDROOT
BRANCH   1   2
HETATM    2  O   UNK N   1      30.488  22.995  -1.387  0.00  0.00    -0.392 OA
HETATM    3  H   UNK N   1      30.082  22.986  -0.506  0.00  0.00     0.210 HD
ENDBRANCH   1   2
BRANCH   1   4
HETATM    4  C   UNK N   1      28.409  23.466  -2.453  0.00  0.00     0.036 C 
BRANCH   4   5
HETATM    5  C   UNK N   1      27.925  23.870  -3.836  0.00  0.00     0.003 C 
BRANCH   5   6
HETATM    6  C   UNK N   1      26.668  24.723  -3.738  0.00  0.00     0.000 C 
BRANCH   6   7
HETATM    7  C   UNK N   1      25.776  24.530  -4.955  0.00  0.00     0.000 C 
BRANCH   7   8
HETATM    8  C   UNK N   1      25.940  25.689  -5.917  0.00  0.00     0.001 C 
BRANCH   8   9
HETATM    9  C   UNK N   1      25.055  26.837  -5.478  0.00  0.00     0.010 C 
BRANCH   9  10
HETATM   10  C   UNK N   1      25.901  28.080  -5.254  0.00  0.00     0.110 C 
BRANCH  10  11
HETATM   11  C   UNK N   1      25.959  28.489  -3.810  0.00  0.00     0.139 C 
HETATM   12  O   UNK N   1      25.399  27.830  -2.946  0.00  0.00    -0.650 OA
BRANCH  11  13
HETATM   13  O   UNK N   1      26.642  29.595  -3.464  0.00  0.00    -0.776 OA
HETATM   14  H   UNK N   1      26.837  29.763  -2.564  0.00  0.00     0.167 HD
ENDBRANCH  11  13
ENDBRANCH  10  11
ENDBRANCH   9  10
ENDBRANCH   8   9
ENDBRANCH   7   8
ENDBRANCH   6   7
ENDBRANCH   5   6
ENDBRANCH   4   5
ENDBRANCH   1   4
BRANCH   1  15
HETATM   15  C   UNK N   1      30.454  23.174  -3.751  0.00  0.00     0.004 C 
HETATM   16  C   UNK N   1      31.199  22.373  -4.525  0.00  0.00    -0.002 C 
BRANCH  16  17
HETATM   17  C   UNK N   1      31.387  20.928  -4.279  0.00  0.00    -0.004 C 
HETATM   18  C   UNK N   1      31.388  20.011  -5.253  0.00  0.00    -0.027 C 
BRANCH  18  19
HETATM   19  C   UNK N   1      31.200  20.359  -6.694  0.00  0.00     0.027 C 
BRANCH  19  20
HETATM   20  C   UNK N   1      29.776  20.042  -7.097  0.00  0.00     0.004 C 
BRANCH  20  21
HETATM   21  C   UNK N   1      29.221  21.172  -7.936  0.00  0.00    -0.000 C 
BRANCH  21  22
HETATM   22  C   UNK N   1      28.439  22.113  -7.045  0.00  0.00    -0.005 C 
HETATM   23  C   UNK N   1      26.979  22.098  -7.445  0.00  0.00     0.005 C 
ENDBRANCH  21  22
ENDBRANCH  20  21
ENDBRANCH  19  20
ENDBRANCH  18  19
ENDBRANCH  16  17
ENDBRANCH   1  15
TORSDOF 16
ENDMDL
MODEL 4
REMARK VINA RESULT:      -5.0      3.474      5.653
REMARK  16 active torsions:
REMARK  status: ('A' for Active; 'I' for Inactive)
REMARK    1  A    between atoms: C_10  and  O_1 
REMARK    2  A    between atoms: O_2  and  C_18 
REMARK    3  A    between atoms: C_4  and  C_5 
REMARK    4  A    between atoms: C_4  and  C_6 
REMARK    5  A    between atoms: C_5  and  C_7 
REMARK    6  A    between atoms: C_6  and  C_8 
REMARK    7  A    between atoms: C_7  and  C_9 
REMARK    8  A    between atoms: C_8  and  C_10 
REMARK    9  A    between atoms: C_9  and  C_11 
REMARK   10  A    between atoms: C_10  and  C_12 
REMARK   11  A    between atoms: C_11  and  C_18 
REMARK   12  A    between atoms: C_13  and  C_14 
REMARK   13  A    between atoms: C_13  and  C_15 
REMARK   14  A    between atoms: C_14  and  C_16 
REMARK   15  A    between atoms: C_15  and  C_19 
REMARK   16  A    between atoms: C_17  and  C_20 
ROOT
HETATM    1  C   UNK N   1      28.591  18.708   8.672  0.00  0.00     0.141 C 
ENDROOT
BRANCH   1   2
HETATM    2  O   UNK N   1      27.487  18.244   9.390  0.00  0.00    -0.392 OA
HETATM    3  H   UNK N   1      26.653  18.044   8.938  0.00  0.00     0.210 HD
ENDBRANCH   1   2
BRANCH   1   4
HETATM    4  C   UNK N   1      29.870  18.206   9.312  0.00  0.00     0.036 C 
BRANCH   4   5
HETATM    5  C   UNK N   1      30.260  16.838   8.776  0.00  0.00     0.003 C 
BRANCH   5   6
HETATM    6  C   UNK N   1      31.773  16.719   8.654  0.00  0.00     0.000 C 
BRANCH   6   7
HETATM    7  C   UNK N   1      32.395  18.042   8.235  0.00  0.00     0.000 C 
BRANCH   7   8
HETATM    8  C   UNK N   1      33.339  17.834   7.068  0.00  0.00     0.001 C 
BRANCH   8   9
HETATM    9  C   UNK N   1      32.566  17.287   5.886  0.00  0.00     0.010 C 
BRANCH   9  10
HETATM   10  C   UNK N   1      33.470  17.229   4.665  0.00  0.00     0.110 C 
BRANCH  10  11
HETATM   11  C   UNK N   1      32.711  16.980   3.394  0.00  0.00     0.139 C 
HETATM   12  O   UNK N   1      33.128  16.196   2.554  0.00  0.00    -0.650 OA
BRANCH  11  13
HETATM   13  O   UNK N   1      31.550  17.627   3.179  0.00  0.00    -0.776 OA
HETATM   14  H   UNK N   1      31.528  18.563   3.185  0.00  0.00     0.167 HD
ENDBRANCH  11  13
ENDBRANCH  10  11
ENDBRANCH   9  10
ENDBRANCH   8   9
ENDBRANCH   7   8
ENDBRANCH   6   7
ENDBRANCH   5   6
ENDBRANCH   4   5
ENDBRANCH   1   4
BRANCH   1  15
HETATM   15  C   UNK N   1      28.541  18.188   7.267  0.00  0.00     0.004 C 
HETATM   16  C   UNK N   1      28.093  18.893   6.219  0.00  0.00    -0.002 C 
BRANCH  16  17
HETATM   17  C   UNK N   1      27.607  20.286   6.307  0.00  0.00    -0.004 C 
HETATM   18  C   UNK N   1      27.016  20.924   5.290  0.00  0.00    -0.027 C 
BRANCH  18  19
HETATM   19  C   UNK N   1      26.787  20.288   3.957  0.00  0.00     0.027 C 
BRANCH  19  20
HETATM   20  C   UNK N   1      25.299  20.144   3.727  0.00  0.00     0.004 C 
BRANCH  20  21
HETATM   21  C   UNK N   1      24.914  18.682   3.784  0.00  0.00    -0.000 C 
BRANCH  21  22
HETATM   22  C   UNK N   1      26.135  17.835   3.495  0.00  0.00    -0.005 C 
HETATM   23  C   UNK N   1      25.705  16.464   3.023  0.00  0.00     0.005 C 
ENDBRANCH  21  22
ENDBRANCH  20  21
ENDBRANCH  19  20
ENDBRANCH  18  19
ENDBRANCH  16  17
ENDBRANCH   1  15
TORSDOF 16
ENDMDL
MODEL 5
REMARK VINA RESULT:      -4.9     12.595     15.577
REMARK  16 active torsions:
REMARK  status: ('A' for Active; 'I' for Inactive)
REMARK    1  A    between atoms: C_10  and  O_1 
REMARK    2  A    between atoms: O_2  and  C_18 
REMARK    3  A    between atoms: C_4  and  C_5 
REMARK    4  A    between atoms: C_4  and  C_6 
REMARK    5  A    between atoms: C_5  and  C_7 
REMARK    6  A    between atoms: C_6  and  C_8 
REMARK    7  A    between atoms: C_7  and  C_9 
REMARK    8  A    between atoms: C_8  and  C_10 
REMARK    9  A    between atoms: C_9  and  C_11 
REMARK   10  A    between atoms: C_10  and  C_12 
REMARK   11  A    between atoms: C_11  and  C_18 
REMARK   12  A    between atoms: C_13  and  C_14 
REMARK   13  A    between atoms: C_13  and  C_15 
REMARK   14  A    between atoms: C_14  and  C_16 
REMARK   15  A    between atoms: C_15  and  C_19 
REMARK   16  A    between atoms: C_17  and  C_20 
ROOT
HETATM    1  C   UNK N   1      25.229  21.982  -7.546  0.00  0.00     0.141 C 
ENDROOT
BRANCH   1   2
HETATM    2  O   UNK N   1      23.991  21.723  -8.136  0.00  0.00    -0.392 OA
HETATM    3  H   UNK N   1      23.667  20.813  -8.223  0.00  0.00     0.210 HD
ENDBRANCH   1   2
BRANCH   1   4
HETATM    4  C   UNK N   1      26.294  21.111  -8.182  0.00  0.00     0.036 C 
BRANCH   4   5
HETATM    5  C   UNK N   1      27.680  21.711  -8.007  0.00  0.00     0.003 C 
BRANCH   5   6
HETATM    6  C   UNK N   1      28.752  20.638  -8.145  0.00  0.00     0.000 C 
BRANCH   6   7
HETATM    7  C   UNK N   1      29.542  20.483  -6.855  0.00  0.00     0.000 C 
BRANCH   7   8
HETATM    8  C   UNK N   1      29.483  21.762  -6.043  0.00  0.00     0.001 C 
BRANCH   8   9
HETATM    9  C   UNK N   1      30.536  21.718  -4.957  0.00  0.00     0.010 C 
BRANCH   9  10
HETATM   10  C   UNK N   1      29.882  21.917  -3.600  0.00  0.00     0.110 C 
BRANCH  10  11
HETATM   11  C   UNK N   1      30.874  22.242  -2.520  0.00  0.00     0.139 C 
HETATM   12  O   UNK N   1      30.659  23.136  -1.714  0.00  0.00    -0.650 OA
BRANCH  11  13
HETATM   13  O   UNK N   1      32.016  21.534  -2.437  0.00  0.00    -0.776 OA
HETATM   14  H   UNK N   1      32.072  20.688  -2.834  0.00  0.00     0.167 HD
ENDBRANCH  11  13
ENDBRANCH  10  11
ENDBRANCH   9  10
ENDBRANCH   8   9
ENDBRANCH   7   8
ENDBRANCH   6   7
ENDBRANCH   5   6
ENDBRANCH   4   5
ENDBRANCH   1   4
BRANCH   1  15
HETATM   15  C   UNK N   1      25.610  23.415  -7.766  0.00  0.00     0.004 C 
HETATM   16  C   UNK N   1      25.961  24.259  -6.786  0.00  0.00    -0.002 C 
BRANCH  16  17
HETATM   17  C   UNK N   1      26.037  23.882  -5.358  0.00  0.00    -0.004 C 
HETATM   18  C   UNK N   1      27.033  24.264  -4.549  0.00  0.00    -0.027 C 
BRANCH  18  19
HETATM   19  C   UNK N   1      28.171  25.115  -5.011  0.00  0.00     0.027 C 
BRANCH  19  20
HETATM   20  C   UNK N   1      28.381  26.240  -4.021  0.00  0.00     0.004 C 
BRANCH  20  21
HETATM   21  C   UNK N   1      27.079  26.982  -3.811  0.00  0.00    -0.000 C 
BRANCH  21  22
HETATM   22  C   UNK N   1      26.712  27.711  -5.085  0.00  0.00    -0.005 C 
HETATM   23  C   UNK N   1      25.231  27.557  -5.352  0.00  0.00     0.005 C 
ENDBRANCH  21  22
ENDBRANCH  20  21
ENDBRANCH  19  20
ENDBRANCH  18  19
ENDBRANCH  16  17
ENDBRANCH   1  15
TORSDOF 16
ENDMDL
MODEL 6
REMARK VINA RESULT:      -4.9     12.896     16.294
REMARK  16 active torsions:
REMARK  status: ('A' for Active; 'I' for Inactive)
REMARK    1  A    between atoms: C_10  and  O_1 
REMARK    2  A    between atoms: O_2  and  C_18 
REMARK    3  A    between atoms: C_4  and  C_5 
REMARK    4  A    between atoms: C_4  and  C_6 
REMARK    5  A    between atoms: C_5  and  C_7 
REMARK    6  A    between atoms: C_6  and  C_8 
REMARK    7  A    between atoms: C_7  and  C_9 
REMARK    8  A    between atoms: C_8  and  C_10 
REMARK    9  A    between atoms: C_9  and  C_11 
REMARK   10  A    between atoms: C_10  and  C_12 
REMARK   11  A    between atoms: C_11  and  C_18 
REMARK   12  A    between atoms: C_13  and  C_14 
REMARK   13  A    between atoms: C_13  and  C_15 
REMARK   14  A    between atoms: C_14  and  C_16 
REMARK   15  A    between atoms: C_15  and  C_19 
REMARK   16  A    between atoms: C_17  and  C_20 
ROOT
HETATM    1  C   UNK N   1      30.523  23.602  -2.927  0.00  0.00     0.141 C 
ENDROOT
BRANCH   1   2
HETATM    2  O   UNK N   1      30.696  22.998  -1.681  0.00  0.00    -0.392 OA
HETATM    3  H   UNK N   1      31.551  23.045  -1.224  0.00  0.00     0.210 HD
ENDBRANCH   1   2
BRANCH   1   4
HETATM    4  C   UNK N   1      31.072  22.702  -4.016  0.00  0.00     0.036 C 
BRANCH   4   5
HETATM    5  C   UNK N   1      30.206  21.467  -4.205  0.00  0.00     0.003 C 
BRANCH   5   6
HETATM    6  C   UNK N   1      30.053  21.138  -5.684  0.00  0.00     0.000 C 
BRANCH   6   7
HETATM    7  C   UNK N   1      29.557  22.344  -6.465  0.00  0.00     0.000 C 
BRANCH   7   8
HETATM    8  C   UNK N   1      28.297  21.993  -7.232  0.00  0.00     0.001 C 
BRANCH   8   9
HETATM    9  C   UNK N   1      27.132  22.786  -6.677  0.00  0.00     0.010 C 
BRANCH   9  10
HETATM   10  C   UNK N   1      26.120  23.049  -7.779  0.00  0.00     0.110 C 
BRANCH  10  11
HETATM   11  C   UNK N   1      25.082  21.967  -7.883  0.00  0.00     0.139 C 
HETATM   12  O   UNK N   1      24.363  21.691  -6.934  0.00  0.00    -0.650 OA
BRANCH  11  13
HETATM   13  O   UNK N   1      24.942  21.296  -9.040  0.00  0.00    -0.776 OA
HETATM   14  H   UNK N   1      24.569  20.437  -9.042  0.00  0.00     0.167 HD
ENDBRANCH  11  13
ENDBRANCH  10  11
ENDBRANCH   9  10
ENDBRANCH   8   9
ENDBRANCH   7   8
ENDBRANCH   6   7
ENDBRANCH   5   6
ENDBRANCH   4   5
ENDBRANCH   1   4
BRANCH   1  15
HETATM   15  C   UNK N   1      29.063  23.815  -3.193  0.00  0.00     0.004 C 
HETATM   16  C   UNK N   1      28.570  24.832  -3.913  0.00  0.00    -0.002 C 
BRANCH  16  17
HETATM   17  C   UNK N   1      29.404  25.870  -4.556  0.00  0.00    -0.004 C 
HETATM   18  C   UNK N   1      29.114  27.176  -4.512  0.00  0.00    -0.027 C 
BRANCH  18  19
HETATM   19  C   UNK N   1      27.915  27.717  -3.805  0.00  0.00     0.027 C 
BRANCH  19  20
HETATM   20  C   UNK N   1      27.236  28.737  -4.693  0.00  0.00     0.004 C 
BRANCH  20  21
HETATM   21  C   UNK N   1      26.531  28.033  -5.831  0.00  0.00    -0.000 C 
BRANCH  21  22
HETATM   22  C   UNK N   1      25.272  27.377  -5.306  0.00  0.00    -0.005 C 
HETATM   23  C   UNK N   1      25.263  25.913  -5.686  0.00  0.00     0.005 C 
ENDBRANCH  21  22
ENDBRANCH  20  21
ENDBRANCH  19  20
ENDBRANCH  18  19
ENDBRANCH  16  17
ENDBRANCH   1  15
TORSDOF 16
ENDMDL
MODEL 7
REMARK VINA RESULT:      -4.9     12.911     16.046
REMARK  16 active torsions:
REMARK  status: ('A' for Active; 'I' for Inactive)
REMARK    1  A    between atoms: C_10  and  O_1 
REMARK    2  A    between atoms: O_2  and  C_18 
REMARK    3  A    between atoms: C_4  and  C_5 
REMARK    4  A    between atoms: C_4  and  C_6 
REMARK    5  A    between atoms: C_5  and  C_7 
REMARK    6  A    between atoms: C_6  and  C_8 
REMARK    7  A    between atoms: C_7  and  C_9 
REMARK    8  A    between atoms: C_8  and  C_10 
REMARK    9  A    between atoms: C_9  and  C_11 
REMARK   10  A    between atoms: C_10  and  C_12 
REMARK   11  A    between atoms: C_11  and  C_18 
REMARK   12  A    between atoms: C_13  and  C_14 
REMARK   13  A    between atoms: C_13  and  C_15 
REMARK   14  A    between atoms: C_14  and  C_16 
REMARK   15  A    between atoms: C_15  and  C_19 
REMARK   16  A    between atoms: C_17  and  C_20 
ROOT
HETATM    1  C   UNK N   1      26.024  27.593  -4.155  0.00  0.00     0.141 C 
ENDROOT
BRANCH   1   2
HETATM    2  O   UNK N   1      25.425  28.581  -3.371  0.00  0.00    -0.392 OA
HETATM    3  H   UNK N   1      24.462  28.698  -3.378  0.00  0.00     0.210 HD
ENDBRANCH   1   2
BRANCH   1   4
HETATM    4  C   UNK N   1      26.447  26.429  -3.280  0.00  0.00     0.036 C 
BRANCH   4   5
HETATM    5  C   UNK N   1      26.188  25.097  -3.965  0.00  0.00     0.003 C 
BRANCH   5   6
HETATM    6  C   UNK N   1      27.481  24.306  -4.111  0.00  0.00     0.000 C 
BRANCH   6   7
HETATM    7  C   UNK N   1      28.683  25.232  -4.208  0.00  0.00     0.000 C 
BRANCH   7   8
HETATM    8  C   UNK N   1      29.844  24.519  -4.871  0.00  0.00     0.001 C 
BRANCH   8   9
HETATM    9  C   UNK N   1      31.070  24.623  -3.988  0.00  0.00     0.010 C 
BRANCH   9  10
HETATM   10  C   UNK N   1      31.753  23.269  -3.897  0.00  0.00     0.110 C 
BRANCH  10  11
HETATM   11  C   UNK N   1      31.301  22.470  -2.708  0.00  0.00     0.139 C 
HETATM   12  O   UNK N   1      30.730  23.006  -1.770  0.00  0.00    -0.650 OA
BRANCH  11  13
HETATM   13  O   UNK N   1      31.527  21.144  -2.679  0.00  0.00    -0.776 OA
HETATM   14  H   UNK N   1      30.914  20.574  -2.260  0.00  0.00     0.167 HD
ENDBRANCH  11  13
ENDBRANCH  10  11
ENDBRANCH   9  10
ENDBRANCH   8   9
ENDBRANCH   7   8
ENDBRANCH   6   7
ENDBRANCH   5   6
ENDBRANCH   4   5
ENDBRANCH   1   4
BRANCH   1  15
HETATM   15  C   UNK N   1      25.046  27.081  -5.168  0.00  0.00     0.004 C 
HETATM   16  C   UNK N   1      25.358  26.798  -6.440  0.00  0.00    -0.002 C 
BRANCH  16  17
HETATM   17  C   UNK N   1      26.715  26.938  -7.008  0.00  0.00    -0.004 C 
HETATM   18  C   UNK N   1      27.221  26.097  -7.918  0.00  0.00    -0.027 C 
BRANCH  18  19
HETATM   19  C   UNK N   1      26.460  24.928  -8.453  0.00  0.00     0.027 C 
BRANCH  19  20
HETATM   20  C   UNK N   1      26.924  23.671  -7.750  0.00  0.00     0.004 C 
BRANCH  20  21
HETATM   21  C   UNK N   1      25.756  23.024  -7.039  0.00  0.00    -0.000 C 
BRANCH  21  22
HETATM   22  C   UNK N   1      25.497  21.662  -7.647  0.00  0.00    -0.005 C 
HETATM   23  C   UNK N   1      26.766  21.140  -8.284  0.00  0.00     0.005 C 
ENDBRANCH  21  22
ENDBRANCH  20  21
ENDBRANCH  19  20
ENDBRANCH  18  19
ENDBRANCH  16  17
ENDBRANCH   1  15
TORSDOF 16
ENDMDL
MODEL 8
REMARK VINA RESULT:      -4.9      4.216      9.268
REMARK  16 active torsions:
REMARK  status: ('A' for Active; 'I' for Inactive)
REMARK    1  A    between atoms: C_10  and  O_1 
REMARK    2  A    between atoms: O_2  and  C_18 
REMARK    3  A    between atoms: C_4  and  C_5 
REMARK    4  A    between atoms: C_4  and  C_6 
REMARK    5  A    between atoms: C_5  and  C_7 
REMARK    6  A    between atoms: C_6  and  C_8 
REMARK    7  A    between atoms: C_7  and  C_9 
REMARK    8  A    between atoms: C_8  and  C_10 
REMARK    9  A    between atoms: C_9  and  C_11 
REMARK   10  A    between atoms: C_10  and  C_12 
REMARK   11  A    between atoms: C_11  and  C_18 
REMARK   12  A    between atoms: C_13  and  C_14 
REMARK   13  A    between atoms: C_13  and  C_15 
REMARK   14  A    between atoms: C_14  and  C_16 
REMARK   15  A    between atoms: C_15  and  C_19 
REMARK   16  A    between atoms: C_17  and  C_20 
ROOT
HETATM    1  C   UNK N   1      35.633  15.860  11.189  0.00  0.00     0.141 C 
ENDROOT
BRANCH   1   2
HETATM    2  O   UNK N   1      36.971  16.140  10.904  0.00  0.00    -0.392 OA
HETATM    3  H   UNK N   1      37.233  16.449  10.022  0.00  0.00     0.210 HD
ENDBRANCH   1   2
BRANCH   1   4
HETATM    4  C   UNK N   1      34.756  16.319  10.041  0.00  0.00     0.036 C 
BRANCH   4   5
HETATM    5  C   UNK N   1      33.696  15.282   9.704  0.00  0.00     0.003 C 
BRANCH   5   6
HETATM    6  C   UNK N   1      32.924  15.689   8.455  0.00  0.00     0.000 C 
BRANCH   6   7
HETATM    7  C   UNK N   1      31.609  16.360   8.817  0.00  0.00     0.000 C 
BRANCH   7   8
HETATM    8  C   UNK N   1      31.512  17.721   8.157  0.00  0.00     0.001 C 
BRANCH   8   9
HETATM    9  C   UNK N   1      30.554  18.593   8.940  0.00  0.00     0.010 C 
BRANCH   9  10
HETATM   10  C   UNK N   1      29.634  17.721   9.778  0.00  0.00     0.110 C 
BRANCH  10  11
HETATM   11  C   UNK N   1      28.204  17.780   9.323  0.00  0.00     0.139 C 
HETATM   12  O   UNK N   1      27.451  16.831   9.486  0.00  0.00    -0.650 OA
BRANCH  11  13
HETATM   13  O   UNK N   1      27.746  18.897   8.730  0.00  0.00    -0.776 OA
HETATM   14  H   UNK N   1      27.480  19.629   9.250  0.00  0.00     0.167 HD
ENDBRANCH  11  13
ENDBRANCH  10  11
ENDBRANCH   9  10
ENDBRANCH   8   9
ENDBRANCH   7   8
ENDBRANCH   6   7
ENDBRANCH   5   6
ENDBRANCH   4   5
ENDBRANCH   1   4
BRANCH   1  15
HETATM   15  C   UNK N   1      35.445  14.383  11.356  0.00  0.00     0.004 C 
HETATM   16  C   UNK N   1      35.646  13.723  12.505  0.00  0.00    -0.002 C 
BRANCH  16  17
HETATM   17  C   UNK N   1      36.063  14.370  13.767  0.00  0.00    -0.004 C 
HETATM   18  C   UNK N   1      36.800  13.755  14.699  0.00  0.00    -0.027 C 
BRANCH  18  19
HETATM   19  C   UNK N   1      37.278  12.346  14.556  0.00  0.00     0.027 C 
BRANCH  19  20
HETATM   20  C   UNK N   1      36.591  11.484  15.592  0.00  0.00     0.004 C 
BRANCH  20  21
HETATM   21  C   UNK N   1      36.035  10.241  14.932  0.00  0.00    -0.000 C 
BRANCH  21  22
HETATM   22  C   UNK N   1      34.604  10.038  15.384  0.00  0.00    -0.005 C 
HETATM   23  C   UNK N   1      33.694  10.987  14.635  0.00  0.00     0.005 C 
ENDBRANCH  21  22
ENDBRANCH  20  21
ENDBRANCH  19  20
ENDBRANCH  18  19
ENDBRANCH  16  17
ENDBRANCH   1  15
TORSDOF 16
ENDMDL
MODEL 9
REMARK VINA RESULT:      -4.8     12.857     15.828
REMARK  16 active torsions:
REMARK  status: ('A' for Active; 'I' for Inactive)
REMARK    1  A    between atoms: C_10  and  O_1 
REMARK    2  A    between atoms: O_2  and  C_18 
REMARK    3  A    between atoms: C_4  and  C_5 
REMARK    4  A    between atoms: C_4  and  C_6 
REMARK    5  A    between atoms: C_5  and  C_7 
REMARK    6  A    between atoms: C_6  and  C_8 
REMARK    7  A    between atoms: C_7  and  C_9 
REMARK    8  A    between atoms: C_8  and  C_10 
REMARK    9  A    between atoms: C_9  and  C_11 
REMARK   10  A    between atoms: C_10  and  C_12 
REMARK   11  A    between atoms: C_11  and  C_18 
REMARK   12  A    between atoms: C_13  and  C_14 
REMARK   13  A    between atoms: C_13  and  C_15 
REMARK   14  A    between atoms: C_14  and  C_16 
REMARK   15  A    between atoms: C_15  and  C_19 
REMARK   16  A    between atoms: C_17  and  C_20 
ROOT
HETATM    1  C   UNK N   1      27.497  28.199  -6.139  0.00  0.00     0.141 C 
ENDROOT
BRANCH   1   2
HETATM    2  O   UNK N   1      27.638  29.489  -5.624  0.00  0.00    -0.392 OA
HETATM    3  H   UNK N   1      28.021  30.197  -6.166  0.00  0.00     0.210 HD
ENDBRANCH   1   2
BRANCH   1   4
HETATM    4  C   UNK N   1      28.618  27.317  -5.627  0.00  0.00     0.036 C 
BRANCH   4   5
HETATM    5  C   UNK N   1      28.884  27.556  -4.149  0.00  0.00     0.003 C 
BRANCH   5   6
HETATM    6  C   UNK N   1      30.097  26.761  -3.685  0.00  0.00     0.000 C 
BRANCH   6   7
HETATM    7  C   UNK N   1      30.281  25.503  -4.519  0.00  0.00     0.000 C 
BRANCH   7   8
HETATM    8  C   UNK N   1      31.720  25.031  -4.449  0.00  0.00     0.001 C 
BRANCH   8   9
HETATM    9  C   UNK N   1      31.763  23.525  -4.602  0.00  0.00     0.010 C 
BRANCH   9  10
HETATM   10  C   UNK N   1      30.622  22.897  -3.819  0.00  0.00     0.110 C 
BRANCH  10  11
HETATM   11  C   UNK N   1      31.005  22.560  -2.406  0.00  0.00     0.139 C 
HETATM   12  O   UNK N   1      30.433  23.078  -1.458  0.00  0.00    -0.650 OA
BRANCH  11  13
HETATM   13  O   UNK N   1      31.989  21.671  -2.183  0.00  0.00    -0.776 OA
HETATM   14  H   UNK N   1      31.784  20.767  -2.054  0.00  0.00     0.167 HD
ENDBRANCH  11  13
ENDBRANCH  10  11
ENDBRANCH   9  10
ENDBRANCH   8   9
ENDBRANCH   7   8
ENDBRANCH   6   7
ENDBRANCH   5   6
ENDBRANCH   4   5
ENDBRANCH   1   4
BRANCH   1  15
HETATM   15  C   UNK N   1      26.197  27.608  -5.685  0.00  0.00     0.004 C 
HETATM   16  C   UNK N   1      25.437  26.796  -6.434  0.00  0.00    -0.002 C 
BRANCH  16  17
HETATM   17  C   UNK N   1      25.792  26.362  -7.802  0.00  0.00    -0.004 C 
HETATM   18  C   UNK N   1      25.946  25.079  -8.149  0.00  0.00    -0.027 C 
BRANCH  18  19
HETATM   19  C   UNK N   1      25.773  23.952  -7.183  0.00  0.00     0.027 C 
BRANCH  19  20
HETATM   20  C   UNK N   1      27.108  23.273  -6.971  0.00  0.00     0.004 C 
BRANCH  20  21
HETATM   21  C   UNK N   1      27.610  23.559  -5.573  0.00  0.00    -0.000 C 
BRANCH  21  22
HETATM   22  C   UNK N   1      26.437  23.936  -4.693  0.00  0.00    -0.005 C 
HETATM   23  C   UNK N   1      26.943  24.467  -3.370  0.00  0.00     0.005 C 
ENDBRANCH  21  22
ENDBRANCH  20  21
ENDBRANCH  19  20
ENDBRANCH  18  19
ENDBRANCH  16  17
ENDBRANCH   1  15
TORSDOF 16
ENDMDL
