MODEL 1
REMARK VINA RESULT:      -7.9      0.000      0.000
REMARK  1 active torsions:
REMARK  status: ('A' for Active; 'I' for Inactive)
REMARK    1  A    between atoms: C_17  and  O_20 
ROOT
HETATM    1  C   UNK N   1      34.475   8.336  19.725  0.00  0.00     0.084 C 
HETATM    2  C   UNK N   1      34.883   9.246  20.858  0.00  0.00     0.149 C 
HETATM    3  C   UNK N   1      35.058  10.698  20.636  0.00  0.00     0.053 C 
HETATM    4  C   UNK N   1      35.105  11.206  19.394  0.00  0.00    -0.068 C 
HETATM    5  C   UNK N   1      35.161  10.261  18.197  0.00  0.00    -0.016 C 
HETATM    6  C   UNK N   1      34.166   9.111  18.431  0.00  0.00     0.022 C 
HETATM    7  C   UNK N   1      35.288  12.698  19.255  0.00  0.00     0.035 C 
HETATM    8  C   UNK N   1      35.230  13.255  17.830  0.00  0.00     0.010 C 
HETATM    9  C   UNK N   1      35.697  12.277  16.751  0.00  0.00    -0.004 C 
HETATM   10  C   UNK N   1      34.845  10.985  16.862  0.00  0.00     0.002 C 
HETATM   11  C   UNK N   1      35.494  12.902  15.361  0.00  0.00     0.001 C 
HETATM   12  C   UNK N   1      35.872  11.936  14.245  0.00  0.00    -0.014 C 
HETATM   13  C   UNK N   1      34.936  10.726  14.297  0.00  0.00     0.012 C 
HETATM   14  C   UNK N   1      35.070  10.028  15.661  0.00  0.00     0.007 C 
HETATM   15  C   UNK N   1      36.313  14.139  15.029  0.00  0.00     0.008 C 
HETATM   16  C   UNK N   1      36.338  14.163  13.491  0.00  0.00     0.033 C 
HETATM   17  C   UNK N   1      35.758  12.821  13.009  0.00  0.00     0.126 C 
HETATM   18  O   UNK N   1      35.065   8.780  21.969  0.00  0.00    -0.293 OA
HETATM   19  C   UNK N   1      37.327  11.450  14.338  0.00  0.00     0.018 C 
HETATM   20  C   UNK N   1      36.579   9.673  18.142  0.00  0.00     0.020 C 
ENDROOT
BRANCH  17  21
HETATM   21  O   UNK N   1      34.420  13.019  12.656  0.00  0.00    -0.395 OA
HETATM   22  H   UNK N   1      33.454  13.039  12.573  0.00  0.00     0.210 HD
ENDBRANCH  17  21
TORSDOF 1
ENDMDL
MODEL 2
REMARK VINA RESULT:      -7.6     14.619     17.235
REMARK  1 active torsions:
REMARK  status: ('A' for Active; 'I' for Inactive)
REMARK    1  A    between atoms: C_17  and  O_20 
ROOT
HETATM    1  C   UNK N   1      21.776  16.235   4.374  0.00  0.00     0.084 C 
HETATM    2  C   UNK N   1      20.316  16.457   4.690  0.00  0.00     0.149 C 
HETATM    3  C   UNK N   1      19.796  16.231   6.056  0.00  0.00     0.053 C 
HETATM    4  C   UNK N   1      20.534  15.594   6.980  0.00  0.00    -0.068 C 
HETATM    5  C   UNK N   1      21.848  14.935   6.568  0.00  0.00    -0.016 C 
HETATM    6  C   UNK N   1      22.602  15.889   5.625  0.00  0.00     0.022 C 
HETATM    7  C   UNK N   1      19.928  15.403   8.349  0.00  0.00     0.035 C 
HETATM    8  C   UNK N   1      20.836  14.770   9.406  0.00  0.00     0.010 C 
HETATM    9  C   UNK N   1      21.886  13.809   8.843  0.00  0.00    -0.004 C 
HETATM   10  C   UNK N   1      22.732  14.575   7.791  0.00  0.00     0.002 C 
HETATM   11  C   UNK N   1      22.803  13.321   9.976  0.00  0.00     0.001 C 
HETATM   12  C   UNK N   1      23.917  12.422   9.454  0.00  0.00    -0.014 C 
HETATM   13  C   UNK N   1      24.813  13.233   8.515  0.00  0.00     0.012 C 
HETATM   14  C   UNK N   1      23.977  13.767   7.339  0.00  0.00     0.007 C 
HETATM   15  C   UNK N   1      22.169  12.475  11.068  0.00  0.00     0.008 C 
HETATM   16  C   UNK N   1      23.354  11.701  11.670  0.00  0.00     0.033 C 
HETATM   17  C   UNK N   1      24.563  11.937  10.747  0.00  0.00     0.126 C 
HETATM   18  O   UNK N   1      19.559  16.830   3.811  0.00  0.00    -0.293 OA
HETATM   19  C   UNK N   1      23.391  11.187   8.705  0.00  0.00     0.018 C 
HETATM   20  C   UNK N   1      21.499  13.659   5.790  0.00  0.00     0.020 C 
ENDROOT
BRANCH  17  21
HETATM   21  O   UNK N   1      25.362  12.935  11.313  0.00  0.00    -0.395 OA
HETATM   22  H   UNK N   1      25.772  13.753  11.635  0.00  0.00     0.210 HD
ENDBRANCH  17  21
TORSDOF 1
ENDMDL
MODEL 3
REMARK VINA RESULT:      -7.4      2.311      4.398
REMARK  1 active torsions:
REMARK  status: ('A' for Active; 'I' for Inactive)
REMARK    1  A    between atoms: C_17  and  O_20 
ROOT
HETATM    1  C   UNK N   1      34.999  12.769  17.680  0.00  0.00     0.084 C 
HETATM    2  C   UNK N   1      35.394  11.337  17.950  0.00  0.00     0.149 C 
HETATM    3  C   UNK N   1      36.310  10.621  17.035  0.00  0.00     0.053 C 
HETATM    4  C   UNK N   1      36.612  11.124  15.827  0.00  0.00    -0.068 C 
HETATM    5  C   UNK N   1      35.867  12.354  15.317  0.00  0.00    -0.016 C 
HETATM    6  C   UNK N   1      35.739  13.365  16.470  0.00  0.00     0.022 C 
HETATM    7  C   UNK N   1      37.553  10.328  14.954  0.00  0.00     0.035 C 
HETATM    8  C   UNK N   1      37.960  10.982  13.632  0.00  0.00     0.010 C 
HETATM    9  C   UNK N   1      36.907  11.923  13.042  0.00  0.00    -0.004 C 
HETATM   10  C   UNK N   1      36.576  13.007  14.102  0.00  0.00     0.002 C 
HETATM   11  C   UNK N   1      37.465  12.600  11.779  0.00  0.00     0.001 C 
HETATM   12  C   UNK N   1      36.483  13.608  11.197  0.00  0.00    -0.014 C 
HETATM   13  C   UNK N   1      36.267  14.735  12.211  0.00  0.00     0.012 C 
HETATM   14  C   UNK N   1      35.704  14.151  13.517  0.00  0.00     0.007 C 
HETATM   15  C   UNK N   1      37.776  11.705  10.591  0.00  0.00     0.008 C 
HETATM   16  C   UNK N   1      37.740  12.663   9.388  0.00  0.00     0.033 C 
HETATM   17  C   UNK N   1      37.169  14.000   9.893  0.00  0.00     0.126 C 
HETATM   18  O   UNK N   1      34.958  10.767  18.935  0.00  0.00    -0.293 OA
HETATM   19  C   UNK N   1      35.124  12.986  10.840  0.00  0.00     0.018 C 
HETATM   20  C   UNK N   1      34.457  11.901  14.910  0.00  0.00     0.020 C 
ENDROOT
BRANCH  17  21
HETATM   21  O   UNK N   1      38.234  14.874  10.130  0.00  0.00    -0.395 OA
HETATM   22  H   UNK N   1      39.014  15.354  10.448  0.00  0.00     0.210 HD
ENDBRANCH  17  21
TORSDOF 1
ENDMDL
MODEL 4
REMARK VINA RESULT:      -7.2     26.223     28.104
REMARK  1 active torsions:
REMARK  status: ('A' for Active; 'I' for Inactive)
REMARK    1  A    between atoms: C_17  and  O_20 
ROOT
HETATM    1  C   UNK N   1      26.753  21.497  -8.194  0.00  0.00     0.084 C 
HETATM    2  C   UNK N   1      28.158  21.026  -7.907  0.00  0.00     0.149 C 
HETATM    3  C   UNK N   1      28.949  21.631  -6.813  0.00  0.00     0.053 C 
HETATM    4  C   UNK N   1      28.548  22.765  -6.216  0.00  0.00    -0.068 C 
HETATM    5  C   UNK N   1      27.362  23.537  -6.789  0.00  0.00    -0.016 C 
HETATM    6  C   UNK N   1      26.259  22.534  -7.169  0.00  0.00     0.022 C 
HETATM    7  C   UNK N   1      29.414  23.317  -5.109  0.00  0.00     0.035 C 
HETATM    8  C   UNK N   1      28.872  24.549  -4.380  0.00  0.00     0.010 C 
HETATM    9  C   UNK N   1      27.981  25.449  -5.237  0.00  0.00    -0.004 C 
HETATM   10  C   UNK N   1      26.813  24.591  -5.792  0.00  0.00     0.002 C 
HETATM   11  C   UNK N   1      27.411  26.588  -4.376  0.00  0.00     0.001 C 
HETATM   12  C   UNK N   1      26.452  27.469  -5.165  0.00  0.00    -0.014 C 
HETATM   13  C   UNK N   1      25.246  26.631  -5.596  0.00  0.00     0.012 C 
HETATM   14  C   UNK N   1      25.719  25.459  -6.471  0.00  0.00     0.007 C 
HETATM   15  C   UNK N   1      28.402  27.590  -3.806  0.00  0.00     0.008 C 
HETATM   16  C   UNK N   1      27.545  28.838  -3.528  0.00  0.00     0.033 C 
HETATM   17  C   UNK N   1      26.170  28.594  -4.175  0.00  0.00     0.126 C 
HETATM   18  O   UNK N   1      28.645  20.135  -8.581  0.00  0.00    -0.293 OA
HETATM   19  C   UNK N   1      27.099  28.096  -6.411  0.00  0.00     0.018 C 
HETATM   20  C   UNK N   1      27.844  24.238  -8.067  0.00  0.00     0.020 C 
ENDROOT
BRANCH  17  21
HETATM   21  O   UNK N   1      25.281  28.175  -3.181  0.00  0.00    -0.395 OA
HETATM   22  H   UNK N   1      24.746  28.037  -2.384  0.00  0.00     0.210 HD
ENDBRANCH  17  21
TORSDOF 1
ENDMDL
MODEL 5
REMARK VINA RESULT:      -7.1     22.779     25.586
REMARK  1 active torsions:
REMARK  status: ('A' for Active; 'I' for Inactive)
REMARK    1  A    between atoms: C_17  and  O_20 
ROOT
HETATM    1  C   UNK N   1      32.450  20.170  -5.250  0.00  0.00     0.084 C 
HETATM    2  C   UNK N   1      33.097  20.574  -3.947  0.00  0.00     0.149 C 
HETATM    3  C   UNK N   1      32.368  21.409  -2.968  0.00  0.00     0.053 C 
HETATM    4  C   UNK N   1      31.227  22.032  -3.306  0.00  0.00    -0.068 C 
HETATM    5  C   UNK N   1      30.772  22.029  -4.762  0.00  0.00    -0.016 C 
HETATM    6  C   UNK N   1      30.980  20.619  -5.340  0.00  0.00     0.022 C 
HETATM    7  C   UNK N   1      30.547  22.867  -2.247  0.00  0.00     0.035 C 
HETATM    8  C   UNK N   1      29.196  23.474  -2.633  0.00  0.00     0.010 C 
HETATM    9  C   UNK N   1      29.042  23.775  -4.125  0.00  0.00    -0.004 C 
HETATM   10  C   UNK N   1      29.290  22.461  -4.914  0.00  0.00     0.002 C 
HETATM   11  C   UNK N   1      27.617  24.278  -4.409  0.00  0.00     0.001 C 
HETATM   12  C   UNK N   1      27.387  24.516  -5.897  0.00  0.00    -0.014 C 
HETATM   13  C   UNK N   1      27.514  23.184  -6.640  0.00  0.00     0.012 C 
HETATM   14  C   UNK N   1      28.918  22.599  -6.415  0.00  0.00     0.007 C 
HETATM   15  C   UNK N   1      27.211  25.603  -3.787  0.00  0.00     0.008 C 
HETATM   16  C   UNK N   1      26.052  26.088  -4.675  0.00  0.00     0.033 C 
HETATM   17  C   UNK N   1      26.005  25.161  -5.903  0.00  0.00     0.126 C 
HETATM   18  O   UNK N   1      34.231  20.204  -3.697  0.00  0.00    -0.293 OA
HETATM   19  C   UNK N   1      28.375  25.526  -6.502  0.00  0.00     0.018 C 
HETATM   20  C   UNK N   1      31.675  23.006  -5.528  0.00  0.00     0.020 C 
ENDROOT
BRANCH  17  21
HETATM   21  O   UNK N   1      25.006  24.205  -5.698  0.00  0.00    -0.395 OA
HETATM   22  H   UNK N   1      24.444  23.465  -5.422  0.00  0.00     0.210 HD
ENDBRANCH  17  21
TORSDOF 1
ENDMDL
MODEL 6
REMARK VINA RESULT:      -6.9     23.356     25.865
REMARK  1 active torsions:
REMARK  status: ('A' for Active; 'I' for Inactive)
REMARK    1  A    between atoms: C_17  and  O_20 
ROOT
HETATM    1  C   UNK N   1      33.204  21.342  -3.867  0.00  0.00     0.084 C 
HETATM    2  C   UNK N   1      32.861  20.068  -4.600  0.00  0.00     0.149 C 
HETATM    3  C   UNK N   1      31.731  20.025  -5.552  0.00  0.00     0.053 C 
HETATM    4  C   UNK N   1      30.835  21.024  -5.607  0.00  0.00    -0.068 C 
HETATM    5  C   UNK N   1      30.877  22.129  -4.555  0.00  0.00    -0.016 C 
HETATM    6  C   UNK N   1      32.343  22.533  -4.324  0.00  0.00     0.022 C 
HETATM    7  C   UNK N   1      29.710  20.901  -6.606  0.00  0.00     0.035 C 
HETATM    8  C   UNK N   1      28.771  22.105  -6.716  0.00  0.00     0.010 C 
HETATM    9  C   UNK N   1      28.622  22.909  -5.423  0.00  0.00    -0.004 C 
HETATM   10  C   UNK N   1      30.035  23.364  -4.968  0.00  0.00     0.002 C 
HETATM   11  C   UNK N   1      27.747  24.147  -5.680  0.00  0.00     0.001 C 
HETATM   12  C   UNK N   1      27.633  25.026  -4.441  0.00  0.00    -0.014 C 
HETATM   13  C   UNK N   1      29.020  25.565  -4.084  0.00  0.00     0.012 C 
HETATM   14  C   UNK N   1      29.974  24.391  -3.806  0.00  0.00     0.007 C 
HETATM   15  C   UNK N   1      26.295  23.905  -6.058  0.00  0.00     0.008 C 
HETATM   16  C   UNK N   1      25.592  25.221  -5.683  0.00  0.00     0.033 C 
HETATM   17  C   UNK N   1      26.603  26.061  -4.882  0.00  0.00     0.126 C 
HETATM   18  O   UNK N   1      33.527  19.065  -4.408  0.00  0.00    -0.293 OA
HETATM   19  C   UNK N   1      27.055  24.281  -3.227  0.00  0.00     0.018 C 
HETATM   20  C   UNK N   1      30.323  21.541  -3.249  0.00  0.00     0.020 C 
ENDROOT
BRANCH  17  21
HETATM   21  O   UNK N   1      27.175  27.003  -5.741  0.00  0.00    -0.395 OA
HETATM   22  H   UNK N   1      27.414  27.771  -6.282  0.00  0.00     0.210 HD
ENDBRANCH  17  21
TORSDOF 1
ENDMDL
MODEL 7
REMARK VINA RESULT:      -6.9      1.036      6.225
REMARK  1 active torsions:
REMARK  status: ('A' for Active; 'I' for Inactive)
REMARK    1  A    between atoms: C_17  and  O_20 
ROOT
HETATM    1  C   UNK N   1      36.855  11.401  13.915  0.00  0.00     0.084 C 
HETATM    2  C   UNK N   1      36.293  12.801  13.916  0.00  0.00     0.149 C 
HETATM    3  C   UNK N   1      35.874  13.447  15.179  0.00  0.00     0.053 C 
HETATM    4  C   UNK N   1      35.747  12.734  16.310  0.00  0.00    -0.068 C 
HETATM    5  C   UNK N   1      35.858  11.213  16.256  0.00  0.00    -0.016 C 
HETATM    6  C   UNK N   1      37.034  10.838  15.337  0.00  0.00     0.022 C 
HETATM    7  C   UNK N   1      35.313  13.469  17.555  0.00  0.00     0.035 C 
HETATM    8  C   UNK N   1      35.282  12.648  18.846  0.00  0.00     0.010 C 
HETATM    9  C   UNK N   1      34.993  11.160  18.642  0.00  0.00    -0.004 C 
HETATM   10  C   UNK N   1      36.053  10.589  17.662  0.00  0.00     0.002 C 
HETATM   11  C   UNK N   1      35.093  10.422  19.987  0.00  0.00     0.001 C 
HETATM   12  C   UNK N   1      34.892   8.921  19.825  0.00  0.00    -0.014 C 
HETATM   13  C   UNK N   1      36.020   8.358  18.957  0.00  0.00     0.012 C 
HETATM   14  C   UNK N   1      36.000   9.039  17.580  0.00  0.00     0.007 C 
HETATM   15  C   UNK N   1      34.078  10.787  21.057  0.00  0.00     0.008 C 
HETATM   16  C   UNK N   1      34.057   9.556  21.981  0.00  0.00     0.033 C 
HETATM   17  C   UNK N   1      34.859   8.448  21.275  0.00  0.00     0.126 C 
HETATM   18  O   UNK N   1      36.187  13.409  12.865  0.00  0.00    -0.293 OA
HETATM   19  C   UNK N   1      33.540   8.562  19.188  0.00  0.00     0.018 C 
HETATM   20  C   UNK N   1      34.562  10.678  15.630  0.00  0.00     0.020 C 
ENDROOT
BRANCH  17  21
HETATM   21  O   UNK N   1      36.146   8.418  21.821  0.00  0.00    -0.395 OA
HETATM   22  H   UNK N   1      37.065   8.566  22.090  0.00  0.00     0.210 HD
ENDBRANCH  17  21
TORSDOF 1
ENDMDL
MODEL 8
REMARK VINA RESULT:      -6.7     22.883     26.460
REMARK  1 active torsions:
REMARK  status: ('A' for Active; 'I' for Inactive)
REMARK    1  A    between atoms: C_17  and  O_20 
ROOT
HETATM    1  C   UNK N   1      26.109  24.044  -6.866  0.00  0.00     0.084 C 
HETATM    2  C   UNK N   1      26.092  23.239  -8.143  0.00  0.00     0.149 C 
HETATM    3  C   UNK N   1      26.983  22.071  -8.310  0.00  0.00     0.053 C 
HETATM    4  C   UNK N   1      27.992  21.842  -7.454  0.00  0.00    -0.068 C 
HETATM    5  C   UNK N   1      28.338  22.894  -6.404  0.00  0.00    -0.016 C 
HETATM    6  C   UNK N   1      27.031  23.432  -5.797  0.00  0.00     0.022 C 
HETATM    7  C   UNK N   1      28.856  20.628  -7.699  0.00  0.00     0.035 C 
HETATM    8  C   UNK N   1      29.926  20.340  -6.644  0.00  0.00     0.010 C 
HETATM    9  C   UNK N   1      30.460  21.582  -5.929  0.00  0.00    -0.004 C 
HETATM   10  C   UNK N   1      29.258  22.329  -5.290  0.00  0.00     0.002 C 
HETATM   11  C   UNK N   1      31.445  21.164  -4.825  0.00  0.00     0.001 C 
HETATM   12  C   UNK N   1      31.945  22.363  -4.029  0.00  0.00    -0.014 C 
HETATM   13  C   UNK N   1      30.761  23.009  -3.306  0.00  0.00     0.012 C 
HETATM   14  C   UNK N   1      29.715  23.466  -4.337  0.00  0.00     0.007 C 
HETATM   15  C   UNK N   1      32.733  20.487  -5.263  0.00  0.00     0.008 C 
HETATM   16  C   UNK N   1      33.693  20.723  -4.085  0.00  0.00     0.033 C 
HETATM   17  C   UNK N   1      33.010  21.729  -3.141  0.00  0.00     0.126 C 
HETATM   18  O   UNK N   1      25.333  23.553  -9.043  0.00  0.00    -0.293 OA
HETATM   19  C   UNK N   1      32.637  23.419  -4.905  0.00  0.00     0.018 C 
HETATM   20  C   UNK N   1      29.050  24.047  -7.125  0.00  0.00     0.020 C 
ENDROOT
BRANCH  17  21
HETATM   21  O   UNK N   1      32.426  21.020  -2.087  0.00  0.00    -0.395 OA
HETATM   22  H   UNK N   1      32.135  20.375  -1.424  0.00  0.00     0.210 HD
ENDBRANCH  17  21
TORSDOF 1
ENDMDL
MODEL 9
REMARK VINA RESULT:      -6.7      2.279      4.087
REMARK  1 active torsions:
REMARK  status: ('A' for Active; 'I' for Inactive)
REMARK    1  A    between atoms: C_17  and  O_20 
ROOT
HETATM    1  C   UNK N   1      35.395  14.373  18.140  0.00  0.00     0.084 C 
HETATM    2  C   UNK N   1      35.171  13.134  18.971  0.00  0.00     0.149 C 
HETATM    3  C   UNK N   1      35.591  11.805  18.475  0.00  0.00     0.053 C 
HETATM    4  C   UNK N   1      35.947  11.627  17.193  0.00  0.00    -0.068 C 
HETATM    5  C   UNK N   1      35.745  12.762  16.193  0.00  0.00    -0.016 C 
HETATM    6  C   UNK N   1      36.184  14.082  16.850  0.00  0.00     0.022 C 
HETATM    7  C   UNK N   1      36.360  10.238  16.768  0.00  0.00     0.035 C 
HETATM    8  C   UNK N   1      36.861  10.095  15.329  0.00  0.00     0.010 C 
HETATM    9  C   UNK N   1      36.252  11.096  14.345  0.00  0.00    -0.004 C 
HETATM   10  C   UNK N   1      36.529  12.529  14.875  0.00  0.00     0.002 C 
HETATM   11  C   UNK N   1      36.905  10.929  12.964  0.00  0.00     0.001 C 
HETATM   12  C   UNK N   1      36.389  11.958  11.966  0.00  0.00    -0.014 C 
HETATM   13  C   UNK N   1      36.783  13.357  12.445  0.00  0.00     0.012 C 
HETATM   14  C   UNK N   1      36.169  13.619  13.831  0.00  0.00     0.007 C 
HETATM   15  C   UNK N   1      36.676   9.612  12.241  0.00  0.00     0.008 C 
HETATM   16  C   UNK N   1      36.922   9.955  10.762  0.00  0.00     0.033 C 
HETATM   17  C   UNK N   1      37.032  11.487  10.666  0.00  0.00     0.126 C 
HETATM   18  O   UNK N   1      34.643  13.230  20.065  0.00  0.00    -0.293 OA
HETATM   19  C   UNK N   1      34.864  11.901  11.779  0.00  0.00     0.018 C 
HETATM   20  C   UNK N   1      34.242  12.847  15.890  0.00  0.00     0.020 C 
ENDROOT
BRANCH  17  21
HETATM   21  O   UNK N   1      38.386  11.831  10.623  0.00  0.00    -0.395 OA
HETATM   22  H   UNK N   1      39.326  12.007  10.787  0.00  0.00     0.210 HD
ENDBRANCH  17  21
TORSDOF 1
ENDMDL
