REMARK  0 active torsions:
REMARK  status: ('A' for Active; 'I' for Inactive)
ROOT
HETATM    1  C   UNK N   1      11.637  -8.903  -0.053  0.00  0.00     0.001 C 
HETATM    2  C   UNK N   1      11.694 -10.432  -0.087  0.00  0.00    -0.064 C 
HETATM    3  C   UNK N   1      10.419  -8.389  -0.801  0.00  0.00    -0.009 C 
HETATM    4  C   UNK N   1      10.543 -11.125   0.008  0.00  0.00     0.058 C 
HETATM    5  C   UNK N   1       9.260  -9.066  -0.747  0.00  0.00     0.052 C 
HETATM    6  C   UNK N   1       9.253 -10.427  -0.175  0.00  0.00     0.171 C 
HETATM    7  C   UNK N   1      14.161  -8.904   0.151  0.00  0.00    -0.004 C 
HETATM    8  C   UNK N   1      14.230 -10.396  -0.191  0.00  0.00     0.010 C 
HETATM    9  C   UNK N   1      12.955  -8.263  -0.580  0.00  0.00     0.006 C 
HETATM   10  C   UNK N   1      12.974 -11.154   0.244  0.00  0.00     0.036 C 
HETATM   11  C   UNK N   1      15.431  -6.682   0.028  0.00  0.00     0.021 C 
HETATM   12  C   UNK N   1      15.503  -8.205  -0.150  0.00  0.00     0.006 C 
HETATM   13  C   UNK N   1      14.244  -6.079  -0.737  0.00  0.00     0.018 C 
HETATM   14  C   UNK N   1      12.929  -6.740  -0.342  0.00  0.00     0.007 C 
HETATM   15  C   UNK N   1      16.677  -6.275  -0.668  0.00  0.00     0.135 C 
HETATM   16  C   UNK N   1      17.222  -7.325  -1.574  0.00  0.00     0.079 C 
HETATM   17  C   UNK N   1      16.110  -8.382  -1.540  0.00  0.00     0.013 C 
HETATM   18  C   UNK N   1      15.408  -6.289   1.501  0.00  0.00     0.024 C 
HETATM   19  O   UNK N   1      17.124  -5.138  -0.635  0.00  0.00    -0.297 OA
HETATM   20  O   UNK N   1       8.200 -10.994   0.067  0.00  0.00    -0.289 OA
HETATM   21  C   UNK N   1      11.423  -8.518   1.417  0.00  0.00     0.025 C 
ENDROOT
TORSDOF 0
