REMARK  0 active torsions:
REMARK  status: ('A' for Active; 'I' for Inactive)
ROOT
HETATM    1  C   UNK N   1       5.298   0.237   0.000  0.00  0.00     0.002 A 
HETATM    2  C   UNK N   1       4.893   1.593   0.000  0.00  0.00     0.001 A 
HETATM    3  C   UNK N   1       3.528   1.929   0.000  0.00  0.00     0.014 A 
HETATM    4  C   UNK N   1       2.609   0.886   0.000  0.00  0.00     0.003 A 
HETATM    5  C   UNK N   1       2.997  -0.435   0.000  0.00  0.00     0.043 A 
HETATM    6  C   UNK N   1       4.342  -0.797   0.000  0.00  0.00     0.030 A 
HETATM    7  N   UNK N   1       1.926  -1.264  -0.000  0.00  0.00    -0.355 N 
HETATM    8  C   UNK N   1       0.855  -0.435  -0.000  0.00  0.00     0.043 A 
HETATM    9  C   UNK N   1      -0.489  -0.796  -0.000  0.00  0.00     0.030 A 
HETATM   10  C   UNK N   1      -1.445   0.239  -0.000  0.00  0.00     0.002 A 
HETATM   11  C   UNK N   1      -1.039   1.594  -0.000  0.00  0.00     0.001 A 
HETATM   12  C   UNK N   1       0.326   1.930  -0.000  0.00  0.00     0.014 A 
HETATM   13  C   UNK N   1       1.244   0.886  -0.000  0.00  0.00     0.003 A 
HETATM   14  H   UNK N   1       1.926  -2.248  -0.000  0.00  0.00     0.166 HD
ENDROOT
TORSDOF 0
