MODEL 1
REMARK VINA RESULT:      -8.6      0.000      0.000
REMARK  6 active torsions:
REMARK  status: ('A' for Active; 'I' for Inactive)
REMARK    1  A    between atoms: C_16  and  C_14 
REMARK    2  A    between atoms: N_26  and  C_14 
REMARK    3  A    between atoms: C_23  and  C_17 
REMARK    4  A    between atoms: C_25  and  C_18 
REMARK    5  A    between atoms: C_20  and  N_26 
REMARK    6  A    between atoms: O_30  and  C_25 
ROOT
HETATM    1  C   UNK N   1      34.837  14.541   9.573  0.00  0.00     0.010 C 
HETATM    2  C   UNK N   1      34.754  13.319  10.243  0.00  0.00     0.015 C 
HETATM    3  C   UNK N   1      35.823  15.599  11.548  0.00  0.00     0.017 C 
HETATM    4  C   UNK N   1      36.052  14.110  13.653  0.00  0.00     0.083 C 
HETATM    5  C   UNK N   1      35.319  15.684  10.236  0.00  0.00    -0.040 C 
HETATM    6  C   UNK N   1      35.771  14.370  12.187  0.00  0.00    -0.041 C 
HETATM    7  C   UNK N   1      35.172  13.290  11.560  0.00  0.00    -0.001 C 
HETATM    8  C   UNK N   1      35.340  12.792  13.734  0.00  0.00     0.004 A 
HETATM    9  C   UNK N   1      34.964  11.851  14.647  0.00  0.00     0.067 A 
HETATM   10  C   UNK N   1      34.900  12.338  12.569  0.00  0.00     0.067 A 
HETATM   11  N   UNK N   1      34.282  10.871  14.006  0.00  0.00    -0.299 N 
ATOM     12  HN  UNK N   1      33.880  10.039  14.438  1.00  0.00     0.187 HD
HETATM   13  N   UNK N   1      34.229  11.190  12.704  0.00  0.00    -0.299 N 
HETATM   14  H   UNK N   1      33.783  10.680  11.990  0.00  0.00     0.187 HD
ENDROOT
BRANCH   5  15
HETATM   15  C   UNK N   1      34.930  17.002   9.672  0.00  0.00     0.153 C 
BRANCH  15  16
HETATM   16  N   UNK N   1      33.526  17.034   9.351  0.00  0.00    -0.413 N 
HETATM   17  H   UNK N   1      32.808  16.446   9.774  0.00  0.00     0.153 HD
BRANCH  16  18
HETATM   18  C   UNK N   1      33.298  18.045   8.325  0.00  0.00     0.076 C 
HETATM   19  C   UNK N   1      33.907  17.582   7.001  0.00  0.00     0.025 C 
HETATM   20  C   UNK N   1      33.293  16.247   6.578  0.00  0.00     0.006 C 
HETATM   21  C   UNK N   1      31.768  16.338   6.498  0.00  0.00    -0.019 C 
HETATM   22  C   UNK N   1      31.214  14.956   6.238  0.00  0.00     0.010 C 
HETATM   23  C   UNK N   1      31.166  16.872   7.797  0.00  0.00     0.006 C 
HETATM   24  C   UNK N   1      31.795  18.216   8.163  0.00  0.00     0.025 C 
ENDBRANCH  16  18
ENDBRANCH  15  16
ENDBRANCH   5  15
BRANCH   9  25
HETATM   25  C   UNK N   1      35.370  11.857  16.050  0.00  0.00    -0.007 A 
HETATM   26  C   UNK N   1      34.976  12.894  16.897  0.00  0.00     0.015 A 
HETATM   27  C   UNK N   1      35.077  12.725  18.281  0.00  0.00     0.019 A 
HETATM   28  C   UNK N   1      35.570  11.520  18.810  0.00  0.00     0.037 A 
HETATM   29  C   UNK N   1      36.041  10.527  17.951  0.00  0.00     0.019 A 
HETATM   30  C   UNK N   1      35.937  10.694  16.581  0.00  0.00     0.015 A 
BRANCH  28  31
HETATM   31  C   UNK N   1      35.496  11.240  20.249  0.00  0.00     0.176 C 
HETATM   32  O   UNK N   1      34.442  10.898  20.758  0.00  0.00    -0.646 OA
BRANCH  31  33
HETATM   33  O   UNK N   1      36.617  11.272  20.998  0.00  0.00    -0.773 OA
HETATM   34  H   UNK N   1      37.192  10.533  21.023  0.00  0.00     0.167 HD
ENDBRANCH  31  33
ENDBRANCH  28  31
ENDBRANCH   9  25
TORSDOF 6
ENDMDL
MODEL 2
REMARK VINA RESULT:      -8.5      5.051     10.480
REMARK  6 active torsions:
REMARK  status: ('A' for Active; 'I' for Inactive)
REMARK    1  A    between atoms: C_16  and  C_14 
REMARK    2  A    between atoms: N_26  and  C_14 
REMARK    3  A    between atoms: C_23  and  C_17 
REMARK    4  A    between atoms: C_25  and  C_18 
REMARK    5  A    between atoms: C_20  and  N_26 
REMARK    6  A    between atoms: O_30  and  C_25 
ROOT
HETATM    1  C   UNK N   1      36.340  12.915  12.325  0.00  0.00     0.010 C 
HETATM    2  C   UNK N   1      36.276  14.244  11.902  0.00  0.00     0.015 C 
HETATM    3  C   UNK N   1      35.191  12.175  10.295  0.00  0.00     0.017 C 
HETATM    4  C   UNK N   1      34.425  14.037   8.667  0.00  0.00     0.083 C 
HETATM    5  C   UNK N   1      35.757  11.894  11.553  0.00  0.00    -0.040 C 
HETATM    6  C   UNK N   1      35.171  13.494   9.869  0.00  0.00    -0.041 C 
HETATM    7  C   UNK N   1      35.633  14.497  10.705  0.00  0.00    -0.001 C 
HETATM    8  C   UNK N   1      34.416  15.472   9.103  0.00  0.00     0.004 A 
HETATM    9  C   UNK N   1      33.898  16.680   8.740  0.00  0.00     0.067 A 
HETATM   10  C   UNK N   1      35.118  15.712  10.200  0.00  0.00     0.067 A 
HETATM   11  N   UNK N   1      34.282  17.609   9.649  0.00  0.00    -0.299 N 
ATOM     12  HN  UNK N   1      34.042  18.600   9.633  1.00  0.00     0.187 HD
HETATM   13  N   UNK N   1      35.033  16.993  10.574  0.00  0.00    -0.299 N 
HETATM   14  H   UNK N   1      35.440  17.403  11.371  0.00  0.00     0.187 HD
ENDROOT
BRANCH   5  15
HETATM   15  C   UNK N   1      35.420  10.630  12.255  0.00  0.00     0.153 C 
BRANCH  15  16
HETATM   16  N   UNK N   1      35.938  10.630  13.600  0.00  0.00    -0.413 N 
HETATM   17  H   UNK N   1      36.820  11.047  13.895  0.00  0.00     0.153 HD
BRANCH  16  18
HETATM   18  C   UNK N   1      34.994   9.937  14.470  0.00  0.00     0.076 C 
HETATM   19  C   UNK N   1      35.641   9.682  15.832  0.00  0.00     0.025 C 
HETATM   20  C   UNK N   1      36.075  11.004  16.464  0.00  0.00     0.006 C 
HETATM   21  C   UNK N   1      34.902  11.981  16.570  0.00  0.00    -0.019 C 
HETATM   22  C   UNK N   1      35.426  13.317  17.046  0.00  0.00     0.010 C 
HETATM   23  C   UNK N   1      34.210  12.178  15.222  0.00  0.00     0.006 C 
HETATM   24  C   UNK N   1      33.776  10.831  14.644  0.00  0.00     0.025 C 
ENDBRANCH  16  18
ENDBRANCH  15  16
ENDBRANCH   5  15
BRANCH   9  25
HETATM   25  C   UNK N   1      33.175  16.926   7.495  0.00  0.00    -0.007 A 
HETATM   26  C   UNK N   1      33.812  17.540   6.415  0.00  0.00     0.015 A 
HETATM   27  C   UNK N   1      33.234  17.466   5.145  0.00  0.00     0.019 A 
HETATM   28  C   UNK N   1      32.023  16.777   4.961  0.00  0.00     0.037 A 
HETATM   29  C   UNK N   1      31.354  16.245   6.062  0.00  0.00     0.019 A 
HETATM   30  C   UNK N   1      31.930  16.315   7.319  0.00  0.00     0.015 A 
BRANCH  28  31
HETATM   31  C   UNK N   1      31.502  16.512   3.614  0.00  0.00     0.176 C 
HETATM   32  O   UNK N   1      30.697  15.614   3.430  0.00  0.00    -0.646 OA
BRANCH  31  33
HETATM   33  O   UNK N   1      31.842  17.321   2.590  0.00  0.00    -0.773 OA
HETATM   34  H   UNK N   1      31.513  18.198   2.550  0.00  0.00     0.167 HD
ENDBRANCH  31  33
ENDBRANCH  28  31
ENDBRANCH   9  25
TORSDOF 6
ENDMDL
MODEL 3
REMARK VINA RESULT:      -8.2      5.041     10.459
REMARK  6 active torsions:
REMARK  status: ('A' for Active; 'I' for Inactive)
REMARK    1  A    between atoms: C_16  and  C_14 
REMARK    2  A    between atoms: N_26  and  C_14 
REMARK    3  A    between atoms: C_23  and  C_17 
REMARK    4  A    between atoms: C_25  and  C_18 
REMARK    5  A    between atoms: C_20  and  N_26 
REMARK    6  A    between atoms: O_30  and  C_25 
ROOT
HETATM    1  C   UNK N   1      36.547  13.346  11.535  0.00  0.00     0.010 C 
HETATM    2  C   UNK N   1      36.294  14.588  10.950  0.00  0.00     0.015 C 
HETATM    3  C   UNK N   1      34.618  12.371  10.387  0.00  0.00     0.017 C 
HETATM    4  C   UNK N   1      33.197  13.991   8.953  0.00  0.00     0.083 C 
HETATM    5  C   UNK N   1      35.687  12.259  11.297  0.00  0.00    -0.040 C 
HETATM    6  C   UNK N   1      34.403  13.599   9.782  0.00  0.00    -0.041 C 
HETATM    7  C   UNK N   1      35.184  14.688  10.132  0.00  0.00    -0.001 C 
HETATM    8  C   UNK N   1      33.375  15.475   9.080  0.00  0.00     0.004 A 
HETATM    9  C   UNK N   1      32.743  16.642   8.768  0.00  0.00     0.067 A 
HETATM   10  C   UNK N   1      34.491  15.839   9.694  0.00  0.00     0.067 A 
HETATM   11  N   UNK N   1      33.487  17.677   9.232  0.00  0.00    -0.299 N 
ATOM     12  HN  UNK N   1      33.259  18.667   9.142  1.00  0.00     0.187 HD
HETATM   13  N   UNK N   1      34.575  17.166   9.828  0.00  0.00    -0.299 N 
HETATM   14  H   UNK N   1      35.291  17.670  10.276  0.00  0.00     0.187 HD
ENDROOT
BRANCH   5  15
HETATM   15  C   UNK N   1      35.705  11.157  12.293  0.00  0.00     0.153 C 
BRANCH  15  16
HETATM   16  N   UNK N   1      35.890  11.668  13.628  0.00  0.00    -0.413 N 
HETATM   17  H   UNK N   1      36.786  11.775  14.102  0.00  0.00     0.153 HD
BRANCH  16  18
HETATM   18  C   UNK N   1      34.587  12.006  14.190  0.00  0.00     0.076 C 
HETATM   19  C   UNK N   1      33.889  10.735  14.673  0.00  0.00     0.025 C 
HETATM   20  C   UNK N   1      34.751  10.026  15.718  0.00  0.00     0.006 C 
HETATM   21  C   UNK N   1      35.095  10.960  16.881  0.00  0.00    -0.019 C 
HETATM   22  C   UNK N   1      36.077  10.258  17.791  0.00  0.00     0.010 C 
HETATM   23  C   UNK N   1      35.725  12.262  16.390  0.00  0.00     0.006 C 
HETATM   24  C   UNK N   1      34.815  12.942  15.367  0.00  0.00     0.025 C 
ENDBRANCH  16  18
ENDBRANCH  15  16
ENDBRANCH   5  15
BRANCH   9  25
HETATM   25  C   UNK N   1      31.540  16.734   7.945  0.00  0.00    -0.007 A 
HETATM   26  C   UNK N   1      30.356  17.247   8.476  0.00  0.00     0.015 A 
HETATM   27  C   UNK N   1      29.330  17.640   7.613  0.00  0.00     0.019 A 
HETATM   28  C   UNK N   1      29.494  17.519   6.222  0.00  0.00     0.037 A 
HETATM   29  C   UNK N   1      30.646  16.923   5.709  0.00  0.00     0.019 A 
HETATM   30  C   UNK N   1      31.664  16.539   6.566  0.00  0.00     0.015 A 
BRANCH  28  31
HETATM   31  C   UNK N   1      28.523  18.108   5.292  0.00  0.00     0.176 C 
HETATM   32  O   UNK N   1      27.450  18.519   5.699  0.00  0.00    -0.646 OA
BRANCH  31  33
HETATM   33  O   UNK N   1      28.852  18.279   3.995  0.00  0.00    -0.773 OA
HETATM   34  H   UNK N   1      28.343  18.845   3.448  0.00  0.00     0.167 HD
ENDBRANCH  31  33
ENDBRANCH  28  31
ENDBRANCH   9  25
TORSDOF 6
ENDMDL
MODEL 4
REMARK VINA RESULT:      -8.1      1.679      2.450
REMARK  6 active torsions:
REMARK  status: ('A' for Active; 'I' for Inactive)
REMARK    1  A    between atoms: C_16  and  C_14 
REMARK    2  A    between atoms: N_26  and  C_14 
REMARK    3  A    between atoms: C_23  and  C_17 
REMARK    4  A    between atoms: C_25  and  C_18 
REMARK    5  A    between atoms: C_20  and  N_26 
REMARK    6  A    between atoms: O_30  and  C_25 
ROOT
HETATM    1  C   UNK N   1      36.428  13.812   8.580  0.00  0.00     0.010 C 
HETATM    2  C   UNK N   1      37.227  13.465   9.672  0.00  0.00     0.015 C 
HETATM    3  C   UNK N   1      34.554  14.327  10.067  0.00  0.00     0.017 C 
HETATM    4  C   UNK N   1      34.937  13.889  12.590  0.00  0.00     0.083 C 
HETATM    5  C   UNK N   1      35.087  14.189   8.771  0.00  0.00    -0.040 C 
HETATM    6  C   UNK N   1      35.371  14.019  11.144  0.00  0.00    -0.041 C 
HETATM    7  C   UNK N   1      36.646  13.524  10.925  0.00  0.00    -0.001 C 
HETATM    8  C   UNK N   1      36.115  13.083  13.052  0.00  0.00     0.004 A 
HETATM    9  C   UNK N   1      36.569  12.414  14.150  0.00  0.00     0.067 A 
HETATM   10  C   UNK N   1      37.061  12.928  12.137  0.00  0.00     0.067 A 
HETATM   11  N   UNK N   1      37.765  11.850  13.852  0.00  0.00    -0.299 N 
ATOM     12  HN  UNK N   1      38.337  11.288  14.482  1.00  0.00     0.187 HD
HETATM   13  N   UNK N   1      38.062  12.161  12.581  0.00  0.00    -0.299 N 
HETATM   14  H   UNK N   1      38.858  11.878  12.076  0.00  0.00     0.187 HD
ENDROOT
BRANCH   5  15
HETATM   15  C   UNK N   1      34.179  14.061   7.603  0.00  0.00     0.153 C 
BRANCH  15  16
HETATM   16  N   UNK N   1      33.066  14.969   7.710  0.00  0.00    -0.413 N 
HETATM   17  H   UNK N   1      32.313  14.906   8.395  0.00  0.00     0.153 HD
BRANCH  16  18
HETATM   18  C   UNK N   1      33.191  15.994   6.680  0.00  0.00     0.076 C 
HETATM   19  C   UNK N   1      31.820  16.274   6.063  0.00  0.00     0.025 C 
HETATM   20  C   UNK N   1      30.838  16.725   7.145  0.00  0.00     0.006 C 
HETATM   21  C   UNK N   1      31.373  17.938   7.910  0.00  0.00    -0.019 C 
HETATM   22  C   UNK N   1      30.442  18.230   9.064  0.00  0.00     0.010 C 
HETATM   23  C   UNK N   1      32.774  17.682   8.463  0.00  0.00     0.006 C 
HETATM   24  C   UNK N   1      33.721  17.258   7.341  0.00  0.00     0.025 C 
ENDBRANCH  16  18
ENDBRANCH  15  16
ENDBRANCH   5  15
BRANCH   9  25
HETATM   25  C   UNK N   1      35.919  12.440  15.458  0.00  0.00    -0.007 A 
HETATM   26  C   UNK N   1      35.741  11.262  16.183  0.00  0.00     0.015 A 
HETATM   27  C   UNK N   1      35.435  11.334  17.545  0.00  0.00     0.019 A 
HETATM   28  C   UNK N   1      35.313  12.586  18.174  0.00  0.00     0.037 A 
HETATM   29  C   UNK N   1      35.407  13.754  17.419  0.00  0.00     0.019 A 
HETATM   30  C   UNK N   1      35.714  13.680  16.071  0.00  0.00     0.015 A 
BRANCH  28  31
HETATM   31  C   UNK N   1      35.195  12.689  19.634  0.00  0.00     0.176 C 
HETATM   32  O   UNK N   1      34.563  13.601  20.139  0.00  0.00    -0.646 OA
BRANCH  31  33
HETATM   33  O   UNK N   1      35.711  11.722  20.420  0.00  0.00    -0.773 OA
HETATM   34  H   UNK N   1      36.347  11.124  20.080  0.00  0.00     0.167 HD
ENDBRANCH  31  33
ENDBRANCH  28  31
ENDBRANCH   9  25
TORSDOF 6
ENDMDL
MODEL 5
REMARK VINA RESULT:      -8.0      1.841      2.595
REMARK  6 active torsions:
REMARK  status: ('A' for Active; 'I' for Inactive)
REMARK    1  A    between atoms: C_16  and  C_14 
REMARK    2  A    between atoms: N_26  and  C_14 
REMARK    3  A    between atoms: C_23  and  C_17 
REMARK    4  A    between atoms: C_25  and  C_18 
REMARK    5  A    between atoms: C_20  and  N_26 
REMARK    6  A    between atoms: O_30  and  C_25 
ROOT
HETATM    1  C   UNK N   1      35.702  15.665  10.000  0.00  0.00     0.010 C 
HETATM    2  C   UNK N   1      36.063  15.861  11.334  0.00  0.00     0.015 C 
HETATM    3  C   UNK N   1      34.608  13.550  10.567  0.00  0.00     0.017 C 
HETATM    4  C   UNK N   1      34.780  12.798  13.039  0.00  0.00     0.083 C 
HETATM    5  C   UNK N   1      35.026  14.494   9.610  0.00  0.00    -0.040 C 
HETATM    6  C   UNK N   1      34.937  13.778  11.894  0.00  0.00    -0.041 C 
HETATM    7  C   UNK N   1      35.717  14.872  12.235  0.00  0.00    -0.001 C 
HETATM    8  C   UNK N   1      35.749  13.462  13.971  0.00  0.00     0.004 A 
HETATM    9  C   UNK N   1      36.348  13.271  15.181  0.00  0.00     0.067 A 
HETATM   10  C   UNK N   1      36.221  14.620  13.531  0.00  0.00     0.067 A 
HETATM   11  N   UNK N   1      37.187  14.307  15.420  0.00  0.00    -0.299 N 
ATOM     12  HN  UNK N   1      37.769  14.430  16.249  1.00  0.00     0.187 HD
HETATM   13  N   UNK N   1      37.118  15.143  14.373  0.00  0.00    -0.299 N 
HETATM   14  H   UNK N   1      37.627  15.976  14.249  0.00  0.00     0.187 HD
ENDROOT
BRANCH   5  15
HETATM   15  C   UNK N   1      35.113  14.113   8.178  0.00  0.00     0.153 C 
BRANCH  15  16
HETATM   16  N   UNK N   1      34.579  15.151   7.332  0.00  0.00    -0.413 N 
HETATM   17  H   UNK N   1      35.076  15.604   6.564  0.00  0.00     0.153 HD
BRANCH  16  18
HETATM   18  C   UNK N   1      33.214  15.448   7.752  0.00  0.00     0.076 C 
HETATM   19  C   UNK N   1      33.003  16.962   7.784  0.00  0.00     0.025 C 
HETATM   20  C   UNK N   1      33.278  17.562   6.405  0.00  0.00     0.006 C 
HETATM   21  C   UNK N   1      32.419  16.894   5.329  0.00  0.00    -0.019 C 
HETATM   22  C   UNK N   1      32.853  17.411   3.975  0.00  0.00     0.010 C 
HETATM   23  C   UNK N   1      32.575  15.374   5.345  0.00  0.00     0.006 C 
HETATM   24  C   UNK N   1      32.268  14.823   6.737  0.00  0.00     0.025 C 
ENDBRANCH  16  18
ENDBRANCH  15  16
ENDBRANCH   5  15
BRANCH   9  25
HETATM   25  C   UNK N   1      36.011  12.191  16.105  0.00  0.00    -0.007 A 
HETATM   26  C   UNK N   1      36.537  10.911  15.921  0.00  0.00     0.015 A 
HETATM   27  C   UNK N   1      36.487   9.991  16.971  0.00  0.00     0.019 A 
HETATM   28  C   UNK N   1      35.913  10.357  18.201  0.00  0.00     0.037 A 
HETATM   29  C   UNK N   1      35.313  11.608  18.342  0.00  0.00     0.019 A 
HETATM   30  C   UNK N   1      35.367  12.519  17.302  0.00  0.00     0.015 A 
BRANCH  28  31
HETATM   31  C   UNK N   1      36.029   9.486  19.378  0.00  0.00     0.176 C 
HETATM   32  O   UNK N   1      35.029   9.083  19.949  0.00  0.00    -0.646 OA
BRANCH  31  33
HETATM   33  O   UNK N   1      37.242   9.053  19.776  0.00  0.00    -0.773 OA
HETATM   34  H   UNK N   1      37.330   8.230  20.217  0.00  0.00     0.167 HD
ENDBRANCH  31  33
ENDBRANCH  28  31
ENDBRANCH   9  25
TORSDOF 6
ENDMDL
MODEL 6
REMARK VINA RESULT:      -7.9      4.385      7.529
REMARK  6 active torsions:
REMARK  status: ('A' for Active; 'I' for Inactive)
REMARK    1  A    between atoms: C_16  and  C_14 
REMARK    2  A    between atoms: N_26  and  C_14 
REMARK    3  A    between atoms: C_23  and  C_17 
REMARK    4  A    between atoms: C_25  and  C_18 
REMARK    5  A    between atoms: C_20  and  N_26 
REMARK    6  A    between atoms: O_30  and  C_25 
ROOT
HETATM    1  C   UNK N   1      31.222  17.351   4.004  0.00  0.00     0.010 C 
HETATM    2  C   UNK N   1      32.522  17.133   4.462  0.00  0.00     0.015 C 
HETATM    3  C   UNK N   1      30.343  17.124   6.276  0.00  0.00     0.017 C 
HETATM    4  C   UNK N   1      32.064  16.535   8.118  0.00  0.00     0.083 C 
HETATM    5  C   UNK N   1      30.135  17.296   4.894  0.00  0.00    -0.040 C 
HETATM    6  C   UNK N   1      31.643  16.949   6.723  0.00  0.00    -0.041 C 
HETATM    7  C   UNK N   1      32.684  16.877   5.810  0.00  0.00    -0.001 C 
HETATM    8  C   UNK N   1      33.440  16.063   7.751  0.00  0.00     0.004 A 
HETATM    9  C   UNK N   1      34.520  15.436   8.298  0.00  0.00     0.067 A 
HETATM   10  C   UNK N   1      33.777  16.296   6.491  0.00  0.00     0.067 A 
HETATM   11  N   UNK N   1      35.467  15.284   7.340  0.00  0.00    -0.299 N 
ATOM     12  HN  UNK N   1      36.381  14.848   7.463  1.00  0.00     0.187 HD
HETATM   13  N   UNK N   1      34.989  15.810   6.202  0.00  0.00    -0.299 N 
HETATM   14  H   UNK N   1      35.441  15.832   5.328  0.00  0.00     0.187 HD
ENDROOT
BRANCH   5  15
HETATM   15  C   UNK N   1      28.796  17.040   4.306  0.00  0.00     0.153 C 
BRANCH  15  16
HETATM   16  N   UNK N   1      28.121  18.275   3.996  0.00  0.00    -0.413 N 
HETATM   17  H   UNK N   1      28.074  18.709   3.074  0.00  0.00     0.153 HD
BRANCH  16  18
HETATM   18  C   UNK N   1      27.517  18.802   5.214  0.00  0.00     0.076 C 
HETATM   19  C   UNK N   1      27.468  20.328   5.146  0.00  0.00     0.025 C 
HETATM   20  C   UNK N   1      26.670  20.775   3.920  0.00  0.00     0.006 C 
HETATM   21  C   UNK N   1      25.267  20.163   3.917  0.00  0.00    -0.019 C 
HETATM   22  C   UNK N   1      24.593  20.507   2.608  0.00  0.00     0.010 C 
HETATM   23  C   UNK N   1      25.316  18.643   4.060  0.00  0.00     0.006 C 
HETATM   24  C   UNK N   1      26.102  18.250   5.310  0.00  0.00     0.025 C 
ENDBRANCH  16  18
ENDBRANCH  15  16
ENDBRANCH   5  15
BRANCH   9  25
HETATM   25  C   UNK N   1      34.659  15.123   9.718  0.00  0.00    -0.007 A 
HETATM   26  C   UNK N   1      34.513  13.811  10.172  0.00  0.00     0.015 A 
HETATM   27  C   UNK N   1      34.972  13.472  11.448  0.00  0.00     0.019 A 
HETATM   28  C   UNK N   1      35.576  14.446  12.262  0.00  0.00     0.037 A 
HETATM   29  C   UNK N   1      35.635  15.770  11.831  0.00  0.00     0.019 A 
HETATM   30  C   UNK N   1      35.184  16.104  10.565  0.00  0.00     0.015 A 
BRANCH  28  31
HETATM   31  C   UNK N   1      36.245  14.074  13.515  0.00  0.00     0.176 C 
HETATM   32  O   UNK N   1      36.285  12.908  13.870  0.00  0.00    -0.646 OA
BRANCH  31  33
HETATM   33  O   UNK N   1      36.898  15.011  14.232  0.00  0.00    -0.773 OA
HETATM   34  H   UNK N   1      36.594  15.897  14.242  0.00  0.00     0.167 HD
ENDBRANCH  31  33
ENDBRANCH  28  31
ENDBRANCH   9  25
TORSDOF 6
ENDMDL
MODEL 7
REMARK VINA RESULT:      -7.7      8.161     12.562
REMARK  6 active torsions:
REMARK  status: ('A' for Active; 'I' for Inactive)
REMARK    1  A    between atoms: C_16  and  C_14 
REMARK    2  A    between atoms: N_26  and  C_14 
REMARK    3  A    between atoms: C_23  and  C_17 
REMARK    4  A    between atoms: C_25  and  C_18 
REMARK    5  A    between atoms: C_20  and  N_26 
REMARK    6  A    between atoms: O_30  and  C_25 
ROOT
HETATM    1  C   UNK N   1      25.237  14.831   2.072  0.00  0.00     0.010 C 
HETATM    2  C   UNK N   1      26.621  14.754   1.911  0.00  0.00     0.015 C 
HETATM    3  C   UNK N   1      25.499  16.490   3.851  0.00  0.00     0.017 C 
HETATM    4  C   UNK N   1      27.929  17.077   4.524  0.00  0.00     0.083 C 
HETATM    5  C   UNK N   1      24.681  15.653   3.068  0.00  0.00    -0.040 C 
HETATM    6  C   UNK N   1      26.869  16.433   3.653  0.00  0.00    -0.041 C 
HETATM    7  C   UNK N   1      27.401  15.520   2.756  0.00  0.00    -0.001 C 
HETATM    8  C   UNK N   1      29.073  16.222   4.065  0.00  0.00     0.004 A 
HETATM    9  C   UNK N   1      30.386  15.981   4.341  0.00  0.00     0.067 A 
HETATM   10  C   UNK N   1      28.774  15.403   3.066  0.00  0.00     0.067 A 
HETATM   11  N   UNK N   1      30.832  15.001   3.518  0.00  0.00    -0.299 N 
ATOM     12  HN  UNK N   1      31.776  14.615   3.500  1.00  0.00     0.187 HD
HETATM   13  N   UNK N   1      29.811  14.629   2.731  0.00  0.00    -0.299 N 
HETATM   14  H   UNK N   1      29.823  13.924   2.044  0.00  0.00     0.187 HD
ENDROOT
BRANCH   5  15
HETATM   15  C   UNK N   1      23.303  15.329   3.516  0.00  0.00     0.153 C 
BRANCH  15  16
HETATM   16  N   UNK N   1      22.365  16.330   3.072  0.00  0.00    -0.413 N 
HETATM   17  H   UNK N   1      22.298  16.699   2.124  0.00  0.00     0.153 HD
BRANCH  16  18
HETATM   18  C   UNK N   1      21.529  16.727   4.199  0.00  0.00     0.076 C 
HETATM   19  C   UNK N   1      22.195  17.876   4.955  0.00  0.00     0.025 C 
HETATM   20  C   UNK N   1      22.422  19.062   4.018  0.00  0.00     0.006 C 
HETATM   21  C   UNK N   1      21.116  19.504   3.355  0.00  0.00    -0.019 C 
HETATM   22  C   UNK N   1      21.431  20.563   2.323  0.00  0.00     0.010 C 
HETATM   23  C   UNK N   1      20.414  18.338   2.661  0.00  0.00     0.006 C 
HETATM   24  C   UNK N   1      20.189  17.190   3.645  0.00  0.00     0.025 C 
ENDBRANCH  16  18
ENDBRANCH  15  16
ENDBRANCH   5  15
BRANCH   9  25
HETATM   25  C   UNK N   1      31.188  16.766   5.276  0.00  0.00    -0.007 A 
HETATM   26  C   UNK N   1      30.773  16.933   6.598  0.00  0.00     0.015 A 
HETATM   27  C   UNK N   1      31.688  17.386   7.553  0.00  0.00     0.019 A 
HETATM   28  C   UNK N   1      33.015  17.665   7.180  0.00  0.00     0.037 A 
HETATM   29  C   UNK N   1      33.392  17.577   5.841  0.00  0.00     0.019 A 
HETATM   30  C   UNK N   1      32.485  17.125   4.897  0.00  0.00     0.015 A 
BRANCH  28  31
HETATM   31  C   UNK N   1      34.041  17.944   8.193  0.00  0.00     0.176 C 
HETATM   32  O   UNK N   1      34.972  18.690   7.938  0.00  0.00    -0.646 OA
BRANCH  31  33
HETATM   33  O   UNK N   1      33.908  17.448   9.439  0.00  0.00    -0.773 OA
HETATM   34  H   UNK N   1      33.796  16.527   9.573  0.00  0.00     0.167 HD
ENDBRANCH  31  33
ENDBRANCH  28  31
ENDBRANCH   9  25
TORSDOF 6
ENDMDL
MODEL 8
REMARK VINA RESULT:      -7.5      2.256      3.013
REMARK  6 active torsions:
REMARK  status: ('A' for Active; 'I' for Inactive)
REMARK    1  A    between atoms: C_16  and  C_14 
REMARK    2  A    between atoms: N_26  and  C_14 
REMARK    3  A    between atoms: C_23  and  C_17 
REMARK    4  A    between atoms: C_25  and  C_18 
REMARK    5  A    between atoms: C_20  and  N_26 
REMARK    6  A    between atoms: O_30  and  C_25 
ROOT
HETATM    1  C   UNK N   1      35.334  16.266  10.107  0.00  0.00     0.010 C 
HETATM    2  C   UNK N   1      35.647  16.161  11.464  0.00  0.00     0.015 C 
HETATM    3  C   UNK N   1      34.791  13.882  10.009  0.00  0.00     0.017 C 
HETATM    4  C   UNK N   1      35.161  12.530  12.186  0.00  0.00     0.083 C 
HETATM    5  C   UNK N   1      34.960  15.127   9.373  0.00  0.00    -0.040 C 
HETATM    6  C   UNK N   1      35.066  13.800  11.365  0.00  0.00    -0.041 C 
HETATM    7  C   UNK N   1      35.559  14.906  12.038  0.00  0.00    -0.001 C 
HETATM    8  C   UNK N   1      35.946  13.117  13.321  0.00  0.00     0.004 A 
HETATM    9  C   UNK N   1      36.584  12.741  14.466  0.00  0.00     0.067 A 
HETATM   10  C   UNK N   1      36.119  14.428  13.243  0.00  0.00     0.067 A 
HETATM   11  N   UNK N   1      37.148  13.837  15.030  0.00  0.00    -0.299 N 
ATOM     12  HN  UNK N   1      37.689  13.855  15.895  1.00  0.00     0.187 HD
HETATM   13  N   UNK N   1      36.869  14.891  14.249  0.00  0.00    -0.299 N 
HETATM   14  H   UNK N   1      37.159  15.821  14.389  0.00  0.00     0.187 HD
ENDROOT
BRANCH   5  15
HETATM   15  C   UNK N   1      35.125  15.193   7.898  0.00  0.00     0.153 C 
BRANCH  15  16
HETATM   16  N   UNK N   1      33.854  15.373   7.242  0.00  0.00    -0.413 N 
HETATM   17  H   UNK N   1      33.045  14.761   7.341  0.00  0.00     0.153 HD
BRANCH  16  18
HETATM   18  C   UNK N   1      33.916  16.573   6.415  0.00  0.00     0.076 C 
HETATM   19  C   UNK N   1      32.929  16.447   5.253  0.00  0.00     0.025 C 
HETATM   20  C   UNK N   1      31.512  16.241   5.786  0.00  0.00     0.006 C 
HETATM   21  C   UNK N   1      31.112  17.361   6.749  0.00  0.00    -0.019 C 
HETATM   22  C   UNK N   1      29.775  17.015   7.365  0.00  0.00     0.010 C 
HETATM   23  C   UNK N   1      32.137  17.534   7.869  0.00  0.00     0.006 C 
HETATM   24  C   UNK N   1      33.531  17.760   7.285  0.00  0.00     0.025 C 
ENDBRANCH  16  18
ENDBRANCH  15  16
ENDBRANCH   5  15
BRANCH   9  25
HETATM   25  C   UNK N   1      36.527  11.398  15.038  0.00  0.00    -0.007 A 
HETATM   26  C   UNK N   1      37.141  10.325  14.390  0.00  0.00     0.015 A 
HETATM   27  C   UNK N   1      37.371   9.139  15.092  0.00  0.00     0.019 A 
HETATM   28  C   UNK N   1      36.986   9.033  16.440  0.00  0.00     0.037 A 
HETATM   29  C   UNK N   1      36.295  10.080  17.049  0.00  0.00     0.019 A 
HETATM   30  C   UNK N   1      36.072  11.256  16.353  0.00  0.00     0.015 A 
BRANCH  28  31
HETATM   31  C   UNK N   1      37.395   7.881  17.254  0.00  0.00     0.176 C 
HETATM   32  O   UNK N   1      36.611   6.975  17.479  0.00  0.00    -0.646 OA
BRANCH  31  33
HETATM   33  O   UNK N   1      38.671   7.778  17.680  0.00  0.00    -0.773 OA
HETATM   34  H   UNK N   1      39.156   6.989  17.537  0.00  0.00     0.167 HD
ENDBRANCH  31  33
ENDBRANCH  28  31
ENDBRANCH   9  25
TORSDOF 6
ENDMDL
MODEL 9
REMARK VINA RESULT:      -7.5      2.983      4.962
REMARK  6 active torsions:
REMARK  status: ('A' for Active; 'I' for Inactive)
REMARK    1  A    between atoms: C_16  and  C_14 
REMARK    2  A    between atoms: N_26  and  C_14 
REMARK    3  A    between atoms: C_23  and  C_17 
REMARK    4  A    between atoms: C_25  and  C_18 
REMARK    5  A    between atoms: C_20  and  N_26 
REMARK    6  A    between atoms: O_30  and  C_25 
ROOT
HETATM    1  C   UNK N   1      35.990  15.070   9.828  0.00  0.00     0.010 C 
HETATM    2  C   UNK N   1      36.229  15.456  11.148  0.00  0.00     0.015 C 
HETATM    3  C   UNK N   1      34.914  13.007  10.586  0.00  0.00     0.017 C 
HETATM    4  C   UNK N   1      34.894  12.596  13.143  0.00  0.00     0.083 C 
HETATM    5  C   UNK N   1      35.385  13.832   9.547  0.00  0.00    -0.040 C 
HETATM    6  C   UNK N   1      35.121  13.422  11.892  0.00  0.00    -0.041 C 
HETATM    7  C   UNK N   1      35.836  14.582  12.144  0.00  0.00    -0.001 C 
HETATM    8  C   UNK N   1      35.760  13.418  14.051  0.00  0.00     0.004 A 
HETATM    9  C   UNK N   1      36.258  13.412  15.321  0.00  0.00     0.067 A 
HETATM   10  C   UNK N   1      36.234  14.524  13.499  0.00  0.00     0.067 A 
HETATM   11  N   UNK N   1      37.043  14.505  15.484  0.00  0.00    -0.299 N 
ATOM     12  HN  UNK N   1      37.548  14.760  16.334  1.00  0.00     0.187 HD
HETATM   13  N   UNK N   1      37.039  15.191  14.332  0.00  0.00    -0.299 N 
HETATM   14  H   UNK N   1      37.533  16.020  14.138  0.00  0.00     0.187 HD
ENDROOT
BRANCH   5  15
HETATM   15  C   UNK N   1      35.605  13.268   8.191  0.00  0.00     0.153 C 
BRANCH  15  16
HETATM   16  N   UNK N   1      36.159  11.939   8.266  0.00  0.00    -0.413 N 
HETATM   17  H   UNK N   1      35.662  11.108   8.584  0.00  0.00     0.153 HD
BRANCH  16  18
HETATM   18  C   UNK N   1      37.545  11.978   7.813  0.00  0.00     0.076 C 
HETATM   19  C   UNK N   1      38.443  12.470   8.948  0.00  0.00     0.025 C 
HETATM   20  C   UNK N   1      38.307  11.554  10.164  0.00  0.00     0.006 C 
HETATM   21  C   UNK N   1      38.604  10.098   9.798  0.00  0.00    -0.019 C 
HETATM   22  C   UNK N   1      38.293   9.226  10.993  0.00  0.00     0.010 C 
HETATM   23  C   UNK N   1      37.757   9.630   8.616  0.00  0.00     0.006 C 
HETATM   24  C   UNK N   1      37.947  10.564   7.421  0.00  0.00     0.025 C 
ENDBRANCH  16  18
ENDBRANCH  15  16
ENDBRANCH   5  15
BRANCH   9  25
HETATM   25  C   UNK N   1      35.875  12.452  16.352  0.00  0.00    -0.007 A 
HETATM   26  C   UNK N   1      36.323  11.131  16.292  0.00  0.00     0.015 A 
HETATM   27  C   UNK N   1      36.237  10.325  17.430  0.00  0.00     0.019 A 
HETATM   28  C   UNK N   1      35.706  10.845  18.624  0.00  0.00     0.037 A 
HETATM   29  C   UNK N   1      35.181  12.137  18.644  0.00  0.00     0.019 A 
HETATM   30  C   UNK N   1      35.271  12.935  17.517  0.00  0.00     0.015 A 
BRANCH  28  31
HETATM   31  C   UNK N   1      35.791  10.090  19.880  0.00  0.00     0.176 C 
HETATM   32  O   UNK N   1      36.141   8.922  19.876  0.00  0.00    -0.646 OA
BRANCH  31  33
HETATM   33  O   UNK N   1      35.570  10.714  21.055  0.00  0.00    -0.773 OA
HETATM   34  H   UNK N   1      34.859  10.451  21.605  0.00  0.00     0.167 HD
ENDBRANCH  31  33
ENDBRANCH  28  31
ENDBRANCH   9  25
TORSDOF 6
ENDMDL
