MODEL 1
REMARK VINA RESULT:      -7.6      0.000      0.000
REMARK  11 active torsions:
REMARK  status: ('A' for Active; 'I' for Inactive)
REMARK    1  A    between atoms: C_9  and  C_8 
REMARK    2  A    between atoms: N_25  and  C_8 
REMARK    3  A    between atoms: N_32  and  C_9 
REMARK    4  A    between atoms: C_14  and  C_10 
REMARK    5  A    between atoms: N_25  and  C_10 
REMARK    6  A    between atoms: C_20  and  C_12 
REMARK    7  A    between atoms: N_30  and  C_12 
REMARK    8  A    between atoms: C_20  and  C_15 
REMARK    9  A    between atoms: C_17  and  N_24 
REMARK   10  A    between atoms: N_30  and  C_18 
REMARK   11  A    between atoms: O_33  and  C_19 
ROOT
HETATM    1  C   UNK N   1      36.700  14.330   9.189  0.00  0.00     0.131 A 
HETATM    2  C   UNK N   1      37.057  13.959  10.417  0.00  0.00     0.119 A 
HETATM    3  C   UNK N   1      34.710  15.415   9.905  0.00  0.00     0.127 A 
HETATM    4  C   UNK N   1      34.965  15.005  11.352  0.00  0.00     0.289 A 
HETATM    5 Cl   UNK N   1      38.599  13.125  10.603  0.00  0.00    -0.063 Cl
HETATM    6  N   UNK N   1      35.509  15.064   8.960  0.00  0.00    -0.349 N 
ATOM      7  HN  UNK N   1      35.274  15.324   8.002  1.00  0.00     0.166 HD
HETATM    8  N   UNK N   1      36.208  14.256  11.532  0.00  0.00    -0.336 N 
ENDROOT
BRANCH   8   9
HETATM    9  C   UNK N   1      36.597  13.900  12.890  0.00  0.00     0.146 C 
BRANCH   9  10
HETATM   10  C   UNK N   1      36.620  12.393  13.161  0.00  0.00     0.133 C 
BRANCH  10  11
HETATM   11  N   UNK N   1      37.420  12.078  14.330  0.00  0.00    -0.419 N 
HETATM   12  H   UNK N   1      38.367  12.410  14.513  0.00  0.00     0.153 HD
BRANCH  11  13
HETATM   13  C   UNK N   1      36.637  11.203  15.196  0.00  0.00     0.120 C 
BRANCH  13  14
HETATM   14  C   UNK N   1      36.358  11.801  16.587  0.00  0.00     0.025 C 
HETATM   15  C   UNK N   1      35.721  10.704  17.446  0.00  0.00     0.012 C 
HETATM   16  C   UNK N   1      35.100  11.234  18.743  0.00  0.00     0.046 C 
HETATM   17  C   UNK N   1      35.524  12.670  19.053  0.00  0.00     0.169 C 
HETATM   18  N   UNK N   1      35.187  13.584  17.952  0.00  0.00    -0.398 N 
HETATM   19  C   UNK N   1      35.464  13.073  16.596  0.00  0.00     0.080 C 
HETATM   20  H   UNK N   1      34.789  14.509  18.114  0.00  0.00     0.155 HD
HETATM   21  C   UNK N   1      34.131  12.829  15.902  0.00  0.00     0.032 C 
BRANCH  17  22
HETATM   22  N   UNK N   1      34.845  13.111  20.257  0.00  0.00    -0.411 N 
HETATM   23  H   UNK N   1      35.216  13.872  20.827  0.00  0.00     0.151 HD
HETATM   24  H   UNK N   1      33.979  12.652  20.540  0.00  0.00     0.151 HD
ENDBRANCH  17  22
ENDBRANCH  13  14
ENDBRANCH  11  13
ENDBRANCH  10  11
ENDBRANCH   9  10
ENDBRANCH   8   9
BRANCH   4  25
HETATM   25  O   UNK N   1      33.887  14.238  11.798  0.00  0.00    -0.369 OA
HETATM   26  H   UNK N   1      33.733  13.288  11.678  0.00  0.00     0.212 HD
ENDBRANCH   4  25
BRANCH   3  27
HETATM   27  N   UNK N   1      33.598  16.237   9.570  0.00  0.00    -0.370 N 
HETATM   28  H   UNK N   1      33.545  17.136   9.967  0.00  0.00     0.161 HD
BRANCH  27  29
HETATM   29  C   UNK N   1      32.542  15.819   8.675  0.00  0.00     0.207 C 
BRANCH  29  30
HETATM   30  C   UNK N   1      32.119  16.960   7.729  0.00  0.00     0.301 C 
HETATM   31  F   UNK N   1      32.069  16.515   6.413  0.00  0.00    -0.197 F 
HETATM   32  F   UNK N   1      33.041  17.987   7.804  0.00  0.00    -0.197 F 
BRANCH  30  33
HETATM   33  C   UNK N   1      30.768  17.490   8.117  0.00  0.00     0.083 A 
HETATM   34  C   UNK N   1      29.686  17.392   7.232  0.00  0.00     0.031 A 
HETATM   35  C   UNK N   1      28.438  17.884   7.618  0.00  0.00     0.003 A 
HETATM   36  C   UNK N   1      28.280  18.465   8.877  0.00  0.00     0.017 A 
HETATM   37  C   UNK N   1      29.377  18.544   9.735  0.00  0.00     0.088 A 
HETATM   38  N   UNK N   1      30.586  18.060   9.343  0.00  0.00    -0.364 N 
ATOM     39  HN  UNK N   1      31.378  18.123   9.983  1.00  0.00     0.165 HD
ENDBRANCH  30  33
ENDBRANCH  29  30
ENDBRANCH  27  29
ENDBRANCH   3  27
TORSDOF 11
ENDMDL
MODEL 2
REMARK VINA RESULT:      -7.5      1.443      1.716
REMARK  11 active torsions:
REMARK  status: ('A' for Active; 'I' for Inactive)
REMARK    1  A    between atoms: C_9  and  C_8 
REMARK    2  A    between atoms: N_25  and  C_8 
REMARK    3  A    between atoms: N_32  and  C_9 
REMARK    4  A    between atoms: C_14  and  C_10 
REMARK    5  A    between atoms: N_25  and  C_10 
REMARK    6  A    between atoms: C_20  and  C_12 
REMARK    7  A    between atoms: N_30  and  C_12 
REMARK    8  A    between atoms: C_20  and  C_15 
REMARK    9  A    between atoms: C_17  and  N_24 
REMARK   10  A    between atoms: N_30  and  C_18 
REMARK   11  A    between atoms: O_33  and  C_19 
ROOT
HETATM    1  C   UNK N   1      36.759  14.276   9.577  0.00  0.00     0.131 A 
HETATM    2  C   UNK N   1      36.707  13.817  10.825  0.00  0.00     0.119 A 
HETATM    3  C   UNK N   1      34.854  15.678   9.829  0.00  0.00     0.127 A 
HETATM    4  C   UNK N   1      34.642  15.191  11.259  0.00  0.00     0.289 A 
HETATM    5 Cl   UNK N   1      37.985  12.718  11.344  0.00  0.00    -0.063 Cl
HETATM    6  N   UNK N   1      35.808  15.215   9.101  0.00  0.00    -0.349 N 
ATOM      7  HN  UNK N   1      35.884  15.538   8.136  1.00  0.00     0.166 HD
HETATM    8  N   UNK N   1      35.651  14.229  11.701  0.00  0.00    -0.336 N 
ENDROOT
BRANCH   8   9
HETATM    9  C   UNK N   1      35.599  13.775  13.083  0.00  0.00     0.146 C 
BRANCH   9  10
HETATM   10  C   UNK N   1      36.449  14.606  14.049  0.00  0.00     0.133 C 
BRANCH  10  11
HETATM   11  N   UNK N   1      37.189  13.759  14.967  0.00  0.00    -0.419 N 
HETATM   12  H   UNK N   1      37.798  14.082  15.718  0.00  0.00     0.153 HD
BRANCH  11  13
HETATM   13  C   UNK N   1      36.910  12.367  14.627  0.00  0.00     0.120 C 
BRANCH  13  14
HETATM   14  C   UNK N   1      36.573  11.490  15.848  0.00  0.00     0.025 C 
HETATM   15  C   UNK N   1      37.190  10.108  15.612  0.00  0.00     0.012 C 
HETATM   16  C   UNK N   1      36.675   9.041  16.583  0.00  0.00     0.046 C 
HETATM   17  C   UNK N   1      35.910   9.640  17.764  0.00  0.00     0.169 C 
HETATM   18  N   UNK N   1      34.780  10.466  17.314  0.00  0.00    -0.398 N 
HETATM   19  C   UNK N   1      35.058  11.350  16.166  0.00  0.00     0.080 C 
HETATM   20  H   UNK N   1      33.866  10.431  17.765  0.00  0.00     0.155 HD
HETATM   21  C   UNK N   1      34.276  10.828  14.968  0.00  0.00     0.032 C 
BRANCH  17  22
HETATM   22  N   UNK N   1      35.407   8.563  18.594  0.00  0.00    -0.411 N 
HETATM   23  H   UNK N   1      36.019   8.055  19.234  0.00  0.00     0.151 HD
HETATM   24  H   UNK N   1      34.421   8.307  18.538  0.00  0.00     0.151 HD
ENDBRANCH  17  22
ENDBRANCH  13  14
ENDBRANCH  11  13
ENDBRANCH  10  11
ENDBRANCH   9  10
ENDBRANCH   8   9
BRANCH   4  25
HETATM   25  O   UNK N   1      33.374  14.615  11.354  0.00  0.00    -0.369 OA
HETATM   26  H   UNK N   1      32.923  14.276  12.143  0.00  0.00     0.212 HD
ENDBRANCH   4  25
BRANCH   3  27
HETATM   27  N   UNK N   1      34.023  16.692   9.277  0.00  0.00    -0.370 N 
HETATM   28  H   UNK N   1      34.193  17.626   9.535  0.00  0.00     0.161 HD
BRANCH  27  29
HETATM   29  C   UNK N   1      32.941  16.419   8.358  0.00  0.00     0.207 C 
BRANCH  29  30
HETATM   30  C   UNK N   1      32.341  17.720   7.790  0.00  0.00     0.301 C 
HETATM   31  F   UNK N   1      32.437  17.743   6.404  0.00  0.00    -0.197 F 
HETATM   32  F   UNK N   1      33.038  18.805   8.289  0.00  0.00    -0.197 F 
BRANCH  30  33
HETATM   33  C   UNK N   1      30.897  17.848   8.182  0.00  0.00     0.083 A 
HETATM   34  C   UNK N   1      29.884  17.438   7.304  0.00  0.00     0.031 A 
HETATM   35  C   UNK N   1      28.549  17.557   7.694  0.00  0.00     0.003 A 
HETATM   36  C   UNK N   1      28.237  18.081   8.949  0.00  0.00     0.017 A 
HETATM   37  C   UNK N   1      29.269  18.478   9.799  0.00  0.00     0.088 A 
HETATM   38  N   UNK N   1      30.564  18.354   9.404  0.00  0.00    -0.364 N 
ATOM     39  HN  UNK N   1      31.308  18.646  10.039  1.00  0.00     0.165 HD
ENDBRANCH  30  33
ENDBRANCH  29  30
ENDBRANCH  27  29
ENDBRANCH   3  27
TORSDOF 11
ENDMDL
MODEL 3
REMARK VINA RESULT:      -7.4      3.246     10.101
REMARK  11 active torsions:
REMARK  status: ('A' for Active; 'I' for Inactive)
REMARK    1  A    between atoms: C_9  and  C_8 
REMARK    2  A    between atoms: N_25  and  C_8 
REMARK    3  A    between atoms: N_32  and  C_9 
REMARK    4  A    between atoms: C_14  and  C_10 
REMARK    5  A    between atoms: N_25  and  C_10 
REMARK    6  A    between atoms: C_20  and  C_12 
REMARK    7  A    between atoms: N_30  and  C_12 
REMARK    8  A    between atoms: C_20  and  C_15 
REMARK    9  A    between atoms: C_17  and  N_24 
REMARK   10  A    between atoms: N_30  and  C_18 
REMARK   11  A    between atoms: O_33  and  C_19 
ROOT
HETATM    1  C   UNK N   1      37.989  12.636  11.037  0.00  0.00     0.131 A 
HETATM    2  C   UNK N   1      37.301  13.624  10.468  0.00  0.00     0.119 A 
HETATM    3  C   UNK N   1      36.974  12.921  13.168  0.00  0.00     0.127 A 
HETATM    4  C   UNK N   1      36.164  14.111  12.662  0.00  0.00     0.289 A 
HETATM    5 Cl   UNK N   1      37.543  13.900   8.743  0.00  0.00    -0.063 Cl
HETATM    6  N   UNK N   1      37.803  12.305  12.403  0.00  0.00    -0.349 N 
ATOM      7  HN  UNK N   1      38.354  11.542  12.798  1.00  0.00     0.166 HD
HETATM    8  N   UNK N   1      36.389  14.408  11.248  0.00  0.00    -0.336 N 
ENDROOT
BRANCH   8   9
HETATM    9  C   UNK N   1      35.593  15.463  10.638  0.00  0.00     0.146 C 
BRANCH   9  10
HETATM   10  C   UNK N   1      34.128  15.085  10.399  0.00  0.00     0.133 C 
BRANCH  10  11
HETATM   11  N   UNK N   1      33.928  14.563   9.060  0.00  0.00    -0.419 N 
HETATM   12  H   UNK N   1      33.520  13.658   8.827  0.00  0.00     0.153 HD
BRANCH  11  13
HETATM   13  C   UNK N   1      34.412  15.556   8.107  0.00  0.00     0.120 C 
BRANCH  13  14
HETATM   14  C   UNK N   1      33.370  15.951   7.044  0.00  0.00     0.025 C 
HETATM   15  C   UNK N   1      34.090  16.767   5.966  0.00  0.00     0.012 C 
HETATM   16  C   UNK N   1      33.132  17.494   5.016  0.00  0.00     0.046 C 
HETATM   17  C   UNK N   1      31.690  17.002   5.145  0.00  0.00     0.169 C 
HETATM   18  N   UNK N   1      31.193  17.136   6.522  0.00  0.00    -0.398 N 
HETATM   19  C   UNK N   1      32.142  16.740   7.580  0.00  0.00     0.080 C 
HETATM   20  H   UNK N   1      30.256  17.478   6.732  0.00  0.00     0.155 HD
HETATM   21  C   UNK N   1      32.564  17.997   8.330  0.00  0.00     0.032 C 
BRANCH  17  22
HETATM   22  N   UNK N   1      30.846  17.782   4.260  0.00  0.00    -0.411 N 
HETATM   23  H   UNK N   1      30.896  18.801   4.241  0.00  0.00     0.151 HD
HETATM   24  H   UNK N   1      30.190  17.303   3.644  0.00  0.00     0.151 HD
ENDBRANCH  17  22
ENDBRANCH  13  14
ENDBRANCH  11  13
ENDBRANCH  10  11
ENDBRANCH   9  10
ENDBRANCH   8   9
BRANCH   4  25
HETATM   25  O   UNK N   1      36.485  15.232  13.431  0.00  0.00    -0.369 OA
HETATM   26  H   UNK N   1      37.212  15.861  13.305  0.00  0.00     0.212 HD
ENDBRANCH   4  25
BRANCH   3  27
HETATM   27  N   UNK N   1      36.797  12.435  14.493  0.00  0.00    -0.370 N 
HETATM   28  H   UNK N   1      37.594  12.316  15.057  0.00  0.00     0.161 HD
BRANCH  27  29
HETATM   29  C   UNK N   1      35.504  12.109  15.053  0.00  0.00     0.207 C 
BRANCH  29  30
HETATM   30  C   UNK N   1      35.183  12.988  16.279  0.00  0.00     0.301 C 
HETATM   31  F   UNK N   1      33.868  13.435  16.233  0.00  0.00    -0.197 F 
HETATM   32  F   UNK N   1      36.015  14.091  16.286  0.00  0.00    -0.197 F 
BRANCH  30  33
HETATM   33  C   UNK N   1      35.390  12.213  17.548  0.00  0.00     0.083 A 
HETATM   34  C   UNK N   1      35.200  12.826  18.794  0.00  0.00     0.031 A 
HETATM   35  C   UNK N   1      35.391  12.083  19.961  0.00  0.00     0.003 A 
HETATM   36  C   UNK N   1      35.767  10.743  19.876  0.00  0.00     0.017 A 
HETATM   37  C   UNK N   1      35.946  10.162  18.620  0.00  0.00     0.088 A 
HETATM   38  N   UNK N   1      35.755  10.899  17.494  0.00  0.00    -0.364 N 
ATOM     39  HN  UNK N   1      35.888  10.459  16.583  1.00  0.00     0.165 HD
ENDBRANCH  30  33
ENDBRANCH  29  30
ENDBRANCH  27  29
ENDBRANCH   3  27
TORSDOF 11
ENDMDL
MODEL 4
REMARK VINA RESULT:      -7.3      3.434     10.240
REMARK  11 active torsions:
REMARK  status: ('A' for Active; 'I' for Inactive)
REMARK    1  A    between atoms: C_9  and  C_8 
REMARK    2  A    between atoms: N_25  and  C_8 
REMARK    3  A    between atoms: N_32  and  C_9 
REMARK    4  A    between atoms: C_14  and  C_10 
REMARK    5  A    between atoms: N_25  and  C_10 
REMARK    6  A    between atoms: C_20  and  C_12 
REMARK    7  A    between atoms: N_30  and  C_12 
REMARK    8  A    between atoms: C_20  and  C_15 
REMARK    9  A    between atoms: C_17  and  N_24 
REMARK   10  A    between atoms: N_30  and  C_18 
REMARK   11  A    between atoms: O_33  and  C_19 
ROOT
HETATM    1  C   UNK N   1      35.898  12.358   9.941  0.00  0.00     0.131 A 
HETATM    2  C   UNK N   1      35.485  13.316   9.115  0.00  0.00     0.119 A 
HETATM    3  C   UNK N   1      36.413  13.861  11.710  0.00  0.00     0.127 A 
HETATM    4  C   UNK N   1      36.026  15.061  10.850  0.00  0.00     0.289 A 
HETATM    5 Cl   UNK N   1      34.847  12.825   7.546  0.00  0.00    -0.063 Cl
HETATM    6  N   UNK N   1      36.363  12.663  11.246  0.00  0.00    -0.349 N 
ATOM      7  HN  UNK N   1      36.672  11.897  11.844  1.00  0.00     0.166 HD
HETATM    8  N   UNK N   1      35.551  14.690   9.517  0.00  0.00    -0.336 N 
ENDROOT
BRANCH   8   9
HETATM    9  C   UNK N   1      35.064  15.753   8.649  0.00  0.00     0.146 C 
BRANCH   9  10
HETATM   10  C   UNK N   1      34.137  16.755   9.344  0.00  0.00     0.133 C 
BRANCH  10  11
HETATM   11  N   UNK N   1      33.150  17.290   8.423  0.00  0.00    -0.419 N 
HETATM   12  H   UNK N   1      33.132  18.240   8.054  0.00  0.00     0.153 HD
BRANCH  11  13
HETATM   13  C   UNK N   1      32.191  16.233   8.119  0.00  0.00     0.120 C 
BRANCH  13  14
HETATM   14  C   UNK N   1      31.790  16.172   6.633  0.00  0.00     0.025 C 
HETATM   15  C   UNK N   1      32.518  17.308   5.908  0.00  0.00     0.012 C 
HETATM   16  C   UNK N   1      31.978  17.571   4.498  0.00  0.00     0.046 C 
HETATM   17  C   UNK N   1      31.059  16.454   4.002  0.00  0.00     0.169 C 
HETATM   18  N   UNK N   1      29.928  16.237   4.918  0.00  0.00    -0.398 N 
HETATM   19  C   UNK N   1      30.263  16.253   6.354  0.00  0.00     0.080 C 
HETATM   20  H   UNK N   1      28.977  16.085   4.582  0.00  0.00     0.155 HD
HETATM   21  C   UNK N   1      29.644  17.502   6.969  0.00  0.00     0.032 C 
BRANCH  17  22
HETATM   22  N   UNK N   1      30.546  16.813   2.695  0.00  0.00    -0.411 N 
HETATM   23  H   UNK N   1      30.084  17.708   2.533  0.00  0.00     0.151 HD
HETATM   24  H   UNK N   1      30.648  16.157   1.920  0.00  0.00     0.151 HD
ENDBRANCH  17  22
ENDBRANCH  13  14
ENDBRANCH  11  13
ENDBRANCH  10  11
ENDBRANCH   9  10
ENDBRANCH   8   9
BRANCH   4  25
HETATM   25  O   UNK N   1      37.133  15.905  10.734  0.00  0.00    -0.369 OA
HETATM   26  H   UNK N   1      38.045  15.674  10.501  0.00  0.00     0.212 HD
ENDBRANCH   4  25
BRANCH   3  27
HETATM   27  N   UNK N   1      36.799  14.038  13.068  0.00  0.00    -0.370 N 
HETATM   28  H   UNK N   1      37.707  14.368  13.256  0.00  0.00     0.161 HD
BRANCH  27  29
HETATM   29  C   UNK N   1      35.925  13.758  14.185  0.00  0.00     0.207 C 
BRANCH  29  30
HETATM   30  C   UNK N   1      36.290  12.423  14.866  0.00  0.00     0.301 C 
HETATM   31  F   UNK N   1      37.657  12.188  14.786  0.00  0.00    -0.197 F 
HETATM   32  F   UNK N   1      35.634  11.386  14.229  0.00  0.00    -0.197 F 
BRANCH  30  33
HETATM   33  C   UNK N   1      35.882  12.444  16.311  0.00  0.00     0.083 A 
HETATM   34  C   UNK N   1      35.806  11.252  17.045  0.00  0.00     0.031 A 
HETATM   35  C   UNK N   1      35.433  11.297  18.389  0.00  0.00     0.003 A 
HETATM   36  C   UNK N   1      35.140  12.523  18.988  0.00  0.00     0.017 A 
HETATM   37  C   UNK N   1      35.226  13.691  18.229  0.00  0.00     0.088 A 
HETATM   38  N   UNK N   1      35.593  13.629  16.921  0.00  0.00    -0.364 N 
ATOM     39  HN  UNK N   1      35.654  14.493  16.381  1.00  0.00     0.165 HD
ENDBRANCH  30  33
ENDBRANCH  29  30
ENDBRANCH  27  29
ENDBRANCH   3  27
TORSDOF 11
ENDMDL
MODEL 5
REMARK VINA RESULT:      -7.3      7.180     14.601
REMARK  11 active torsions:
REMARK  status: ('A' for Active; 'I' for Inactive)
REMARK    1  A    between atoms: C_9  and  C_8 
REMARK    2  A    between atoms: N_25  and  C_8 
REMARK    3  A    between atoms: N_32  and  C_9 
REMARK    4  A    between atoms: C_14  and  C_10 
REMARK    5  A    between atoms: N_25  and  C_10 
REMARK    6  A    between atoms: C_20  and  C_12 
REMARK    7  A    between atoms: N_30  and  C_12 
REMARK    8  A    between atoms: C_20  and  C_15 
REMARK    9  A    between atoms: C_17  and  N_24 
REMARK   10  A    between atoms: N_30  and  C_18 
REMARK   11  A    between atoms: O_33  and  C_19 
ROOT
HETATM    1  C   UNK N   1      26.379  20.343   5.613  0.00  0.00     0.131 A 
HETATM    2  C   UNK N   1      25.882  19.612   4.618  0.00  0.00     0.119 A 
HETATM    3  C   UNK N   1      27.437  18.498   6.674  0.00  0.00     0.127 A 
HETATM    4  C   UNK N   1      26.882  17.534   5.631  0.00  0.00     0.289 A 
HETATM    5 Cl   UNK N   1      24.995  20.455   3.348  0.00  0.00    -0.063 Cl
HETATM    6  N   UNK N   1      27.160  19.753   6.638  0.00  0.00    -0.349 N 
ATOM      7  HN  UNK N   1      27.519  20.352   7.383  1.00  0.00     0.166 HD
HETATM    8  N   UNK N   1      26.088  18.194   4.595  0.00  0.00    -0.336 N 
ENDROOT
BRANCH   8   9
HETATM    9  C   UNK N   1      25.592  17.379   3.495  0.00  0.00     0.146 C 
BRANCH   9  10
HETATM   10  C   UNK N   1      24.282  16.646   3.798  0.00  0.00     0.133 C 
BRANCH  10  11
HETATM   11  N   UNK N   1      23.500  17.352   4.797  0.00  0.00    -0.419 N 
HETATM   12  H   UNK N   1      23.865  17.782   5.647  0.00  0.00     0.153 HD
BRANCH  11  13
HETATM   13  C   UNK N   1      22.103  17.338   4.375  0.00  0.00     0.120 C 
BRANCH  13  14
HETATM   14  C   UNK N   1      21.803  18.293   3.205  0.00  0.00     0.025 C 
HETATM   15  C   UNK N   1      21.531  19.680   3.794  0.00  0.00     0.012 C 
HETATM   16  C   UNK N   1      20.909  20.655   2.787  0.00  0.00     0.046 C 
HETATM   17  C   UNK N   1      20.988  20.143   1.348  0.00  0.00     0.169 C 
HETATM   18  N   UNK N   1      20.345  18.829   1.204  0.00  0.00    -0.398 N 
HETATM   19  C   UNK N   1      20.626  17.864   2.284  0.00  0.00     0.080 C 
HETATM   20  H   UNK N   1      19.745  18.600   0.412  0.00  0.00     0.155 HD
HETATM   21  C   UNK N   1      19.341  17.652   3.074  0.00  0.00     0.032 C 
BRANCH  17  22
HETATM   22  N   UNK N   1      20.325  21.092   0.475  0.00  0.00    -0.411 N 
HETATM   23  H   UNK N   1      20.186  20.893  -0.516  0.00  0.00     0.151 HD
HETATM   24  H   UNK N   1      19.990  21.976   0.859  0.00  0.00     0.151 HD
ENDBRANCH  17  22
ENDBRANCH  13  14
ENDBRANCH  11  13
ENDBRANCH  10  11
ENDBRANCH   9  10
ENDBRANCH   8   9
BRANCH   4  25
HETATM   25  O   UNK N   1      26.101  16.573   6.277  0.00  0.00    -0.369 OA
HETATM   26  H   UNK N   1      25.139  16.458   6.245  0.00  0.00     0.212 HD
ENDBRANCH   4  25
BRANCH   3  27
HETATM   27  N   UNK N   1      28.315  18.035   7.694  0.00  0.00    -0.370 N 
HETATM   28  H   UNK N   1      27.941  17.859   8.587  0.00  0.00     0.161 HD
BRANCH  27  29
HETATM   29  C   UNK N   1      29.727  17.809   7.484  0.00  0.00     0.207 C 
BRANCH  29  30
HETATM   30  C   UNK N   1      30.521  17.937   8.799  0.00  0.00     0.301 C 
HETATM   31  F   UNK N   1      29.908  17.215   9.817  0.00  0.00    -0.197 F 
HETATM   32  F   UNK N   1      30.571  19.265   9.180  0.00  0.00    -0.197 F 
BRANCH  30  33
HETATM   33  C   UNK N   1      31.922  17.430   8.617  0.00  0.00     0.083 A 
HETATM   34  C   UNK N   1      32.897  18.236   8.015  0.00  0.00     0.031 A 
HETATM   35  C   UNK N   1      34.196  17.746   7.865  0.00  0.00     0.003 A 
HETATM   36  C   UNK N   1      34.510  16.463   8.314  0.00  0.00     0.017 A 
HETATM   37  C   UNK N   1      33.517  15.687   8.911  0.00  0.00     0.088 A 
HETATM   38  N   UNK N   1      32.257  16.180   9.051  0.00  0.00    -0.364 N 
ATOM     39  HN  UNK N   1      31.542  15.600   9.492  1.00  0.00     0.165 HD
ENDBRANCH  30  33
ENDBRANCH  29  30
ENDBRANCH  27  29
ENDBRANCH   3  27
TORSDOF 11
ENDMDL
MODEL 6
REMARK VINA RESULT:      -7.2      2.928      9.659
REMARK  11 active torsions:
REMARK  status: ('A' for Active; 'I' for Inactive)
REMARK    1  A    between atoms: C_9  and  C_8 
REMARK    2  A    between atoms: N_25  and  C_8 
REMARK    3  A    between atoms: N_32  and  C_9 
REMARK    4  A    between atoms: C_14  and  C_10 
REMARK    5  A    between atoms: N_25  and  C_10 
REMARK    6  A    between atoms: C_20  and  C_12 
REMARK    7  A    between atoms: N_30  and  C_12 
REMARK    8  A    between atoms: C_20  and  C_15 
REMARK    9  A    between atoms: C_17  and  N_24 
REMARK   10  A    between atoms: N_30  and  C_18 
REMARK   11  A    between atoms: O_33  and  C_19 
ROOT
HETATM    1  C   UNK N   1      34.991  12.171  10.000  0.00  0.00     0.131 A 
HETATM    2  C   UNK N   1      34.713  13.264   9.292  0.00  0.00     0.119 A 
HETATM    3  C   UNK N   1      36.575  13.265  11.395  0.00  0.00     0.127 A 
HETATM    4  C   UNK N   1      36.398  14.573  10.630  0.00  0.00     0.289 A 
HETATM    5 Cl   UNK N   1      33.461  13.141   8.057  0.00  0.00    -0.063 Cl
HETATM    6  N   UNK N   1      35.936  12.201  11.056  0.00  0.00    -0.349 N 
ATOM      7  HN  UNK N   1      36.119  11.339  11.570  1.00  0.00     0.166 HD
HETATM    8  N   UNK N   1      35.410  14.488   9.556  0.00  0.00    -0.336 N 
ENDROOT
BRANCH   8   9
HETATM    9  C   UNK N   1      35.092  15.707   8.825  0.00  0.00     0.146 C 
BRANCH   9  10
HETATM   10  C   UNK N   1      34.717  16.893   9.718  0.00  0.00     0.133 C 
BRANCH  10  11
HETATM   11  N   UNK N   1      33.621  17.657   9.150  0.00  0.00    -0.419 N 
HETATM   12  H   UNK N   1      33.554  18.674   9.123  0.00  0.00     0.153 HD
BRANCH  11  13
HETATM   13  C   UNK N   1      32.635  16.718   8.627  0.00  0.00     0.120 C 
BRANCH  13  14
HETATM   14  C   UNK N   1      31.349  17.395   8.115  0.00  0.00     0.025 C 
HETATM   15  C   UNK N   1      30.210  17.007   9.062  0.00  0.00     0.012 C 
HETATM   16  C   UNK N   1      28.821  17.340   8.508  0.00  0.00     0.046 C 
HETATM   17  C   UNK N   1      28.880  18.265   7.292  0.00  0.00     0.169 C 
HETATM   18  N   UNK N   1      29.701  17.692   6.215  0.00  0.00    -0.398 N 
HETATM   19  C   UNK N   1      30.961  17.059   6.647  0.00  0.00     0.080 C 
HETATM   20  H   UNK N   1      29.419  17.731   5.236  0.00  0.00     0.155 HD
HETATM   21  C   UNK N   1      30.834  15.557   6.429  0.00  0.00     0.032 C 
BRANCH  17  22
HETATM   22  N   UNK N   1      27.533  18.477   6.797  0.00  0.00    -0.411 N 
HETATM   23  H   UNK N   1      26.730  18.473   7.426  0.00  0.00     0.151 HD
HETATM   24  H   UNK N   1      27.386  18.634   5.800  0.00  0.00     0.151 HD
ENDBRANCH  17  22
ENDBRANCH  13  14
ENDBRANCH  11  13
ENDBRANCH  10  11
ENDBRANCH   9  10
ENDBRANCH   8   9
BRANCH   4  25
HETATM   25  O   UNK N   1      37.633  14.953  10.100  0.00  0.00    -0.369 OA
HETATM   26  H   UNK N   1      38.491  15.004  10.549  0.00  0.00     0.212 HD
ENDBRANCH   4  25
BRANCH   3  27
HETATM   27  N   UNK N   1      37.423  13.201  12.536  0.00  0.00    -0.370 N 
HETATM   28  H   UNK N   1      38.308  13.629  12.484  0.00  0.00     0.161 HD
BRANCH  27  29
HETATM   29  C   UNK N   1      37.050  12.541  13.767  0.00  0.00     0.207 C 
BRANCH  29  30
HETATM   30  C   UNK N   1      36.291  13.496  14.711  0.00  0.00     0.301 C 
HETATM   31  F   UNK N   1      35.112  13.937  14.122  0.00  0.00    -0.197 F 
HETATM   32  F   UNK N   1      37.079  14.599  14.982  0.00  0.00    -0.197 F 
BRANCH  30  33
HETATM   33  C   UNK N   1      35.961  12.803  16.002  0.00  0.00     0.083 A 
HETATM   34  C   UNK N   1      36.214  11.434  16.159  0.00  0.00     0.031 A 
HETATM   35  C   UNK N   1      35.908  10.814  17.371  0.00  0.00     0.003 A 
HETATM   36  C   UNK N   1      35.355  11.560  18.412  0.00  0.00     0.017 A 
HETATM   37  C   UNK N   1      35.119  12.922  18.225  0.00  0.00     0.088 A 
HETATM   38  N   UNK N   1      35.424  13.511  17.038  0.00  0.00    -0.364 N 
ATOM     39  HN  UNK N   1      35.247  14.508  16.917  1.00  0.00     0.165 HD
ENDBRANCH  30  33
ENDBRANCH  29  30
ENDBRANCH  27  29
ENDBRANCH   3  27
TORSDOF 11
ENDMDL
MODEL 7
REMARK VINA RESULT:      -7.2      3.745      9.628
REMARK  11 active torsions:
REMARK  status: ('A' for Active; 'I' for Inactive)
REMARK    1  A    between atoms: C_9  and  C_8 
REMARK    2  A    between atoms: N_25  and  C_8 
REMARK    3  A    between atoms: N_32  and  C_9 
REMARK    4  A    between atoms: C_14  and  C_10 
REMARK    5  A    between atoms: N_25  and  C_10 
REMARK    6  A    between atoms: C_20  and  C_12 
REMARK    7  A    between atoms: N_30  and  C_12 
REMARK    8  A    between atoms: C_20  and  C_15 
REMARK    9  A    between atoms: C_17  and  N_24 
REMARK   10  A    between atoms: N_30  and  C_18 
REMARK   11  A    between atoms: O_33  and  C_19 
ROOT
HETATM    1  C   UNK N   1      34.740  11.379  10.404  0.00  0.00     0.131 A 
HETATM    2  C   UNK N   1      35.096  12.592   9.988  0.00  0.00     0.119 A 
HETATM    3  C   UNK N   1      35.247  11.821  12.685  0.00  0.00     0.127 A 
HETATM    4  C   UNK N   1      35.745  13.221  12.339  0.00  0.00     0.289 A 
HETATM    5 Cl   UNK N   1      34.868  12.970   8.281  0.00  0.00    -0.063 Cl
HETATM    6  N   UNK N   1      34.828  11.017  11.772  0.00  0.00    -0.349 N 
ATOM      7  HN  UNK N   1      34.546  10.076  12.046  1.00  0.00     0.166 HD
HETATM    8  N   UNK N   1      35.627  13.545  10.918  0.00  0.00    -0.336 N 
ENDROOT
BRANCH   8   9
HETATM    9  C   UNK N   1      35.983  14.892  10.495  0.00  0.00     0.146 C 
BRANCH   9  10
HETATM   10  C   UNK N   1      34.948  15.959  10.867  0.00  0.00     0.133 C 
BRANCH  10  11
HETATM   11  N   UNK N   1      34.387  16.586   9.685  0.00  0.00    -0.419 N 
HETATM   12  H   UNK N   1      34.749  17.420   9.222  0.00  0.00     0.153 HD
BRANCH  11  13
HETATM   13  C   UNK N   1      33.217  15.818   9.274  0.00  0.00     0.120 C 
BRANCH  13  14
HETATM   14  C   UNK N   1      32.743  16.134   7.843  0.00  0.00     0.025 C 
HETATM   15  C   UNK N   1      33.807  17.016   7.184  0.00  0.00     0.012 C 
HETATM   16  C   UNK N   1      33.331  17.669   5.881  0.00  0.00     0.046 C 
HETATM   17  C   UNK N   1      32.031  17.057   5.358  0.00  0.00     0.169 C 
HETATM   18  N   UNK N   1      30.954  17.138   6.356  0.00  0.00    -0.398 N 
HETATM   19  C   UNK N   1      31.348  16.814   7.741  0.00  0.00     0.080 C 
HETATM   20  H   UNK N   1      30.000  17.400   6.109  0.00  0.00     0.155 HD
HETATM   21  C   UNK N   1      31.284  18.095   8.562  0.00  0.00     0.032 C 
BRANCH  17  22
HETATM   22  N   UNK N   1      31.622  17.772   4.164  0.00  0.00    -0.411 N 
HETATM   23  H   UNK N   1      32.026  17.557   3.252  0.00  0.00     0.151 HD
HETATM   24  H   UNK N   1      30.916  18.505   4.237  0.00  0.00     0.151 HD
ENDBRANCH  17  22
ENDBRANCH  13  14
ENDBRANCH  11  13
ENDBRANCH  10  11
ENDBRANCH   9  10
ENDBRANCH   8   9
BRANCH   4  25
HETATM   25  O   UNK N   1      37.078  13.334  12.737  0.00  0.00    -0.369 OA
HETATM   26  H   UNK N   1      37.452  13.881  13.445  0.00  0.00     0.212 HD
ENDBRANCH   4  25
BRANCH   3  27
HETATM   27  N   UNK N   1      35.196  11.383  14.037  0.00  0.00    -0.370 N 
HETATM   28  H   UNK N   1      35.609  10.519  14.265  0.00  0.00     0.161 HD
BRANCH  27  29
HETATM   29  C   UNK N   1      34.567  12.143  15.094  0.00  0.00     0.207 C 
BRANCH  29  30
HETATM   30  C   UNK N   1      35.452  12.193  16.356  0.00  0.00     0.301 C 
HETATM   31  F   UNK N   1      36.502  11.288  16.258  0.00  0.00    -0.197 F 
HETATM   32  F   UNK N   1      34.695  11.858  17.463  0.00  0.00    -0.197 F 
BRANCH  30  33
HETATM   33  C   UNK N   1      36.013  13.572  16.550  0.00  0.00     0.083 A 
HETATM   34  C   UNK N   1      35.714  14.305  17.706  0.00  0.00     0.031 A 
HETATM   35  C   UNK N   1      36.254  15.582  17.868  0.00  0.00     0.003 A 
HETATM   36  C   UNK N   1      37.084  16.115  16.881  0.00  0.00     0.017 A 
HETATM   37  C   UNK N   1      37.363  15.358  15.743  0.00  0.00     0.088 A 
HETATM   38  N   UNK N   1      36.830  14.115  15.601  0.00  0.00    -0.364 N 
ATOM     39  HN  UNK N   1      37.046  13.574  14.764  1.00  0.00     0.165 HD
ENDBRANCH  30  33
ENDBRANCH  29  30
ENDBRANCH  27  29
ENDBRANCH   3  27
TORSDOF 11
ENDMDL
MODEL 8
REMARK VINA RESULT:      -7.1      1.841      2.554
REMARK  11 active torsions:
REMARK  status: ('A' for Active; 'I' for Inactive)
REMARK    1  A    between atoms: C_9  and  C_8 
REMARK    2  A    between atoms: N_25  and  C_8 
REMARK    3  A    between atoms: N_32  and  C_9 
REMARK    4  A    between atoms: C_14  and  C_10 
REMARK    5  A    between atoms: N_25  and  C_10 
REMARK    6  A    between atoms: C_20  and  C_12 
REMARK    7  A    between atoms: N_30  and  C_12 
REMARK    8  A    between atoms: C_20  and  C_15 
REMARK    9  A    between atoms: C_17  and  N_24 
REMARK   10  A    between atoms: N_30  and  C_18 
REMARK   11  A    between atoms: O_33  and  C_19 
ROOT
HETATM    1  C   UNK N   1      35.365  16.547  11.408  0.00  0.00     0.131 A 
HETATM    2  C   UNK N   1      35.761  15.302  11.664  0.00  0.00     0.119 A 
HETATM    3  C   UNK N   1      34.766  16.080   9.155  0.00  0.00     0.127 A 
HETATM    4  C   UNK N   1      35.239  14.636   9.291  0.00  0.00     0.289 A 
HETATM    5 Cl   UNK N   1      36.282  14.931  13.307  0.00  0.00    -0.063 Cl
HETATM    6  N   UNK N   1      34.868  16.911  10.131  0.00  0.00    -0.349 N 
ATOM      7  HN  UNK N   1      34.579  17.877   9.979  1.00  0.00     0.166 HD
HETATM    8  N   UNK N   1      35.737  14.312  10.628  0.00  0.00    -0.336 N 
ENDROOT
BRANCH   8   9
HETATM    9  C   UNK N   1      36.123  12.933  10.894  0.00  0.00     0.146 C 
BRANCH   9  10
HETATM   10  C   UNK N   1      34.942  11.985  11.122  0.00  0.00     0.133 C 
BRANCH  10  11
HETATM   11  N   UNK N   1      34.448  12.074  12.484  0.00  0.00    -0.419 N 
HETATM   12  H   UNK N   1      34.069  12.910  12.929  0.00  0.00     0.153 HD
BRANCH  11  13
HETATM   13  C   UNK N   1      34.586  10.761  13.105  0.00  0.00     0.120 C 
BRANCH  13  14
HETATM   14  C   UNK N   1      34.744  10.815  14.636  0.00  0.00     0.025 C 
HETATM   15  C   UNK N   1      34.418  12.242  15.087  0.00  0.00     0.012 C 
HETATM   16  C   UNK N   1      34.836  12.531  16.533  0.00  0.00     0.046 C 
HETATM   17  C   UNK N   1      35.192  11.262  17.307  0.00  0.00     0.169 C 
HETATM   18  N   UNK N   1      36.260  10.502  16.641  0.00  0.00    -0.398 N 
HETATM   19  C   UNK N   1      36.140  10.391  15.175  0.00  0.00     0.080 C 
HETATM   20  H   UNK N   1      37.032  10.080  17.157  0.00  0.00     0.155 HD
HETATM   21  C   UNK N   1      37.259  11.212  14.546  0.00  0.00     0.032 C 
BRANCH  17  22
HETATM   22  N   UNK N   1      35.634  11.631  18.638  0.00  0.00    -0.411 N 
HETATM   23  H   UNK N   1      34.985  12.015  19.326  0.00  0.00     0.151 HD
HETATM   24  H   UNK N   1      36.614  11.504  18.893  0.00  0.00     0.151 HD
ENDBRANCH  17  22
ENDBRANCH  13  14
ENDBRANCH  11  13
ENDBRANCH  10  11
ENDBRANCH   9  10
ENDBRANCH   8   9
BRANCH   4  25
HETATM   25  O   UNK N   1      36.242  14.401   8.349  0.00  0.00    -0.369 OA
HETATM   26  H   UNK N   1      36.229  14.584   7.396  0.00  0.00     0.212 HD
ENDBRANCH   4  25
BRANCH   3  27
HETATM   27  N   UNK N   1      34.158  16.533   7.951  0.00  0.00    -0.370 N 
HETATM   28  H   UNK N   1      34.475  16.158   7.098  0.00  0.00     0.161 HD
BRANCH  27  29
HETATM   29  C   UNK N   1      33.098  17.515   7.917  0.00  0.00     0.207 C 
BRANCH  29  30
HETATM   30  C   UNK N   1      31.874  16.997   7.136  0.00  0.00     0.301 C 
HETATM   31  F   UNK N   1      31.906  15.611   7.031  0.00  0.00    -0.197 F 
HETATM   32  F   UNK N   1      31.883  17.528   5.860  0.00  0.00    -0.197 F 
BRANCH  30  33
HETATM   33  C   UNK N   1      30.602  17.404   7.823  0.00  0.00     0.083 A 
HETATM   34  C   UNK N   1      30.642  18.193   8.981  0.00  0.00     0.031 A 
HETATM   35  C   UNK N   1      29.446  18.567   9.597  0.00  0.00     0.003 A 
HETATM   36  C   UNK N   1      28.228  18.152   9.058  0.00  0.00     0.017 A 
HETATM   37  C   UNK N   1      28.224  17.369   7.904  0.00  0.00     0.088 A 
HETATM   38  N   UNK N   1      29.397  17.015   7.315  0.00  0.00    -0.364 N 
ATOM     39  HN  UNK N   1      29.377  16.444   6.470  1.00  0.00     0.165 HD
ENDBRANCH  30  33
ENDBRANCH  29  30
ENDBRANCH  27  29
ENDBRANCH   3  27
TORSDOF 11
ENDMDL
MODEL 9
REMARK VINA RESULT:      -7.1     18.431     21.181
REMARK  11 active torsions:
REMARK  status: ('A' for Active; 'I' for Inactive)
REMARK    1  A    between atoms: C_9  and  C_8 
REMARK    2  A    between atoms: N_25  and  C_8 
REMARK    3  A    between atoms: N_32  and  C_9 
REMARK    4  A    between atoms: C_14  and  C_10 
REMARK    5  A    between atoms: N_25  and  C_10 
REMARK    6  A    between atoms: C_20  and  C_12 
REMARK    7  A    between atoms: N_30  and  C_12 
REMARK    8  A    between atoms: C_20  and  C_15 
REMARK    9  A    between atoms: C_17  and  N_24 
REMARK   10  A    between atoms: N_30  and  C_18 
REMARK   11  A    between atoms: O_33  and  C_19 
ROOT
HETATM    1  C   UNK N   1      29.096  29.601  -1.405  0.00  0.00     0.131 A 
HETATM    2  C   UNK N   1      30.135  29.330  -2.191  0.00  0.00     0.119 A 
HETATM    3  C   UNK N   1      27.481  29.172  -3.097  0.00  0.00     0.127 A 
HETATM    4  C   UNK N   1      28.577  28.893  -4.121  0.00  0.00     0.289 A 
HETATM    5 Cl   UNK N   1      31.743  29.385  -1.469  0.00  0.00    -0.063 Cl
HETATM    6  N   UNK N   1      27.766  29.513  -1.891  0.00  0.00    -0.349 N 
ATOM      7  HN  UNK N   1      27.000  29.733  -1.253  1.00  0.00     0.166 HD
HETATM    8  N   UNK N   1      29.927  28.991  -3.568  0.00  0.00    -0.336 N 
ENDROOT
BRANCH   8   9
HETATM    9  C   UNK N   1      31.045  28.648  -4.436  0.00  0.00     0.146 C 
BRANCH   9  10
HETATM   10  C   UNK N   1      31.030  27.199  -4.933  0.00  0.00     0.133 C 
BRANCH  10  11
HETATM   11  N   UNK N   1      31.505  26.285  -3.912  0.00  0.00    -0.419 N 
HETATM   12  H   UNK N   1      32.401  26.343  -3.428  0.00  0.00     0.153 HD
BRANCH  11  13
HETATM   13  C   UNK N   1      30.480  25.269  -3.697  0.00  0.00     0.120 C 
BRANCH  13  14
HETATM   14  C   UNK N   1      31.000  23.826  -3.845  0.00  0.00     0.025 C 
HETATM   15  C   UNK N   1      30.277  23.191  -5.036  0.00  0.00     0.012 C 
HETATM   16  C   UNK N   1      30.452  21.670  -5.110  0.00  0.00     0.046 C 
HETATM   17  C   UNK N   1      31.555  21.160  -4.182  0.00  0.00     0.169 C 
HETATM   18  N   UNK N   1      31.310  21.547  -2.785  0.00  0.00    -0.398 N 
HETATM   19  C   UNK N   1      30.841  22.931  -2.584  0.00  0.00     0.080 C 
HETATM   20  H   UNK N   1      31.455  20.904  -2.007  0.00  0.00     0.155 HD
HETATM   21  C   UNK N   1      29.393  22.875  -2.113  0.00  0.00     0.032 C 
BRANCH  17  22
HETATM   22  N   UNK N   1      31.610  19.713  -4.268  0.00  0.00    -0.411 N 
HETATM   23  H   UNK N   1      31.555  19.129  -3.433  0.00  0.00     0.151 HD
HETATM   24  H   UNK N   1      31.706  19.269  -5.181  0.00  0.00     0.151 HD
ENDBRANCH  17  22
ENDBRANCH  13  14
ENDBRANCH  11  13
ENDBRANCH  10  11
ENDBRANCH   9  10
ENDBRANCH   8   9
BRANCH   4  25
HETATM   25  O   UNK N   1      28.439  29.790  -5.182  0.00  0.00    -0.369 OA
HETATM   26  H   UNK N   1      27.883  30.583  -5.232  0.00  0.00     0.212 HD
ENDBRANCH   4  25
BRANCH   3  27
HETATM   27  N   UNK N   1      26.110  29.019  -3.443  0.00  0.00    -0.370 N 
HETATM   28  H   UNK N   1      25.564  29.830  -3.558  0.00  0.00     0.161 HD
BRANCH  27  29
HETATM   29  C   UNK N   1      25.478  27.733  -3.634  0.00  0.00     0.207 C 
BRANCH  29  30
HETATM   30  C   UNK N   1      25.299  27.409  -5.131  0.00  0.00     0.301 C 
HETATM   31  F   UNK N   1      26.032  28.289  -5.917  0.00  0.00    -0.197 F 
HETATM   32  F   UNK N   1      23.965  27.531  -5.472  0.00  0.00    -0.197 F 
BRANCH  30  33
HETATM   33  C   UNK N   1      25.748  26.005  -5.421  0.00  0.00     0.083 A 
HETATM   34  C   UNK N   1      25.703  25.501  -6.727  0.00  0.00     0.031 A 
HETATM   35  C   UNK N   1      26.134  24.196  -6.974  0.00  0.00     0.003 A 
HETATM   36  C   UNK N   1      26.605  23.410  -5.922  0.00  0.00     0.017 A 
HETATM   37  C   UNK N   1      26.639  23.943  -4.633  0.00  0.00     0.088 A 
HETATM   38  N   UNK N   1      26.216  25.217  -4.410  0.00  0.00    -0.364 N 
ATOM     39  HN  UNK N   1      26.249  25.593  -3.463  1.00  0.00     0.165 HD
ENDBRANCH  30  33
ENDBRANCH  29  30
ENDBRANCH  27  29
ENDBRANCH   3  27
TORSDOF 11
ENDMDL
