MODEL 1
REMARK VINA RESULT:      -7.5      0.000      0.000
REMARK  4 active torsions:
REMARK  status: ('A' for Active; 'I' for Inactive)
REMARK    1  A    between atoms: O_25  and  C_10 
REMARK    2  A    between atoms: O_21  and  C_13 
REMARK    3  A    between atoms: C_14  and  O_22 
REMARK    4  A    between atoms: C_17  and  O_23 
ROOT
HETATM    1  C   UNK N   1      18.794  15.856   5.224  0.00  0.00     0.040 C 
HETATM    2  C   UNK N   1      22.265  16.982   4.464  0.00  0.00    -0.020 C 
HETATM    3  C   UNK N   1      20.811  16.870   4.257  0.00  0.00     0.059 C 
HETATM    4  C   UNK N   1      23.171  17.634   3.727  0.00  0.00     0.049 C 
HETATM    5  C   UNK N   1      23.191  13.019   9.333  0.00  0.00     0.047 A 
HETATM    6  C   UNK N   1      21.155  12.896  10.580  0.00  0.00     0.074 A 
HETATM    7  C   UNK N   1      26.182  14.661   6.431  0.00  0.00     0.069 C 
HETATM    8  C   UNK N   1      20.134  16.486   5.581  0.00  0.00     0.131 C 
HETATM    9  C   UNK N   1      22.478  12.510  10.405  0.00  0.00     0.071 A 
HETATM   10  C   UNK N   1      22.622  13.899   8.388  0.00  0.00    -0.005 A 
HETATM   11  C   UNK N   1      24.590  17.391   4.097  0.00  0.00     0.180 C 
HETATM   12  C   UNK N   1      20.541  13.770   9.691  0.00  0.00     0.085 A 
HETATM   13  C   UNK N   1      26.227  15.973   5.607  0.00  0.00     0.157 C 
HETATM   14  C   UNK N   1      25.048  14.379   7.461  0.00  0.00     0.158 A 
HETATM   15  C   UNK N   1      21.240  14.295   8.554  0.00  0.00     0.081 A 
HETATM   16  C   UNK N   1      24.859  16.227   5.016  0.00  0.00     0.220 C 
HETATM   17  C   UNK N   1      23.529  14.344   7.245  0.00  0.00     0.185 A 
HETATM   18  C   UNK N   1      20.467  15.234   7.631  0.00  0.00     0.297 C 
HETATM   19  O   UNK N   1      25.491  18.085   3.652  0.00  0.00    -0.290 OA
HETATM   20  O   UNK N   1      19.383  15.657   8.019  0.00  0.00    -0.259 OA
HETATM   21  O   UNK N   1      20.895  15.621   6.390  0.00  0.00    -0.312 OA
HETATM   22  O   UNK N   1      24.361  13.276   6.895  0.00  0.00    -0.370 OA
ENDROOT
BRANCH   9  23
HETATM   23  O   UNK N   1      23.083  11.642  11.251  0.00  0.00    -0.356 OA
HETATM   24  C   UNK N   1      23.251  11.890  12.596  0.00  0.00     0.210 C 
ENDBRANCH   9  23
BRANCH  12  25
HETATM   25  O   UNK N   1      19.254  14.085   9.931  0.00  0.00    -0.360 OA
HETATM   26  H   UNK N   1      18.916  14.940   9.751  0.00  0.00     0.217 HD
ENDBRANCH  12  25
BRANCH  13  27
HETATM   27  O   UNK N   1      26.614  17.041   6.419  0.00  0.00    -0.392 OA
HETATM   28  H   UNK N   1      26.996  17.648   7.072  0.00  0.00     0.210 HD
ENDBRANCH  13  27
BRANCH  16  29
HETATM   29  O   UNK N   1      24.437  15.071   4.345  0.00  0.00    -0.385 OA
HETATM   30  H   UNK N   1      23.990  14.255   4.072  0.00  0.00     0.210 HD
ENDBRANCH  16  29
TORSDOF 4
ENDMDL
MODEL 2
REMARK VINA RESULT:      -7.4     15.052     17.309
REMARK  4 active torsions:
REMARK  status: ('A' for Active; 'I' for Inactive)
REMARK    1  A    between atoms: O_25  and  C_10 
REMARK    2  A    between atoms: O_21  and  C_13 
REMARK    3  A    between atoms: C_14  and  O_22 
REMARK    4  A    between atoms: C_17  and  O_23 
ROOT
HETATM    1  C   UNK N   1      26.117  25.488  -4.569  0.00  0.00     0.040 C 
HETATM    2  C   UNK N   1      29.050  23.538  -3.351  0.00  0.00    -0.020 C 
HETATM    3  C   UNK N   1      28.006  24.574  -3.293  0.00  0.00     0.059 C 
HETATM    4  C   UNK N   1      30.008  23.258  -2.460  0.00  0.00     0.049 C 
HETATM    5  C   UNK N   1      28.256  21.222  -9.205  0.00  0.00     0.047 A 
HETATM    6  C   UNK N   1      25.978  21.582  -9.837  0.00  0.00     0.074 A 
HETATM    7  C   UNK N   1      31.792  20.840  -6.482  0.00  0.00     0.069 C 
HETATM    8  C   UNK N   1      26.859  24.198  -4.242  0.00  0.00     0.131 C 
HETATM    9  C   UNK N   1      27.242  21.095 -10.141  0.00  0.00     0.071 A 
HETATM   10  C   UNK N   1      28.065  21.852  -7.958  0.00  0.00    -0.005 A 
HETATM   11  C   UNK N   1      31.029  22.274  -2.905  0.00  0.00     0.180 C 
HETATM   12  C   UNK N   1      25.723  22.201  -8.619  0.00  0.00     0.085 A 
HETATM   13  C   UNK N   1      31.927  20.850  -4.939  0.00  0.00     0.157 C 
HETATM   14  C   UNK N   1      30.402  20.894  -7.183  0.00  0.00     0.158 A 
HETATM   15  C   UNK N   1      26.755  22.375  -7.637  0.00  0.00     0.081 A 
HETATM   16  C   UNK N   1      31.061  21.954  -4.378  0.00  0.00     0.220 C 
HETATM   17  C   UNK N   1      29.289  21.943  -7.051  0.00  0.00     0.185 A 
HETATM   18  C   UNK N   1      26.372  23.083  -6.340  0.00  0.00     0.297 C 
HETATM   19  O   UNK N   1      31.818  21.777  -2.118  0.00  0.00    -0.290 OA
HETATM   20  O   UNK N   1      25.180  23.267  -6.116  0.00  0.00    -0.259 OA
HETATM   21  O   UNK N   1      27.273  23.545  -5.419  0.00  0.00    -0.312 OA
HETATM   22  O   UNK N   1      30.420  22.145  -7.848  0.00  0.00    -0.370 OA
ENDROOT
BRANCH   9  23
HETATM   23  O   UNK N   1      27.511  20.509 -11.332  0.00  0.00    -0.356 OA
HETATM   24  C   UNK N   1      28.779  20.135 -11.721  0.00  0.00     0.210 C 
ENDBRANCH   9  23
BRANCH  12  25
HETATM   25  O   UNK N   1      24.472  22.651  -8.410  0.00  0.00    -0.360 OA
HETATM   26  H   UNK N   1      24.242  23.119  -7.632  0.00  0.00     0.217 HD
ENDBRANCH  12  25
BRANCH  13  27
HETATM   27  O   UNK N   1      31.545  19.614  -4.412  0.00  0.00    -0.392 OA
HETATM   28  H   UNK N   1      31.100  18.833  -4.049  0.00  0.00     0.210 HD
ENDBRANCH  13  27
BRANCH  16  29
HETATM   29  O   UNK N   1      31.363  23.147  -5.049  0.00  0.00    -0.385 OA
HETATM   30  H   UNK N   1      31.591  24.060  -5.284  0.00  0.00     0.210 HD
ENDBRANCH  16  29
TORSDOF 4
ENDMDL
MODEL 3
REMARK VINA RESULT:      -7.1     15.504     16.944
REMARK  4 active torsions:
REMARK  status: ('A' for Active; 'I' for Inactive)
REMARK    1  A    between atoms: O_25  and  C_10 
REMARK    2  A    between atoms: O_21  and  C_13 
REMARK    3  A    between atoms: C_14  and  O_22 
REMARK    4  A    between atoms: C_17  and  O_23 
ROOT
HETATM    1  C   UNK N   1      26.520  20.713  -8.380  0.00  0.00     0.040 C 
HETATM    2  C   UNK N   1      29.921  20.557  -6.863  0.00  0.00    -0.020 C 
HETATM    3  C   UNK N   1      28.798  20.100  -7.699  0.00  0.00     0.059 C 
HETATM    4  C   UNK N   1      31.111  19.980  -6.664  0.00  0.00     0.049 C 
HETATM    5  C   UNK N   1      27.386  25.579  -3.926  0.00  0.00     0.047 A 
HETATM    6  C   UNK N   1      25.651  26.450  -5.321  0.00  0.00     0.074 A 
HETATM    7  C   UNK N   1      31.033  23.221  -2.830  0.00  0.00     0.069 C 
HETATM    8  C   UNK N   1      27.884  21.290  -8.024  0.00  0.00     0.131 C 
HETATM    9  C   UNK N   1      26.392  26.518  -4.149  0.00  0.00     0.071 A 
HETATM   10  C   UNK N   1      27.664  24.534  -4.832  0.00  0.00    -0.005 A 
HETATM   11  C   UNK N   1      31.953  20.598  -5.606  0.00  0.00     0.180 C 
HETATM   12  C   UNK N   1      25.885  25.452  -6.260  0.00  0.00     0.085 A 
HETATM   13  C   UNK N   1      32.036  22.397  -3.675  0.00  0.00     0.157 C 
HETATM   14  C   UNK N   1      29.884  24.040  -3.490  0.00  0.00     0.158 A 
HETATM   15  C   UNK N   1      26.887  24.447  -6.050  0.00  0.00     0.081 A 
HETATM   16  C   UNK N   1      31.267  21.570  -4.679  0.00  0.00     0.220 C 
HETATM   17  C   UNK N   1      28.766  23.561  -4.426  0.00  0.00     0.185 A 
HETATM   18  C   UNK N   1      27.052  23.388  -7.137  0.00  0.00     0.297 C 
HETATM   19  O   UNK N   1      33.132  20.307  -5.481  0.00  0.00    -0.290 OA
HETATM   20  O   UNK N   1      26.486  23.572  -8.209  0.00  0.00    -0.259 OA
HETATM   21  O   UNK N   1      27.774  22.235  -6.986  0.00  0.00    -0.312 OA
HETATM   22  O   UNK N   1      28.714  23.381  -3.041  0.00  0.00    -0.370 OA
ENDROOT
BRANCH   9  23
HETATM   23  O   UNK N   1      26.160  27.471  -3.215  0.00  0.00    -0.356 OA
HETATM   24  C   UNK N   1      26.191  28.821  -3.489  0.00  0.00     0.210 C 
ENDBRANCH   9  23
BRANCH  12  25
HETATM   25  O   UNK N   1      25.116  25.456  -7.365  0.00  0.00    -0.360 OA
HETATM   26  H   UNK N   1      24.182  25.498  -7.312  0.00  0.00     0.217 HD
ENDBRANCH  12  25
BRANCH  13  27
HETATM   27  O   UNK N   1      32.934  23.246  -4.326  0.00  0.00    -0.392 OA
HETATM   28  H   UNK N   1      33.395  23.912  -4.860  0.00  0.00     0.210 HD
ENDBRANCH  13  27
BRANCH  16  29
HETATM   29  O   UNK N   1      30.269  20.855  -4.003  0.00  0.00    -0.385 OA
HETATM   30  H   UNK N   1      29.734  20.384  -3.346  0.00  0.00     0.210 HD
ENDBRANCH  16  29
TORSDOF 4
ENDMDL
MODEL 4
REMARK VINA RESULT:      -7.0      5.201      7.546
REMARK  4 active torsions:
REMARK  status: ('A' for Active; 'I' for Inactive)
REMARK    1  A    between atoms: O_25  and  C_10 
REMARK    2  A    between atoms: O_21  and  C_13 
REMARK    3  A    between atoms: C_14  and  O_22 
REMARK    4  A    between atoms: C_17  and  O_23 
ROOT
HETATM    1  C   UNK N   1      25.748  14.646   3.915  0.00  0.00     0.040 C 
HETATM    2  C   UNK N   1      24.659  18.178   3.432  0.00  0.00    -0.020 C 
HETATM    3  C   UNK N   1      25.561  17.094   3.858  0.00  0.00     0.059 C 
HETATM    4  C   UNK N   1      24.824  19.501   3.542  0.00  0.00     0.049 C 
HETATM    5  C   UNK N   1      19.519  14.941   1.596  0.00  0.00     0.047 A 
HETATM    6  C   UNK N   1      20.224  12.759   0.922  0.00  0.00     0.074 A 
HETATM    7  C   UNK N   1      19.892  19.284   2.627  0.00  0.00     0.069 C 
HETATM    8  C   UNK N   1      25.216  15.811   3.089  0.00  0.00     0.131 C 
HETATM    9  C   UNK N   1      19.206  13.684   1.106  0.00  0.00     0.071 A 
HETATM   10  C   UNK N   1      20.834  15.318   1.941  0.00  0.00    -0.005 A 
HETATM   11  C   UNK N   1      23.638  20.325   3.189  0.00  0.00     0.180 C 
HETATM   12  C   UNK N   1      21.543  13.074   1.231  0.00  0.00     0.085 A 
HETATM   13  C   UNK N   1      21.077  20.278   2.547  0.00  0.00     0.157 C 
HETATM   14  C   UNK N   1      20.011  17.823   2.100  0.00  0.00     0.158 A 
HETATM   15  C   UNK N   1      21.900  14.356   1.766  0.00  0.00     0.081 A 
HETATM   16  C   UNK N   1      22.323  19.598   3.066  0.00  0.00     0.220 C 
HETATM   17  C   UNK N   1      21.010  16.728   2.498  0.00  0.00     0.185 A 
HETATM   18  C   UNK N   1      23.374  14.593   2.086  0.00  0.00     0.297 C 
HETATM   19  O   UNK N   1      23.726  21.533   3.038  0.00  0.00    -0.290 OA
HETATM   20  O   UNK N   1      24.190  13.774   1.675  0.00  0.00    -0.259 OA
HETATM   21  O   UNK N   1      23.843  15.649   2.820  0.00  0.00    -0.312 OA
HETATM   22  O   UNK N   1      19.892  17.042   3.277  0.00  0.00    -0.370 OA
ENDROOT
BRANCH   9  23
HETATM   23  O   UNK N   1      17.914  13.384   0.830  0.00  0.00    -0.356 OA
HETATM   24  C   UNK N   1      17.223  13.925  -0.232  0.00  0.00     0.210 C 
ENDBRANCH   9  23
BRANCH  12  25
HETATM   25  O   UNK N   1      22.466  12.115   1.030  0.00  0.00    -0.360 OA
HETATM   26  H   UNK N   1      22.959  11.752   1.738  0.00  0.00     0.217 HD
ENDBRANCH  12  25
BRANCH  13  27
HETATM   27  O   UNK N   1      21.265  20.703   1.230  0.00  0.00    -0.392 OA
HETATM   28  H   UNK N   1      21.487  21.151   0.399  0.00  0.00     0.210 HD
ENDBRANCH  13  27
BRANCH  16  29
HETATM   29  O   UNK N   1      22.043  19.044   4.322  0.00  0.00    -0.385 OA
HETATM   30  H   UNK N   1      22.090  18.610   5.188  0.00  0.00     0.210 HD
ENDBRANCH  16  29
TORSDOF 4
ENDMDL
MODEL 5
REMARK VINA RESULT:      -6.8     14.815     17.549
REMARK  4 active torsions:
REMARK  status: ('A' for Active; 'I' for Inactive)
REMARK    1  A    between atoms: O_25  and  C_10 
REMARK    2  A    between atoms: O_21  and  C_13 
REMARK    3  A    between atoms: C_14  and  O_22 
REMARK    4  A    between atoms: C_17  and  O_23 
ROOT
HETATM    1  C   UNK N   1      29.294  22.817  -2.195  0.00  0.00     0.040 C 
HETATM    2  C   UNK N   1      27.148  24.930  -4.391  0.00  0.00    -0.020 C 
HETATM    3  C   UNK N   1      27.764  24.498  -3.125  0.00  0.00     0.059 C 
HETATM    4  C   UNK N   1      26.293  25.936  -4.610  0.00  0.00     0.049 C 
HETATM    5  C   UNK N   1      29.051  20.376  -8.380  0.00  0.00     0.047 A 
HETATM    6  C   UNK N   1      31.097  19.469  -7.540  0.00  0.00     0.074 A 
HETATM    7  C   UNK N   1      25.706  23.318  -8.854  0.00  0.00     0.069 C 
HETATM    8  C   UNK N   1      29.026  23.675  -3.424  0.00  0.00     0.131 C 
HETATM    9  C   UNK N   1      30.100  19.482  -8.507  0.00  0.00     0.071 A 
HETATM   10  C   UNK N   1      28.935  21.264  -7.290  0.00  0.00    -0.005 A 
HETATM   11  C   UNK N   1      25.705  25.990  -5.974  0.00  0.00     0.180 C 
HETATM   12  C   UNK N   1      31.047  20.329  -6.449  0.00  0.00     0.085 A 
HETATM   13  C   UNK N   1      25.482  24.743  -8.291  0.00  0.00     0.157 C 
HETATM   14  C   UNK N   1      27.032  22.538  -8.606  0.00  0.00     0.158 A 
HETATM   15  C   UNK N   1      29.961  21.249  -6.270  0.00  0.00     0.081 A 
HETATM   16  C   UNK N   1      25.876  24.762  -6.832  0.00  0.00     0.220 C 
HETATM   17  C   UNK N   1      27.703  22.163  -7.277  0.00  0.00     0.185 A 
HETATM   18  C   UNK N   1      29.996  22.136  -5.028  0.00  0.00     0.297 C 
HETATM   19  O   UNK N   1      25.091  26.970  -6.363  0.00  0.00    -0.290 OA
HETATM   20  O   UNK N   1      31.034  22.173  -4.377  0.00  0.00    -0.259 OA
HETATM   21  O   UNK N   1      28.936  22.880  -4.582  0.00  0.00    -0.312 OA
HETATM   22  O   UNK N   1      26.622  21.447  -7.801  0.00  0.00    -0.370 OA
ENDROOT
BRANCH   9  23
HETATM   23  O   UNK N   1      30.124  18.635  -9.564  0.00  0.00    -0.356 OA
HETATM   24  C   UNK N   1      30.921  17.512  -9.615  0.00  0.00     0.210 C 
ENDBRANCH   9  23
BRANCH  12  25
HETATM   25  O   UNK N   1      32.050  20.244  -5.555  0.00  0.00    -0.360 OA
HETATM   26  H   UNK N   1      32.037  20.730  -4.755  0.00  0.00     0.217 HD
ENDBRANCH  12  25
BRANCH  13  27
HETATM   27  O   UNK N   1      26.235  25.673  -9.012  0.00  0.00    -0.392 OA
HETATM   28  H   UNK N   1      26.584  26.371  -9.588  0.00  0.00     0.210 HD
ENDBRANCH  13  27
BRANCH  16  29
HETATM   29  O   UNK N   1      25.222  23.710  -6.176  0.00  0.00    -0.385 OA
HETATM   30  H   UNK N   1      24.763  22.886  -5.949  0.00  0.00     0.210 HD
ENDBRANCH  16  29
TORSDOF 4
ENDMDL
MODEL 6
REMARK VINA RESULT:      -6.8      1.994      7.751
REMARK  4 active torsions:
REMARK  status: ('A' for Active; 'I' for Inactive)
REMARK    1  A    between atoms: O_25  and  C_10 
REMARK    2  A    between atoms: O_21  and  C_13 
REMARK    3  A    between atoms: C_14  and  O_22 
REMARK    4  A    between atoms: C_17  and  O_23 
ROOT
HETATM    1  C   UNK N   1      27.531  14.864   4.983  0.00  0.00     0.040 C 
HETATM    2  C   UNK N   1      24.603  14.177   7.184  0.00  0.00    -0.020 C 
HETATM    3  C   UNK N   1      25.928  13.930   6.592  0.00  0.00     0.059 C 
HETATM    4  C   UNK N   1      23.936  13.449   8.086  0.00  0.00     0.049 C 
HETATM    5  C   UNK N   1      22.605  19.188   3.842  0.00  0.00     0.047 A 
HETATM    6  C   UNK N   1      24.531  20.376   3.072  0.00  0.00     0.074 A 
HETATM    7  C   UNK N   1      20.217  16.331   6.331  0.00  0.00     0.069 C 
HETATM    8  C   UNK N   1      26.490  15.243   6.029  0.00  0.00     0.131 C 
HETATM    9  C   UNK N   1      23.150  20.253   3.145  0.00  0.00     0.071 A 
HETATM   10  C   UNK N   1      23.396  18.201   4.466  0.00  0.00    -0.005 A 
HETATM   11  C   UNK N   1      22.532  13.869   8.336  0.00  0.00     0.180 C 
HETATM   12  C   UNK N   1      25.366  19.443   3.677  0.00  0.00     0.085 A 
HETATM   13  C   UNK N   1      20.577  15.471   7.568  0.00  0.00     0.157 C 
HETATM   14  C   UNK N   1      21.232  17.334   5.707  0.00  0.00     0.158 A 
HETATM   15  C   UNK N   1      24.837  18.313   4.383  0.00  0.00     0.081 A 
HETATM   16  C   UNK N   1      21.928  14.831   7.343  0.00  0.00     0.220 C 
HETATM   17  C   UNK N   1      22.645  17.073   5.166  0.00  0.00     0.185 A 
HETATM   18  C   UNK N   1      25.841  17.340   4.996  0.00  0.00     0.297 C 
HETATM   19  O   UNK N   1      21.896  13.431   9.281  0.00  0.00    -0.290 OA
HETATM   20  O   UNK N   1      27.018  17.682   5.042  0.00  0.00    -0.259 OA
HETATM   21  O   UNK N   1      25.517  16.101   5.480  0.00  0.00    -0.312 OA
HETATM   22  O   UNK N   1      21.493  16.780   4.429  0.00  0.00    -0.370 OA
ENDROOT
BRANCH   9  23
HETATM   23  O   UNK N   1      22.324  21.142   2.542  0.00  0.00    -0.356 OA
HETATM   24  C   UNK N   1      20.956  20.990   2.495  0.00  0.00     0.210 C 
ENDBRANCH   9  23
BRANCH  12  25
HETATM   25  O   UNK N   1      26.693  19.634   3.550  0.00  0.00    -0.360 OA
HETATM   26  H   UNK N   1      27.286  19.429   4.245  0.00  0.00     0.217 HD
ENDBRANCH  12  25
BRANCH  13  27
HETATM   27  O   UNK N   1      20.597  16.262   8.719  0.00  0.00    -0.392 OA
HETATM   28  H   UNK N   1      20.471  16.914   9.426  0.00  0.00     0.210 HD
ENDBRANCH  13  27
BRANCH  16  29
HETATM   29  O   UNK N   1      21.917  14.182   6.101  0.00  0.00    -0.385 OA
HETATM   30  H   UNK N   1      21.704  13.632   5.331  0.00  0.00     0.210 HD
ENDBRANCH  16  29
TORSDOF 4
ENDMDL
MODEL 7
REMARK VINA RESULT:      -6.7     10.824     13.635
REMARK  4 active torsions:
REMARK  status: ('A' for Active; 'I' for Inactive)
REMARK    1  A    between atoms: O_25  and  C_10 
REMARK    2  A    between atoms: O_21  and  C_13 
REMARK    3  A    between atoms: C_14  and  O_22 
REMARK    4  A    between atoms: C_17  and  O_23 
ROOT
HETATM    1  C   UNK N   1      34.646   9.314  10.301  0.00  0.00     0.040 C 
HETATM    2  C   UNK N   1      33.542  12.426   8.572  0.00  0.00    -0.020 C 
HETATM    3  C   UNK N   1      33.750  10.977   8.732  0.00  0.00     0.059 C 
HETATM    4  C   UNK N   1      33.004  13.090   7.543  0.00  0.00     0.049 C 
HETATM    5  C   UNK N   1      36.482  14.730  13.702  0.00  0.00     0.047 A 
HETATM    6  C   UNK N   1      36.452  13.038  15.391  0.00  0.00     0.074 A 
HETATM    7  C   UNK N   1      35.292  16.859   9.945  0.00  0.00     0.069 C 
HETATM    8  C   UNK N   1      33.907  10.644  10.223  0.00  0.00     0.131 C 
HETATM    9  C   UNK N   1      36.809  14.316  14.983  0.00  0.00     0.071 A 
HETATM   10  C   UNK N   1      35.819  13.896  12.779  0.00  0.00    -0.005 A 
HETATM   11  C   UNK N   1      33.115  14.571   7.609  0.00  0.00     0.180 C 
HETATM   12  C   UNK N   1      35.785  12.172  14.532  0.00  0.00     0.085 A 
HETATM   13  C   UNK N   1      34.158  16.612   8.920  0.00  0.00     0.157 C 
HETATM   14  C   UNK N   1      35.423  16.008  11.244  0.00  0.00     0.158 A 
HETATM   15  C   UNK N   1      35.455  12.557  13.190  0.00  0.00     0.081 A 
HETATM   16  C   UNK N   1      34.074  15.132   8.628  0.00  0.00     0.220 C 
HETATM   17  C   UNK N   1      35.559  14.487  11.397  0.00  0.00     0.185 A 
HETATM   18  C   UNK N   1      34.737  11.524  12.324  0.00  0.00     0.297 C 
HETATM   19  O   UNK N   1      32.480  15.290   6.854  0.00  0.00    -0.290 OA
HETATM   20  O   UNK N   1      34.294  10.522  12.875  0.00  0.00    -0.259 OA
HETATM   21  O   UNK N   1      34.573  11.634  10.970  0.00  0.00    -0.312 OA
HETATM   22  O   UNK N   1      36.639  15.307  11.053  0.00  0.00    -0.370 OA
ENDROOT
BRANCH   9  23
HETATM   23  O   UNK N   1      37.478  15.163  15.802  0.00  0.00    -0.356 OA
HETATM   24  C   UNK N   1      36.936  15.684  16.956  0.00  0.00     0.210 C 
ENDBRANCH   9  23
BRANCH  12  25
HETATM   25  O   UNK N   1      35.484  10.949  15.006  0.00  0.00    -0.360 OA
HETATM   26  H   UNK N   1      34.616  10.602  14.953  0.00  0.00     0.217 HD
ENDBRANCH  12  25
BRANCH  13  27
HETATM   27  O   UNK N   1      32.941  17.081   9.422  0.00  0.00    -0.392 OA
HETATM   28  H   UNK N   1      32.210  17.520   9.884  0.00  0.00     0.210 HD
ENDBRANCH  13  27
BRANCH  16  29
HETATM   29  O   UNK N   1      35.352  14.668   8.285  0.00  0.00    -0.385 OA
HETATM   30  H   UNK N   1      36.166  14.418   7.821  0.00  0.00     0.210 HD
ENDBRANCH  16  29
TORSDOF 4
ENDMDL
MODEL 8
REMARK VINA RESULT:      -6.6      8.756     12.591
REMARK  4 active torsions:
REMARK  status: ('A' for Active; 'I' for Inactive)
REMARK    1  A    between atoms: O_25  and  C_10 
REMARK    2  A    between atoms: O_21  and  C_13 
REMARK    3  A    between atoms: C_14  and  O_22 
REMARK    4  A    between atoms: C_17  and  O_23 
ROOT
HETATM    1  C   UNK N   1      34.920  13.426   3.664  0.00  0.00     0.040 C 
HETATM    2  C   UNK N   1      36.923  13.702   6.795  0.00  0.00    -0.020 C 
HETATM    3  C   UNK N   1      36.631  13.268   5.418  0.00  0.00     0.059 C 
HETATM    4  C   UNK N   1      37.998  13.443   7.548  0.00  0.00     0.049 C 
HETATM    5  C   UNK N   1      31.481  16.516   8.449  0.00  0.00     0.047 A 
HETATM    6  C   UNK N   1      30.421  17.300   6.454  0.00  0.00     0.074 A 
HETATM    7  C   UNK N   1      34.791  15.025  11.073  0.00  0.00     0.069 C 
HETATM    8  C   UNK N   1      35.576  14.198   4.802  0.00  0.00     0.131 C 
HETATM    9  C   UNK N   1      30.421  17.164   7.836  0.00  0.00     0.071 A 
HETATM   10  C   UNK N   1      32.557  15.963   7.724  0.00  0.00    -0.005 A 
HETATM   11  C   UNK N   1      37.900  13.868   8.969  0.00  0.00     0.180 C 
HETATM   12  C   UNK N   1      31.459  16.788   5.684  0.00  0.00     0.085 A 
HETATM   13  C   UNK N   1      36.311  14.848  10.837  0.00  0.00     0.157 C 
HETATM   14  C   UNK N   1      33.864  15.671  10.000  0.00  0.00     0.158 A 
HETATM   15  C   UNK N   1      32.559  16.088   6.282  0.00  0.00     0.081 A 
HETATM   16  C   UNK N   1      36.527  14.236   9.471  0.00  0.00     0.220 C 
HETATM   17  C   UNK N   1      33.631  15.253   8.542  0.00  0.00     0.185 A 
HETATM   18  C   UNK N   1      33.638  15.552   5.344  0.00  0.00     0.297 C 
HETATM   19  O   UNK N   1      38.881  13.887   9.696  0.00  0.00    -0.290 OA
HETATM   20  O   UNK N   1      33.623  15.928   4.177  0.00  0.00    -0.259 OA
HETATM   21  O   UNK N   1      34.610  14.662   5.715  0.00  0.00    -0.312 OA
HETATM   22  O   UNK N   1      33.016  14.603   9.616  0.00  0.00    -0.370 OA
ENDROOT
BRANCH   9  23
HETATM   23  O   UNK N   1      29.406  17.638   8.597  0.00  0.00    -0.356 OA
HETATM   24  C   UNK N   1      29.591  18.521   9.639  0.00  0.00     0.210 C 
ENDBRANCH   9  23
BRANCH  12  25
HETATM   25  O   UNK N   1      31.376  16.958   4.351  0.00  0.00    -0.360 OA
HETATM   26  H   UNK N   1      31.941  17.548   3.895  0.00  0.00     0.217 HD
ENDBRANCH  12  25
BRANCH  13  27
HETATM   27  O   UNK N   1      36.962  16.080  10.929  0.00  0.00    -0.392 OA
HETATM   28  H   UNK N   1      37.255  16.990  11.095  0.00  0.00     0.210 HD
ENDBRANCH  13  27
BRANCH  16  29
HETATM   29  O   UNK N   1      35.730  13.089   9.361  0.00  0.00    -0.385 OA
HETATM   30  H   UNK N   1      34.999  12.460   9.255  0.00  0.00     0.210 HD
ENDBRANCH  16  29
TORSDOF 4
ENDMDL
MODEL 9
REMARK VINA RESULT:      -6.6     11.608     14.609
REMARK  4 active torsions:
REMARK  status: ('A' for Active; 'I' for Inactive)
REMARK    1  A    between atoms: O_25  and  C_10 
REMARK    2  A    between atoms: O_21  and  C_13 
REMARK    3  A    between atoms: C_14  and  O_22 
REMARK    4  A    between atoms: C_17  and  O_23 
ROOT
HETATM    1  C   UNK N   1      32.411   9.532   9.341  0.00  0.00     0.040 C 
HETATM    2  C   UNK N   1      34.782   9.432  12.214  0.00  0.00    -0.020 C 
HETATM    3  C   UNK N   1      33.767   8.901  11.288  0.00  0.00     0.059 C 
HETATM    4  C   UNK N   1      35.372   8.827  13.252  0.00  0.00     0.049 C 
HETATM    5  C   UNK N   1      35.109  15.514  10.435  0.00  0.00     0.047 A 
HETATM    6  C   UNK N   1      34.460  15.645   8.137  0.00  0.00     0.074 A 
HETATM    7  C   UNK N   1      36.492  13.619  14.250  0.00  0.00     0.069 C 
HETATM    8  C   UNK N   1      33.772   9.729   9.995  0.00  0.00     0.131 C 
HETATM    9  C   UNK N   1      34.888  16.275   9.299  0.00  0.00     0.071 A 
HETATM   10  C   UNK N   1      34.893  14.121  10.472  0.00  0.00    -0.005 A 
HETATM   11  C   UNK N   1      36.215   9.702  14.107  0.00  0.00     0.180 C 
HETATM   12  C   UNK N   1      34.242  14.273   8.105  0.00  0.00     0.085 A 
HETATM   13  C   UNK N   1      36.973  12.185  14.589  0.00  0.00     0.157 C 
HETATM   14  C   UNK N   1      36.155  14.045  12.790  0.00  0.00     0.158 A 
HETATM   15  C   UNK N   1      34.433  13.458   9.270  0.00  0.00     0.081 A 
HETATM   16  C   UNK N   1      36.059  11.189  13.913  0.00  0.00     0.220 C 
HETATM   17  C   UNK N   1      35.149  13.431  11.808  0.00  0.00     0.185 A 
HETATM   18  C   UNK N   1      34.149  11.964   9.131  0.00  0.00     0.297 C 
HETATM   19  O   UNK N   1      36.971   9.235  14.944  0.00  0.00    -0.290 OA
HETATM   20  O   UNK N   1      33.988  11.513   8.002  0.00  0.00    -0.259 OA
HETATM   21  O   UNK N   1      34.042  11.098  10.186  0.00  0.00    -0.312 OA
HETATM   22  O   UNK N   1      34.762  14.295  12.837  0.00  0.00    -0.370 OA
ENDROOT
BRANCH   9  23
HETATM   23  O   UNK N   1      35.084  17.614   9.351  0.00  0.00    -0.356 OA
HETATM   24  C   UNK N   1      34.690  18.475   8.350  0.00  0.00     0.210 C 
ENDBRANCH   9  23
BRANCH  12  25
HETATM   25  O   UNK N   1      33.820  13.746   6.941  0.00  0.00    -0.360 OA
HETATM   26  H   UNK N   1      33.785  14.255   6.156  0.00  0.00     0.217 HD
ENDBRANCH  12  25
BRANCH  13  27
HETATM   27  O   UNK N   1      38.292  12.004  14.167  0.00  0.00    -0.392 OA
HETATM   28  H   UNK N   1      39.233  11.800  14.052  0.00  0.00     0.210 HD
ENDBRANCH  13  27
BRANCH  16  29
HETATM   29  O   UNK N   1      34.732  11.506  14.234  0.00  0.00    -0.385 OA
HETATM   30  H   UNK N   1      33.767  11.517  14.333  0.00  0.00     0.210 HD
ENDBRANCH  16  29
TORSDOF 4
ENDMDL
