MODEL 1
REMARK VINA RESULT:      -5.8      0.000      0.000
REMARK  9 active torsions:
REMARK  status: ('A' for Active; 'I' for Inactive)
REMARK    1  A    between atoms: C_4  and  C_3 
REMARK    2  A    between atoms: C_7  and  C_3 
REMARK    3  A    between atoms: C_8  and  C_4 
REMARK    4  A    between atoms: P_16  and  C_7 
REMARK    5  A    between atoms: S_17  and  C_8 
REMARK    6  A    between atoms: O_11  and  C_9 
REMARK    7  A    between atoms: S_17  and  C_10 
REMARK    8  A    between atoms: P_16  and  O_12 
REMARK    9  A    between atoms: P_16  and  O_13 
ROOT
HETATM    1  C   UNK N   1      30.386  17.322   6.587  0.00  0.00     0.114 C 
ENDROOT
BRANCH   1   2
HETATM    2  C   UNK N   1      31.205  16.197   7.202  0.00  0.00     0.013 C 
BRANCH   2   3
HETATM    3  C   UNK N   1      31.769  16.653   8.533  0.00  0.00     0.012 C 
BRANCH   3   4
HETATM    4  C   UNK N   1      32.441  18.010   8.430  0.00  0.00     0.125 C 
BRANCH   4   5
HETATM    5  P   UNK N   1      34.247  17.817   8.021  0.00  0.00     0.235 P 
HETATM    6  O   UNK N   1      34.439  17.746   6.482  0.00  0.00    -0.653 OA
BRANCH   5   7
HETATM    7  O   UNK N   1      35.240  19.162   8.490  0.00  0.00    -0.329 OA
HETATM    8  H   UNK N   1      36.128  19.163   8.881  0.00  0.00     0.220 HD
ENDBRANCH   5   7
BRANCH   5   9
HETATM    9  O   UNK N   1      35.022  16.378   8.609  0.00  0.00    -0.329 OA
HETATM   10  H   UNK N   1      34.943  15.525   9.063  0.00  0.00     0.220 HD
ENDBRANCH   5   9
ENDBRANCH   4   5
ENDBRANCH   3   4
ENDBRANCH   2   3
ENDBRANCH   1   2
BRANCH   1  11
HETATM   11  S   UNK N   1      28.615  16.888   6.611  0.00  0.00     0.052 S 
HETATM   12  O   UNK N   1      28.700  16.334   5.179  0.00  0.00    -0.253 OA
BRANCH  11  13
HETATM   13  C   UNK N   1      28.015  18.526   6.111  0.00  0.00     0.064 A 
HETATM   14  C   UNK N   1      27.952  18.865   4.749  0.00  0.00     0.024 A 
HETATM   15  C   UNK N   1      27.459  20.110   4.350  0.00  0.00     0.002 A 
HETATM   16  C   UNK N   1      27.017  21.026   5.306  0.00  0.00     0.003 A 
HETATM   17  C   UNK N   1      27.064  20.696   6.662  0.00  0.00     0.038 A 
HETATM   18  C   UNK N   1      27.556  19.451   7.068  0.00  0.00     0.084 A 
BRANCH  18  19
HETATM   19  O   UNK N   1      27.577  19.148   8.378  0.00  0.00    -0.359 OA
HETATM   20  H   UNK N   1      26.811  19.254   8.907  0.00  0.00     0.217 HD
ENDBRANCH  18  19
ENDBRANCH  11  13
ENDBRANCH   1  11
TORSDOF 9
ENDMDL
MODEL 2
REMARK VINA RESULT:      -5.6      3.293      7.239
REMARK  9 active torsions:
REMARK  status: ('A' for Active; 'I' for Inactive)
REMARK    1  A    between atoms: C_4  and  C_3 
REMARK    2  A    between atoms: C_7  and  C_3 
REMARK    3  A    between atoms: C_8  and  C_4 
REMARK    4  A    between atoms: P_16  and  C_7 
REMARK    5  A    between atoms: S_17  and  C_8 
REMARK    6  A    between atoms: O_11  and  C_9 
REMARK    7  A    between atoms: S_17  and  C_10 
REMARK    8  A    between atoms: P_16  and  O_12 
REMARK    9  A    between atoms: P_16  and  O_13 
ROOT
HETATM    1  C   UNK N   1      32.860  17.040   6.535  0.00  0.00     0.114 C 
ENDROOT
BRANCH   1   2
HETATM    2  C   UNK N   1      31.382  17.291   6.275  0.00  0.00     0.013 C 
BRANCH   2   3
HETATM    3  C   UNK N   1      30.568  16.752   7.435  0.00  0.00     0.012 C 
BRANCH   3   4
HETATM    4  C   UNK N   1      29.098  17.111   7.310  0.00  0.00     0.125 C 
BRANCH   4   5
HETATM    5  P   UNK N   1      28.493  17.942   8.863  0.00  0.00     0.235 P 
HETATM    6  O   UNK N   1      27.705  16.929   9.735  0.00  0.00    -0.653 OA
BRANCH   5   7
HETATM    7  O   UNK N   1      29.753  18.495   9.923  0.00  0.00    -0.329 OA
HETATM    8  H   UNK N   1      30.236  18.008  10.609  0.00  0.00     0.220 HD
ENDBRANCH   5   7
BRANCH   5   9
HETATM    9  O   UNK N   1      27.387  19.264   8.650  0.00  0.00    -0.329 OA
HETATM   10  H   UNK N   1      26.574  19.604   8.244  0.00  0.00     0.220 HD
ENDBRANCH   5   9
ENDBRANCH   4   5
ENDBRANCH   3   4
ENDBRANCH   2   3
ENDBRANCH   1   2
BRANCH   1  11
HETATM   11  S   UNK N   1      33.385  17.922   8.042  0.00  0.00     0.052 S 
HETATM   12  O   UNK N   1      34.714  18.325   7.381  0.00  0.00    -0.253 OA
BRANCH  11  13
HETATM   13  C   UNK N   1      34.065  16.465   8.883  0.00  0.00     0.064 A 
HETATM   14  C   UNK N   1      33.595  15.182   8.555  0.00  0.00     0.024 A 
HETATM   15  C   UNK N   1      34.135  14.050   9.171  0.00  0.00     0.002 A 
HETATM   16  C   UNK N   1      35.155  14.187  10.115  0.00  0.00     0.003 A 
HETATM   17  C   UNK N   1      35.637  15.455  10.441  0.00  0.00     0.038 A 
HETATM   18  C   UNK N   1      35.101  16.593   9.828  0.00  0.00     0.084 A 
BRANCH  18  19
HETATM   19  O   UNK N   1      35.592  17.804  10.146  0.00  0.00    -0.359 OA
HETATM   20  H   UNK N   1      35.508  18.142  11.015  0.00  0.00     0.217 HD
ENDBRANCH  18  19
ENDBRANCH  11  13
ENDBRANCH   1  11
TORSDOF 9
ENDMDL
MODEL 3
REMARK VINA RESULT:      -5.6     12.076     13.449
REMARK  9 active torsions:
REMARK  status: ('A' for Active; 'I' for Inactive)
REMARK    1  A    between atoms: C_4  and  C_3 
REMARK    2  A    between atoms: C_7  and  C_3 
REMARK    3  A    between atoms: C_8  and  C_4 
REMARK    4  A    between atoms: P_16  and  C_7 
REMARK    5  A    between atoms: S_17  and  C_8 
REMARK    6  A    between atoms: O_11  and  C_9 
REMARK    7  A    between atoms: S_17  and  C_10 
REMARK    8  A    between atoms: P_16  and  O_12 
REMARK    9  A    between atoms: P_16  and  O_13 
ROOT
HETATM    1  C   UNK N   1      27.594  24.165  -6.905  0.00  0.00     0.114 C 
ENDROOT
BRANCH   1   2
HETATM    2  C   UNK N   1      28.875  24.118  -6.086  0.00  0.00     0.013 C 
BRANCH   2   3
HETATM    3  C   UNK N   1      28.957  22.793  -5.353  0.00  0.00     0.012 C 
BRANCH   3   4
HETATM    4  C   UNK N   1      30.341  22.546  -4.781  0.00  0.00     0.125 C 
BRANCH   4   5
HETATM    5  P   UNK N   1      30.393  22.994  -2.975  0.00  0.00     0.235 P 
HETATM    6  O   UNK N   1      30.690  24.509  -2.811  0.00  0.00    -0.653 OA
BRANCH   5   7
HETATM    7  O   UNK N   1      28.887  22.784  -2.137  0.00  0.00    -0.329 OA
HETATM    8  H   UNK N   1      28.513  23.300  -1.406  0.00  0.00     0.220 HD
ENDBRANCH   5   7
BRANCH   5   9
HETATM    9  O   UNK N   1      31.621  22.219  -2.022  0.00  0.00    -0.329 OA
HETATM   10  H   UNK N   1      31.946  21.414  -1.590  0.00  0.00     0.220 HD
ENDBRANCH   5   9
ENDBRANCH   4   5
ENDBRANCH   3   4
ENDBRANCH   2   3
ENDBRANCH   1   2
BRANCH   1  11
HETATM   11  S   UNK N   1      26.168  23.723  -5.857  0.00  0.00     0.052 S 
HETATM   12  O   UNK N   1      25.193  23.997  -7.014  0.00  0.00    -0.253 OA
BRANCH  11  13
HETATM   13  C   UNK N   1      25.978  25.362  -5.101  0.00  0.00     0.064 A 
HETATM   14  C   UNK N   1      25.373  26.404  -5.826  0.00  0.00     0.024 A 
HETATM   15  C   UNK N   1      25.190  27.660  -5.242  0.00  0.00     0.002 A 
HETATM   16  C   UNK N   1      25.601  27.887  -3.928  0.00  0.00     0.003 A 
HETATM   17  C   UNK N   1      26.193  26.857  -3.195  0.00  0.00     0.038 A 
HETATM   18  C   UNK N   1      26.379  25.597  -3.772  0.00  0.00     0.084 A 
BRANCH  18  19
HETATM   19  O   UNK N   1      26.937  24.615  -3.042  0.00  0.00    -0.359 OA
HETATM   20  H   UNK N   1      26.815  24.579  -2.114  0.00  0.00     0.217 HD
ENDBRANCH  18  19
ENDBRANCH  11  13
ENDBRANCH   1  11
TORSDOF 9
ENDMDL
MODEL 4
REMARK VINA RESULT:      -5.5      6.247      9.772
REMARK  9 active torsions:
REMARK  status: ('A' for Active; 'I' for Inactive)
REMARK    1  A    between atoms: C_4  and  C_3 
REMARK    2  A    between atoms: C_7  and  C_3 
REMARK    3  A    between atoms: C_8  and  C_4 
REMARK    4  A    between atoms: P_16  and  C_7 
REMARK    5  A    between atoms: S_17  and  C_8 
REMARK    6  A    between atoms: O_11  and  C_9 
REMARK    7  A    between atoms: S_17  and  C_10 
REMARK    8  A    between atoms: P_16  and  O_12 
REMARK    9  A    between atoms: P_16  and  O_13 
ROOT
HETATM    1  C   UNK N   1      34.905  13.783  10.847  0.00  0.00     0.114 C 
ENDROOT
BRANCH   1   2
HETATM    2  C   UNK N   1      34.070  15.048  10.710  0.00  0.00     0.013 C 
BRANCH   2   3
HETATM    3  C   UNK N   1      34.900  16.131  10.050  0.00  0.00     0.012 C 
BRANCH   3   4
HETATM    4  C   UNK N   1      34.709  16.152   8.544  0.00  0.00     0.125 C 
BRANCH   4   5
HETATM    5  P   UNK N   1      34.239  17.859   7.968  0.00  0.00     0.235 P 
HETATM    6  O   UNK N   1      34.328  17.941   6.420  0.00  0.00    -0.653 OA
BRANCH   5   7
HETATM    7  O   UNK N   1      32.594  18.305   8.302  0.00  0.00    -0.329 OA
HETATM    8  H   UNK N   1      32.242  19.140   8.649  0.00  0.00     0.220 HD
ENDBRANCH   5   7
BRANCH   5   9
HETATM    9  O   UNK N   1      35.245  19.164   8.517  0.00  0.00    -0.329 OA
HETATM   10  H   UNK N   1      35.524  20.088   8.423  0.00  0.00     0.220 HD
ENDBRANCH   5   9
ENDBRANCH   4   5
ENDBRANCH   3   4
ENDBRANCH   2   3
ENDBRANCH   1   2
BRANCH   1  11
HETATM   11  S   UNK N   1      36.389  14.122  11.851  0.00  0.00     0.052 S 
HETATM   12  O   UNK N   1      37.053  12.823  11.363  0.00  0.00    -0.253 OA
BRANCH  11  13
HETATM   13  C   UNK N   1      35.744  13.400  13.386  0.00  0.00     0.064 A 
HETATM   14  C   UNK N   1      34.796  12.363  13.331  0.00  0.00     0.024 A 
HETATM   15  C   UNK N   1      34.318  11.776  14.505  0.00  0.00     0.002 A 
HETATM   16  C   UNK N   1      34.787  12.212  15.746  0.00  0.00     0.003 A 
HETATM   17  C   UNK N   1      35.735  13.234  15.813  0.00  0.00     0.038 A 
HETATM   18  C   UNK N   1      36.219  13.826  14.641  0.00  0.00     0.084 A 
BRANCH  18  19
HETATM   19  O   UNK N   1      37.144  14.797  14.729  0.00  0.00    -0.359 OA
HETATM   20  H   UNK N   1      37.429  15.259  13.964  0.00  0.00     0.217 HD
ENDBRANCH  18  19
ENDBRANCH  11  13
ENDBRANCH   1  11
TORSDOF 9
ENDMDL
MODEL 5
REMARK VINA RESULT:      -5.5      1.558      2.328
REMARK  9 active torsions:
REMARK  status: ('A' for Active; 'I' for Inactive)
REMARK    1  A    between atoms: C_4  and  C_3 
REMARK    2  A    between atoms: C_7  and  C_3 
REMARK    3  A    between atoms: C_8  and  C_4 
REMARK    4  A    between atoms: P_16  and  C_7 
REMARK    5  A    between atoms: S_17  and  C_8 
REMARK    6  A    between atoms: O_11  and  C_9 
REMARK    7  A    between atoms: S_17  and  C_10 
REMARK    8  A    between atoms: P_16  and  O_12 
REMARK    9  A    between atoms: P_16  and  O_13 
ROOT
HETATM    1  C   UNK N   1      29.753  17.479   8.003  0.00  0.00     0.114 C 
ENDROOT
BRANCH   1   2
HETATM    2  C   UNK N   1      31.245  17.696   7.801  0.00  0.00     0.013 C 
BRANCH   2   3
HETATM    3  C   UNK N   1      32.016  16.627   8.549  0.00  0.00     0.012 C 
BRANCH   3   4
HETATM    4  C   UNK N   1      32.887  15.801   7.620  0.00  0.00     0.125 C 
BRANCH   4   5
HETATM    5  P   UNK N   1      33.954  16.907   6.568  0.00  0.00     0.235 P 
HETATM    6  O   UNK N   1      35.182  16.117   6.042  0.00  0.00    -0.653 OA
BRANCH   5   7
HETATM    7  O   UNK N   1      33.189  17.478   5.117  0.00  0.00    -0.329 OA
HETATM    8  H   UNK N   1      32.298  17.840   4.994  0.00  0.00     0.220 HD
ENDBRANCH   5   7
BRANCH   5   9
HETATM    9  O   UNK N   1      34.648  18.289   7.358  0.00  0.00    -0.329 OA
HETATM   10  H   UNK N   1      35.432  18.832   7.535  0.00  0.00     0.220 HD
ENDBRANCH   5   9
ENDBRANCH   4   5
ENDBRANCH   3   4
ENDBRANCH   2   3
ENDBRANCH   1   2
BRANCH   1  11
HETATM   11  S   UNK N   1      28.989  16.919   6.445  0.00  0.00     0.052 S 
HETATM   12  O   UNK N   1      30.290  17.194   5.671  0.00  0.00    -0.253 OA
BRANCH  11  13
HETATM   13  C   UNK N   1      28.221  18.510   6.031  0.00  0.00     0.064 A 
HETATM   14  C   UNK N   1      27.853  19.400   7.055  0.00  0.00     0.024 A 
HETATM   15  C   UNK N   1      27.293  20.643   6.747  0.00  0.00     0.002 A 
HETATM   16  C   UNK N   1      27.103  21.013   5.415  0.00  0.00     0.003 A 
HETATM   17  C   UNK N   1      27.475  20.142   4.389  0.00  0.00     0.038 A 
HETATM   18  C   UNK N   1      28.036  18.897   4.690  0.00  0.00     0.084 A 
BRANCH  18  19
HETATM   19  O   UNK N   1      28.402  18.081   3.685  0.00  0.00    -0.359 OA
HETATM   20  H   UNK N   1      28.442  17.153   3.812  0.00  0.00     0.217 HD
ENDBRANCH  18  19
ENDBRANCH  11  13
ENDBRANCH   1  11
TORSDOF 9
ENDMDL
MODEL 6
REMARK VINA RESULT:      -5.4      9.131     12.511
REMARK  9 active torsions:
REMARK  status: ('A' for Active; 'I' for Inactive)
REMARK    1  A    between atoms: C_4  and  C_3 
REMARK    2  A    between atoms: C_7  and  C_3 
REMARK    3  A    between atoms: C_8  and  C_4 
REMARK    4  A    between atoms: P_16  and  C_7 
REMARK    5  A    between atoms: S_17  and  C_8 
REMARK    6  A    between atoms: O_11  and  C_9 
REMARK    7  A    between atoms: S_17  and  C_10 
REMARK    8  A    between atoms: P_16  and  O_12 
REMARK    9  A    between atoms: P_16  and  O_13 
ROOT
HETATM    1  C   UNK N   1      35.858  11.994  14.768  0.00  0.00     0.114 C 
ENDROOT
BRANCH   1   2
HETATM    2  C   UNK N   1      36.768  12.631  13.728  0.00  0.00     0.013 C 
BRANCH   2   3
HETATM    3  C   UNK N   1      35.926  13.196  12.601  0.00  0.00     0.012 C 
BRANCH   3   4
HETATM    4  C   UNK N   1      36.067  14.704  12.489  0.00  0.00     0.125 C 
BRANCH   4   5
HETATM    5  P   UNK N   1      35.005  15.360  11.108  0.00  0.00     0.235 P 
HETATM    6  O   UNK N   1      35.471  14.767   9.751  0.00  0.00    -0.653 OA
BRANCH   5   7
HETATM    7  O   UNK N   1      33.334  14.895  11.200  0.00  0.00    -0.329 OA
HETATM    8  H   UNK N   1      32.861  14.444  11.916  0.00  0.00     0.220 HD
ENDBRANCH   5   7
BRANCH   5   9
HETATM    9  O   UNK N   1      35.045  17.078  10.853  0.00  0.00    -0.329 OA
HETATM   10  H   UNK N   1      35.114  17.967  11.232  0.00  0.00     0.220 HD
ENDBRANCH   5   9
ENDBRANCH   4   5
ENDBRANCH   3   4
ENDBRANCH   2   3
ENDBRANCH   1   2
BRANCH   1  11
HETATM   11  S   UNK N   1      35.103  13.286  15.811  0.00  0.00     0.052 S 
HETATM   12  O   UNK N   1      36.462  13.988  15.979  0.00  0.00    -0.253 OA
BRANCH  11  13
HETATM   13  C   UNK N   1      35.214  12.358  17.366  0.00  0.00     0.064 A 
HETATM   14  C   UNK N   1      35.304  10.956  17.343  0.00  0.00     0.024 A 
HETATM   15  C   UNK N   1      35.424  10.232  18.532  0.00  0.00     0.002 A 
HETATM   16  C   UNK N   1      35.463  10.902  19.756  0.00  0.00     0.003 A 
HETATM   17  C   UNK N   1      35.385  12.295  19.792  0.00  0.00     0.038 A 
HETATM   18  C   UNK N   1      35.265  13.026  18.605  0.00  0.00     0.084 A 
BRANCH  18  19
HETATM   19  O   UNK N   1      35.208  14.368  18.662  0.00  0.00    -0.359 OA
HETATM   20  H   UNK N   1      34.384  14.814  18.640  0.00  0.00     0.217 HD
ENDBRANCH  18  19
ENDBRANCH  11  13
ENDBRANCH   1  11
TORSDOF 9
ENDMDL
MODEL 7
REMARK VINA RESULT:      -5.4     11.925     14.307
REMARK  9 active torsions:
REMARK  status: ('A' for Active; 'I' for Inactive)
REMARK    1  A    between atoms: C_4  and  C_3 
REMARK    2  A    between atoms: C_7  and  C_3 
REMARK    3  A    between atoms: C_8  and  C_4 
REMARK    4  A    between atoms: P_16  and  C_7 
REMARK    5  A    between atoms: S_17  and  C_8 
REMARK    6  A    between atoms: O_11  and  C_9 
REMARK    7  A    between atoms: S_17  and  C_10 
REMARK    8  A    between atoms: P_16  and  O_12 
REMARK    9  A    between atoms: P_16  and  O_13 
ROOT
HETATM    1  C   UNK N   1      27.523  24.354  -5.063  0.00  0.00     0.114 C 
ENDROOT
BRANCH   1   2
HETATM    2  C   UNK N   1      26.098  24.868  -4.924  0.00  0.00     0.013 C 
BRANCH   2   3
HETATM    3  C   UNK N   1      25.896  26.051  -5.850  0.00  0.00     0.012 C 
BRANCH   3   4
HETATM    4  C   UNK N   1      25.118  27.168  -5.180  0.00  0.00     0.125 C 
BRANCH   4   5
HETATM    5  P   UNK N   1      26.185  28.056  -3.938  0.00  0.00     0.235 P 
HETATM    6  O   UNK N   1      25.976  27.446  -2.526  0.00  0.00    -0.653 OA
BRANCH   5   7
HETATM    7  O   UNK N   1      27.892  27.887  -4.204  0.00  0.00    -0.329 OA
HETATM    8  H   UNK N   1      28.622  27.954  -3.569  0.00  0.00     0.220 HD
ENDBRANCH   5   7
BRANCH   5   9
HETATM    9  O   UNK N   1      25.866  29.749  -3.717  0.00  0.00    -0.329 OA
HETATM   10  H   UNK N   1      25.769  30.498  -3.110  0.00  0.00     0.220 HD
ENDBRANCH   5   9
ENDBRANCH   4   5
ENDBRANCH   3   4
ENDBRANCH   2   3
ENDBRANCH   1   2
BRANCH   1  11
HETATM   11  S   UNK N   1      28.356  24.383  -3.441  0.00  0.00     0.052 S 
HETATM   12  O   UNK N   1      29.338  25.461  -3.929  0.00  0.00    -0.253 OA
BRANCH  11  13
HETATM   13  C   UNK N   1      29.471  22.991  -3.779  0.00  0.00     0.064 A 
HETATM   14  C   UNK N   1      29.488  22.398  -5.053  0.00  0.00     0.024 A 
HETATM   15  C   UNK N   1      30.366  21.349  -5.336  0.00  0.00     0.002 A 
HETATM   16  C   UNK N   1      31.242  20.887  -4.352  0.00  0.00     0.003 A 
HETATM   17  C   UNK N   1      31.242  21.475  -3.087  0.00  0.00     0.038 A 
HETATM   18  C   UNK N   1      30.366  22.526  -2.797  0.00  0.00     0.084 A 
BRANCH  18  19
HETATM   19  O   UNK N   1      30.395  23.088  -1.576  0.00  0.00    -0.359 OA
HETATM   20  H   UNK N   1      29.919  22.711  -0.862  0.00  0.00     0.217 HD
ENDBRANCH  18  19
ENDBRANCH  11  13
ENDBRANCH   1  11
TORSDOF 9
ENDMDL
MODEL 8
REMARK VINA RESULT:      -5.3     11.824     13.481
REMARK  9 active torsions:
REMARK  status: ('A' for Active; 'I' for Inactive)
REMARK    1  A    between atoms: C_4  and  C_3 
REMARK    2  A    between atoms: C_7  and  C_3 
REMARK    3  A    between atoms: C_8  and  C_4 
REMARK    4  A    between atoms: P_16  and  C_7 
REMARK    5  A    between atoms: S_17  and  C_8 
REMARK    6  A    between atoms: O_11  and  C_9 
REMARK    7  A    between atoms: S_17  and  C_10 
REMARK    8  A    between atoms: P_16  and  O_12 
REMARK    9  A    between atoms: P_16  and  O_13 
ROOT
HETATM    1  C   UNK N   1      27.454  24.186  -5.382  0.00  0.00     0.114 C 
ENDROOT
BRANCH   1   2
HETATM    2  C   UNK N   1      28.569  23.809  -4.419  0.00  0.00     0.013 C 
BRANCH   2   3
HETATM    3  C   UNK N   1      29.473  22.782  -5.071  0.00  0.00     0.012 C 
BRANCH   3   4
HETATM    4  C   UNK N   1      29.904  21.704  -4.093  0.00  0.00     0.125 C 
BRANCH   4   5
HETATM    5  P   UNK N   1      31.148  22.378  -2.882  0.00  0.00     0.235 P 
HETATM    6  O   UNK N   1      31.951  23.535  -3.534  0.00  0.00    -0.653 OA
BRANCH   5   7
HETATM    7  O   UNK N   1      30.455  23.111  -1.470  0.00  0.00    -0.329 OA
HETATM    8  H   UNK N   1      30.881  23.362  -0.636  0.00  0.00     0.220 HD
ENDBRANCH   5   7
BRANCH   5   9
HETATM    9  O   UNK N   1      32.371  21.272  -2.337  0.00  0.00    -0.329 OA
HETATM   10  H   UNK N   1      32.593  20.434  -1.901  0.00  0.00     0.220 HD
ENDBRANCH   5   9
ENDBRANCH   4   5
ENDBRANCH   3   4
ENDBRANCH   2   3
ENDBRANCH   1   2
BRANCH   1  11
HETATM   11  S   UNK N   1      26.085  24.975  -4.471  0.00  0.00     0.052 S 
HETATM   12  O   UNK N   1      25.159  24.851  -5.693  0.00  0.00    -0.253 OA
BRANCH  11  13
HETATM   13  C   UNK N   1      26.585  26.683  -4.827  0.00  0.00     0.064 A 
HETATM   14  C   UNK N   1      27.129  27.009  -6.081  0.00  0.00     0.024 A 
HETATM   15  C   UNK N   1      27.485  28.327  -6.379  0.00  0.00     0.002 A 
HETATM   16  C   UNK N   1      27.294  29.334  -5.431  0.00  0.00     0.003 A 
HETATM   17  C   UNK N   1      26.745  29.024  -4.186  0.00  0.00     0.038 A 
HETATM   18  C   UNK N   1      26.386  27.707  -3.881  0.00  0.00     0.084 A 
BRANCH  18  19
HETATM   19  O   UNK N   1      25.843  27.434  -2.681  0.00  0.00    -0.359 OA
HETATM   20  H   UNK N   1      25.463  26.596  -2.506  0.00  0.00     0.217 HD
ENDBRANCH  18  19
ENDBRANCH  11  13
ENDBRANCH   1  11
TORSDOF 9
ENDMDL
MODEL 9
REMARK VINA RESULT:      -5.3      2.860      3.639
REMARK  9 active torsions:
REMARK  status: ('A' for Active; 'I' for Inactive)
REMARK    1  A    between atoms: C_4  and  C_3 
REMARK    2  A    between atoms: C_7  and  C_3 
REMARK    3  A    between atoms: C_8  and  C_4 
REMARK    4  A    between atoms: P_16  and  C_7 
REMARK    5  A    between atoms: S_17  and  C_8 
REMARK    6  A    between atoms: O_11  and  C_9 
REMARK    7  A    between atoms: S_17  and  C_10 
REMARK    8  A    between atoms: P_16  and  O_12 
REMARK    9  A    between atoms: P_16  and  O_13 
ROOT
HETATM    1  C   UNK N   1      32.359  15.591   7.195  0.00  0.00     0.114 C 
ENDROOT
BRANCH   1   2
HETATM    2  C   UNK N   1      33.822  15.502   6.788  0.00  0.00     0.013 C 
BRANCH   2   3
HETATM    3  C   UNK N   1      34.685  16.116   7.873  0.00  0.00     0.012 C 
BRANCH   3   4
HETATM    4  C   UNK N   1      35.316  15.059   8.761  0.00  0.00     0.125 C 
BRANCH   4   5
HETATM    5  P   UNK N   1      35.183  15.545  10.553  0.00  0.00     0.235 P 
HETATM    6  O   UNK N   1      35.122  17.090  10.681  0.00  0.00    -0.653 OA
BRANCH   5   7
HETATM    7  O   UNK N   1      33.727  15.016  11.337  0.00  0.00    -0.329 OA
HETATM    8  H   UNK N   1      32.835  14.910  10.970  0.00  0.00     0.220 HD
ENDBRANCH   5   7
BRANCH   5   9
HETATM    9  O   UNK N   1      36.510  15.089  11.577  0.00  0.00    -0.329 OA
HETATM   10  H   UNK N   1      37.070  15.292  12.342  0.00  0.00     0.220 HD
ENDBRANCH   5   9
ENDBRANCH   4   5
ENDBRANCH   3   4
ENDBRANCH   2   3
ENDBRANCH   1   2
BRANCH   1  11
HETATM   11  S   UNK N   1      32.146  16.865   8.482  0.00  0.00     0.052 S 
HETATM   12  O   UNK N   1      31.536  15.834   9.446  0.00  0.00    -0.253 OA
BRANCH  11  13
HETATM   13  C   UNK N   1      30.549  17.477   7.876  0.00  0.00     0.064 A 
HETATM   14  C   UNK N   1      30.146  17.203   6.557  0.00  0.00     0.024 A 
HETATM   15  C   UNK N   1      28.903  17.639   6.091  0.00  0.00     0.002 A 
HETATM   16  C   UNK N   1      28.047  18.346   6.937  0.00  0.00     0.003 A 
HETATM   17  C   UNK N   1      28.432  18.614   8.252  0.00  0.00     0.038 A 
HETATM   18  C   UNK N   1      29.674  18.181   8.726  0.00  0.00     0.084 A 
BRANCH  18  19
HETATM   19  O   UNK N   1      30.017  18.437  10.000  0.00  0.00    -0.359 OA
HETATM   20  H   UNK N   1      29.876  17.799  10.673  0.00  0.00     0.217 HD
ENDBRANCH  18  19
ENDBRANCH  11  13
ENDBRANCH   1  11
TORSDOF 9
ENDMDL
