REMARK  1 active torsions:
REMARK  status: ('A' for Active; 'I' for Inactive)
REMARK    1  A    between atoms: C_17  and  O_20 
ROOT
HETATM    1  C   UNK N   1      21.609 -11.757   0.575  0.00  0.00     0.084 C 
HETATM    2  C   UNK N   1      21.695 -13.218   0.206  0.00  0.00     0.149 C 
HETATM    3  C   UNK N   1      22.998 -13.918   0.190  0.00  0.00     0.053 C 
HETATM    4  C   UNK N   1      24.151 -13.233   0.255  0.00  0.00    -0.068 C 
HETATM    5  C   UNK N   1      24.126 -11.710   0.162  0.00  0.00    -0.016 C 
HETATM    6  C   UNK N   1      22.965 -11.183   1.023  0.00  0.00     0.022 C 
HETATM    7  C   UNK N   1      25.437 -14.024   0.231  0.00  0.00     0.035 C 
HETATM    8  C   UNK N   1      26.726 -13.220   0.415  0.00  0.00     0.010 C 
HETATM    9  C   UNK N   1      26.651 -11.780  -0.096  0.00  0.00    -0.004 C 
HETATM   10  C   UNK N   1      25.466 -11.073   0.615  0.00  0.00     0.002 C 
HETATM   11  C   UNK N   1      27.958 -11.042   0.237  0.00  0.00     0.001 C 
HETATM   12  C   UNK N   1      27.903  -9.578  -0.181  0.00  0.00    -0.014 C 
HETATM   13  C   UNK N   1      26.810  -8.871   0.624  0.00  0.00     0.012 C 
HETATM   14  C   UNK N   1      25.454  -9.543   0.353  0.00  0.00     0.007 C 
HETATM   15  C   UNK N   1      29.227 -11.539  -0.435  0.00  0.00     0.008 C 
HETATM   16  C   UNK N   1      30.172 -10.326  -0.382  0.00  0.00     0.033 C 
HETATM   17  C   UNK N   1      29.334  -9.121   0.082  0.00  0.00     0.126 C 
HETATM   18  O   UNK N   1      20.679 -13.829  -0.077  0.00  0.00    -0.293 OA
HETATM   19  C   UNK N   1      27.623  -9.392  -1.681  0.00  0.00     0.018 C 
HETATM   20  C   UNK N   1      23.850 -11.343  -1.303  0.00  0.00     0.020 C 
ENDROOT
BRANCH  17  21
HETATM   21  O   UNK N   1      29.555  -8.929   1.449  0.00  0.00    -0.395 OA
HETATM   22  H   UNK N   1      29.748  -8.995   2.397  0.00  0.00     0.210 HD
ENDBRANCH  17  21
TORSDOF 1
