MODEL 1
REMARK VINA RESULT:      -6.7      0.000      0.000
REMARK  10 active torsions:
REMARK  status: ('A' for Active; 'I' for Inactive)
REMARK    1  A    between atoms: C_3  and  C_2 
REMARK    2  A    between atoms: C_4  and  C_3 
REMARK    3  A    between atoms: C_5  and  C_4 
REMARK    4  A    between atoms: C_6  and  C_5 
REMARK    5  A    between atoms: N_16  and  C_8 
REMARK    6  A    between atoms: C_11  and  O_19 
REMARK    7  A    between atoms: C_12  and  O_20 
REMARK    8  A    between atoms: C_13  and  O_21 
REMARK    9  A    between atoms: C_14  and  O_22 
REMARK   10  A    between atoms: N_16  and  C_15 
ROOT
HETATM    1  C   UNK N   1      20.142  15.538   2.343  0.00  0.00     0.110 A 
HETATM    2  C   UNK N   1      20.377  17.069   2.166  0.00  0.00     0.130 A 
HETATM    3  C   UNK N   1      20.423  18.041   1.031  0.00  0.00     0.173 A 
HETATM    4  C   UNK N   1      20.695  19.522   1.303  0.00  0.00     0.181 A 
HETATM    5  C   UNK N   1      20.916  20.013   2.698  0.00  0.00     0.198 A 
HETATM    6  C   UNK N   1      20.862  19.033   3.774  0.00  0.00     0.254 A 
HETATM    7  C   UNK N   1      20.552  16.730   4.463  0.00  0.00     0.140 A 
HETATM    8  N   UNK N   1      20.593  17.598   3.450  0.00  0.00    -0.325 N 
HETATM    9  S   UNK N   1      20.227  14.998   4.075  0.00  0.00    -0.092 SA
ENDROOT
BRANCH   7  10
HETATM   10  N   UNK N   1      20.734  17.152   5.583  0.00  0.00    -0.371 N 
ATOM     11  HN  UNK N   1      20.676  18.155   5.760  1.00  0.00     0.161 HD
BRANCH  10  12
HETATM   12  C   UNK N   1      21.004  16.338   6.568  0.00  0.00     0.121 A 
HETATM   13  C   UNK N   1      20.140  16.655   7.652  0.00  0.00     0.020 A 
HETATM   14  C   UNK N   1      21.035  15.593   7.887  0.00  0.00     0.002 A 
BRANCH  14  15
HETATM   15  C   UNK N   1      20.885  15.083   9.121  0.00  0.00     0.000 C 
BRANCH  15  16
HETATM   16  C   UNK N   1      21.031  13.681   8.785  0.00  0.00     0.000 C 
BRANCH  16  17
HETATM   17  C   UNK N   1      21.314  13.615  10.163  0.00  0.00    -0.000 C 
BRANCH  17  18
HETATM   18  C   UNK N   1      21.310  12.352  10.809  0.00  0.00    -0.005 C 
HETATM   19  C   UNK N   1      22.790  12.327  11.025  0.00  0.00     0.005 C 
ENDBRANCH  17  18
ENDBRANCH  16  17
ENDBRANCH  15  16
ENDBRANCH  14  15
ENDBRANCH  10  12
ENDBRANCH   7  10
BRANCH   6  20
HETATM   20  O   UNK N   1      21.068  19.483   5.086  0.00  0.00    -0.374 OA
HETATM   21  H   UNK N   1      20.912  20.413   5.310  0.00  0.00     0.212 HD
ENDBRANCH   6  20
BRANCH   3  22
HETATM   22  O   UNK N   1      20.218  17.588  -0.265  0.00  0.00    -0.391 OA
HETATM   23  H   UNK N   1      19.324  17.582  -0.641  0.00  0.00     0.210 HD
ENDBRANCH   3  22
BRANCH   5  24
HETATM   24  O   UNK N   1      21.169  21.344   3.031  0.00  0.00    -0.389 OA
HETATM   25  H   UNK N   1      21.537  21.948   2.367  0.00  0.00     0.210 HD
ENDBRANCH   5  24
BRANCH   4  26
HETATM   26  O   UNK N   1      20.739  20.430   0.260  0.00  0.00    -0.390 OA
HETATM   27  H   UNK N   1      20.054  21.111   0.180  0.00  0.00     0.210 HD
ENDBRANCH   4  26
TORSDOF 10
ENDMDL
MODEL 2
REMARK VINA RESULT:      -6.5      1.795      2.393
REMARK  10 active torsions:
REMARK  status: ('A' for Active; 'I' for Inactive)
REMARK    1  A    between atoms: C_3  and  C_2 
REMARK    2  A    between atoms: C_4  and  C_3 
REMARK    3  A    between atoms: C_5  and  C_4 
REMARK    4  A    between atoms: C_6  and  C_5 
REMARK    5  A    between atoms: N_16  and  C_8 
REMARK    6  A    between atoms: C_11  and  O_19 
REMARK    7  A    between atoms: C_12  and  O_20 
REMARK    8  A    between atoms: C_13  and  O_21 
REMARK    9  A    between atoms: C_14  and  O_22 
REMARK   10  A    between atoms: N_16  and  C_15 
ROOT
HETATM    1  C   UNK N   1      23.616  18.281   4.473  0.00  0.00     0.110 A 
HETATM    2  C   UNK N   1      22.319  18.695   3.714  0.00  0.00     0.130 A 
HETATM    3  C   UNK N   1      21.912  19.769   2.757  0.00  0.00     0.173 A 
HETATM    4  C   UNK N   1      20.476  19.817   2.229  0.00  0.00     0.181 A 
HETATM    5  C   UNK N   1      19.470  18.800   2.660  0.00  0.00     0.198 A 
HETATM    6  C   UNK N   1      19.908  17.771   3.593  0.00  0.00     0.254 A 
HETATM    7  C   UNK N   1      21.688  16.813   4.932  0.00  0.00     0.140 A 
HETATM    8  N   UNK N   1      21.323  17.772   4.077  0.00  0.00    -0.325 N 
HETATM    9  S   UNK N   1      23.395  16.811   5.517  0.00  0.00    -0.092 SA
ENDROOT
BRANCH   7  10
HETATM   10  N   UNK N   1      20.855  16.001   5.266  0.00  0.00    -0.371 N 
ATOM     11  HN  UNK N   1      20.091  15.770   4.630  1.00  0.00     0.161 HD
BRANCH  10  12
HETATM   12  C   UNK N   1      20.923  15.415   6.430  0.00  0.00     0.121 A 
HETATM   13  C   UNK N   1      20.079  16.122   7.330  0.00  0.00     0.020 A 
HETATM   14  C   UNK N   1      20.753  15.014   7.882  0.00  0.00     0.002 A 
BRANCH  14  15
HETATM   15  C   UNK N   1      20.451  14.849   9.182  0.00  0.00     0.000 C 
BRANCH  15  16
HETATM   16  C   UNK N   1      21.572  14.007   9.547  0.00  0.00     0.000 C 
BRANCH  16  17
HETATM   17  C   UNK N   1      20.555  13.363  10.279  0.00  0.00    -0.000 C 
BRANCH  17  18
HETATM   18  C   UNK N   1      20.891  12.256  11.101  0.00  0.00    -0.005 C 
HETATM   19  C   UNK N   1      22.365  12.403  10.897  0.00  0.00     0.005 C 
ENDBRANCH  17  18
ENDBRANCH  16  17
ENDBRANCH  15  16
ENDBRANCH  14  15
ENDBRANCH  10  12
ENDBRANCH   7  10
BRANCH   6  20
HETATM   20  O   UNK N   1      18.973  16.812   4.004  0.00  0.00    -0.374 OA
HETATM   21  H   UNK N   1      18.617  16.175   3.365  0.00  0.00     0.212 HD
ENDBRANCH   6  20
BRANCH   3  22
HETATM   22  O   UNK N   1      22.844  20.715   2.354  0.00  0.00    -0.391 OA
HETATM   23  H   UNK N   1      23.781  20.595   2.570  0.00  0.00     0.210 HD
ENDBRANCH   3  22
BRANCH   5  24
HETATM   24  O   UNK N   1      18.144  18.774   2.227  0.00  0.00    -0.389 OA
HETATM   25  H   UNK N   1      17.655  19.604   2.109  0.00  0.00     0.210 HD
ENDBRANCH   5  24
BRANCH   4  26
HETATM   26  O   UNK N   1      20.088  20.807   1.343  0.00  0.00    -0.390 OA
HETATM   27  H   UNK N   1      19.232  21.249   1.453  0.00  0.00     0.210 HD
ENDBRANCH   4  26
TORSDOF 10
ENDMDL
MODEL 3
REMARK VINA RESULT:      -6.5      4.520      5.800
REMARK  10 active torsions:
REMARK  status: ('A' for Active; 'I' for Inactive)
REMARK    1  A    between atoms: C_3  and  C_2 
REMARK    2  A    between atoms: C_4  and  C_3 
REMARK    3  A    between atoms: C_5  and  C_4 
REMARK    4  A    between atoms: C_6  and  C_5 
REMARK    5  A    between atoms: N_16  and  C_8 
REMARK    6  A    between atoms: C_11  and  O_19 
REMARK    7  A    between atoms: C_12  and  O_20 
REMARK    8  A    between atoms: C_13  and  O_21 
REMARK    9  A    between atoms: C_14  and  O_22 
REMARK   10  A    between atoms: N_16  and  C_15 
ROOT
HETATM    1  C   UNK N   1      22.030  16.506   4.959  0.00  0.00     0.110 A 
HETATM    2  C   UNK N   1      21.196  17.475   4.066  0.00  0.00     0.130 A 
HETATM    3  C   UNK N   1      19.781  17.576   3.594  0.00  0.00     0.173 A 
HETATM    4  C   UNK N   1      19.359  18.736   2.689  0.00  0.00     0.181 A 
HETATM    5  C   UNK N   1      20.348  19.775   2.269  0.00  0.00     0.198 A 
HETATM    6  C   UNK N   1      21.716  19.638   2.751  0.00  0.00     0.254 A 
HETATM    7  C   UNK N   1      23.336  18.393   4.055  0.00  0.00     0.140 A 
HETATM    8  N   UNK N   1      22.073  18.484   3.633  0.00  0.00    -0.325 N 
HETATM    9  S   UNK N   1      23.770  17.002   5.120  0.00  0.00    -0.092 SA
ENDROOT
BRANCH   7  10
HETATM   10  N   UNK N   1      24.118  19.246   3.701  0.00  0.00    -0.371 N 
ATOM     11  HN  UNK N   1      23.942  19.767   2.842  1.00  0.00     0.161 HD
BRANCH  10  12
HETATM   12  C   UNK N   1      25.186  19.507   4.405  0.00  0.00     0.121 A 
HETATM   13  C   UNK N   1      26.124  20.161   3.560  0.00  0.00     0.020 A 
HETATM   14  C   UNK N   1      26.548  19.961   4.888  0.00  0.00     0.002 A 
BRANCH  14  15
HETATM   15  C   UNK N   1      27.787  20.443   5.089  0.00  0.00     0.000 C 
BRANCH  15  16
HETATM   16  C   UNK N   1      27.622  20.868   6.464  0.00  0.00     0.000 C 
BRANCH  16  17
HETATM   17  C   UNK N   1      27.886  19.501   6.679  0.00  0.00    -0.000 C 
BRANCH  17  18
HETATM   18  C   UNK N   1      28.280  19.068   7.971  0.00  0.00    -0.005 C 
HETATM   19  C   UNK N   1      28.235  17.614   7.624  0.00  0.00     0.005 C 
ENDBRANCH  17  18
ENDBRANCH  16  17
ENDBRANCH  15  16
ENDBRANCH  14  15
ENDBRANCH  10  12
ENDBRANCH   7  10
BRANCH   6  20
HETATM   20  O   UNK N   1      22.651  20.606   2.362  0.00  0.00    -0.374 OA
HETATM   21  H   UNK N   1      22.364  21.386   1.862  0.00  0.00     0.212 HD
ENDBRANCH   6  20
BRANCH   3  22
HETATM   22  O   UNK N   1      18.860  16.613   3.983  0.00  0.00    -0.391 OA
HETATM   23  H   UNK N   1      18.184  16.828   4.645  0.00  0.00     0.210 HD
ENDBRANCH   3  22
BRANCH   5  24
HETATM   24  O   UNK N   1      20.045  20.861   1.447  0.00  0.00    -0.389 OA
HETATM   25  H   UNK N   1      19.124  21.152   1.349  0.00  0.00     0.210 HD
ENDBRANCH   5  24
BRANCH   4  26
HETATM   26  O   UNK N   1      18.052  18.839   2.247  0.00  0.00    -0.390 OA
HETATM   27  H   UNK N   1      17.858  18.815   1.297  0.00  0.00     0.210 HD
ENDBRANCH   4  26
TORSDOF 10
ENDMDL
MODEL 4
REMARK VINA RESULT:      -6.4     14.007     15.470
REMARK  10 active torsions:
REMARK  status: ('A' for Active; 'I' for Inactive)
REMARK    1  A    between atoms: C_3  and  C_2 
REMARK    2  A    between atoms: C_4  and  C_3 
REMARK    3  A    between atoms: C_5  and  C_4 
REMARK    4  A    between atoms: C_6  and  C_5 
REMARK    5  A    between atoms: N_16  and  C_8 
REMARK    6  A    between atoms: C_11  and  O_19 
REMARK    7  A    between atoms: C_12  and  O_20 
REMARK    8  A    between atoms: C_13  and  O_21 
REMARK    9  A    between atoms: C_14  and  O_22 
REMARK   10  A    between atoms: N_16  and  C_15 
ROOT
HETATM    1  C   UNK N   1      34.096  13.132   8.353  0.00  0.00     0.110 A 
HETATM    2  C   UNK N   1      34.233  14.662   8.090  0.00  0.00     0.130 A 
HETATM    3  C   UNK N   1      34.025  15.593   6.940  0.00  0.00     0.173 A 
HETATM    4  C   UNK N   1      34.284  17.092   7.113  0.00  0.00     0.181 A 
HETATM    5  C   UNK N   1      34.745  17.640   8.425  0.00  0.00     0.198 A 
HETATM    6  C   UNK N   1      34.935  16.698   9.520  0.00  0.00     0.254 A 
HETATM    7  C   UNK N   1      34.852  14.412  10.321  0.00  0.00     0.140 A 
HETATM    8  N   UNK N   1      34.667  15.244   9.294  0.00  0.00    -0.325 N 
HETATM    9  S   UNK N   1      34.529  12.657  10.052  0.00  0.00    -0.092 SA
ENDROOT
BRANCH   7  10
HETATM   10  N   UNK N   1      35.226  14.879  11.374  0.00  0.00    -0.371 N 
ATOM     11  HN  UNK N   1      35.527  15.853  11.414  1.00  0.00     0.161 HD
BRANCH  10  12
HETATM   12  C   UNK N   1      35.248  14.152  12.457  0.00  0.00     0.121 A 
HETATM   13  C   UNK N   1      36.225  14.696  13.335  0.00  0.00     0.020 A 
HETATM   14  C   UNK N   1      35.548  13.560  13.819  0.00  0.00     0.002 A 
BRANCH  14  15
HETATM   15  C   UNK N   1      35.977  13.214  15.046  0.00  0.00     0.000 C 
BRANCH  15  16
HETATM   16  C   UNK N   1      34.706  12.786  15.595  0.00  0.00     0.000 C 
BRANCH  16  17
HETATM   17  C   UNK N   1      35.472  12.802  16.777  0.00  0.00    -0.000 C 
BRANCH  17  18
HETATM   18  C   UNK N   1      35.207  13.792  17.759  0.00  0.00    -0.005 C 
HETATM   19  C   UNK N   1      35.226  12.828  18.903  0.00  0.00     0.005 C 
ENDBRANCH  17  18
ENDBRANCH  16  17
ENDBRANCH  15  16
ENDBRANCH  14  15
ENDBRANCH  10  12
ENDBRANCH   7  10
BRANCH   6  20
HETATM   20  O   UNK N   1      35.367  17.201  10.755  0.00  0.00    -0.374 OA
HETATM   21  H   UNK N   1      36.145  17.778  10.798  0.00  0.00     0.212 HD
ENDBRANCH   6  20
BRANCH   3  22
HETATM   22  O   UNK N   1      33.597  15.088   5.720  0.00  0.00    -0.391 OA
HETATM   23  H   UNK N   1      33.526  15.675   4.950  0.00  0.00     0.210 HD
ENDBRANCH   3  22
BRANCH   5  24
HETATM   24  O   UNK N   1      35.004  18.989   8.665  0.00  0.00    -0.389 OA
HETATM   25  H   UNK N   1      35.780  19.249   9.187  0.00  0.00     0.210 HD
ENDBRANCH   5  24
BRANCH   4  26
HETATM   26  O   UNK N   1      34.095  17.963   6.055  0.00  0.00    -0.390 OA
HETATM   27  H   UNK N   1      34.848  18.229   5.505  0.00  0.00     0.210 HD
ENDBRANCH   4  26
TORSDOF 10
ENDMDL
MODEL 5
REMARK VINA RESULT:      -5.9      4.124      7.159
REMARK  10 active torsions:
REMARK  status: ('A' for Active; 'I' for Inactive)
REMARK    1  A    between atoms: C_3  and  C_2 
REMARK    2  A    between atoms: C_4  and  C_3 
REMARK    3  A    between atoms: C_5  and  C_4 
REMARK    4  A    between atoms: C_6  and  C_5 
REMARK    5  A    between atoms: N_16  and  C_8 
REMARK    6  A    between atoms: C_11  and  O_19 
REMARK    7  A    between atoms: C_12  and  O_20 
REMARK    8  A    between atoms: C_13  and  O_21 
REMARK    9  A    between atoms: C_14  and  O_22 
REMARK   10  A    between atoms: N_16  and  C_15 
ROOT
HETATM    1  C   UNK N   1      22.284  14.338   4.880  0.00  0.00     0.110 A 
HETATM    2  C   UNK N   1      21.536  14.902   6.126  0.00  0.00     0.130 A 
HETATM    3  C   UNK N   1      20.789  14.343   7.294  0.00  0.00     0.173 A 
HETATM    4  C   UNK N   1      20.183  15.288   8.336  0.00  0.00     0.181 A 
HETATM    5  C   UNK N   1      20.330  16.769   8.200  0.00  0.00     0.198 A 
HETATM    6  C   UNK N   1      21.066  17.271   7.047  0.00  0.00     0.254 A 
HETATM    7  C   UNK N   1      22.304  16.800   5.017  0.00  0.00     0.140 A 
HETATM    8  N   UNK N   1      21.636  16.303   6.060  0.00  0.00    -0.325 N 
HETATM    9  S   UNK N   1      22.993  15.635   3.824  0.00  0.00    -0.092 SA
ENDROOT
BRANCH   7  10
HETATM   10  N   UNK N   1      22.409  18.003   4.929  0.00  0.00    -0.371 N 
ATOM     11  HN  UNK N   1      21.597  18.595   5.104  1.00  0.00     0.161 HD
BRANCH  10  12
HETATM   12  C   UNK N   1      23.550  18.553   4.613  0.00  0.00     0.121 A 
HETATM   13  C   UNK N   1      23.325  19.452   3.536  0.00  0.00     0.020 A 
HETATM   14  C   UNK N   1      24.658  19.372   3.982  0.00  0.00     0.002 A 
BRANCH  14  15
HETATM   15  C   UNK N   1      25.465  20.185   3.279  0.00  0.00     0.000 C 
BRANCH  15  16
HETATM   16  C   UNK N   1      26.733  19.591   3.653  0.00  0.00     0.000 C 
BRANCH  16  17
HETATM   17  C   UNK N   1      26.693  20.648   4.583  0.00  0.00    -0.000 C 
BRANCH  17  18
HETATM   18  C   UNK N   1      27.682  20.713   5.599  0.00  0.00    -0.005 C 
HETATM   19  C   UNK N   1      26.885  21.621   6.480  0.00  0.00     0.005 C 
ENDBRANCH  17  18
ENDBRANCH  16  17
ENDBRANCH  15  16
ENDBRANCH  14  15
ENDBRANCH  10  12
ENDBRANCH   7  10
BRANCH   6  20
HETATM   20  O   UNK N   1      21.210  18.658   6.910  0.00  0.00    -0.374 OA
HETATM   21  H   UNK N   1      22.084  19.067   7.002  0.00  0.00     0.212 HD
ENDBRANCH   6  20
BRANCH   3  22
HETATM   22  O   UNK N   1      20.650  12.969   7.423  0.00  0.00    -0.391 OA
HETATM   23  H   UNK N   1      20.018  12.491   6.865  0.00  0.00     0.210 HD
ENDBRANCH   3  22
BRANCH   5  24
HETATM   24  O   UNK N   1      19.810  17.696   9.103  0.00  0.00    -0.389 OA
HETATM   25  H   UNK N   1      20.400  18.150   9.726  0.00  0.00     0.210 HD
ENDBRANCH   5  24
BRANCH   4  26
HETATM   26  O   UNK N   1      19.490  14.781   9.420  0.00  0.00    -0.390 OA
HETATM   27  H   UNK N   1      18.715  14.216   9.279  0.00  0.00     0.210 HD
ENDBRANCH   4  26
TORSDOF 10
ENDMDL
MODEL 6
REMARK VINA RESULT:      -5.9     11.981     14.037
REMARK  10 active torsions:
REMARK  status: ('A' for Active; 'I' for Inactive)
REMARK    1  A    between atoms: C_3  and  C_2 
REMARK    2  A    between atoms: C_4  and  C_3 
REMARK    3  A    between atoms: C_5  and  C_4 
REMARK    4  A    between atoms: C_6  and  C_5 
REMARK    5  A    between atoms: N_16  and  C_8 
REMARK    6  A    between atoms: C_11  and  O_19 
REMARK    7  A    between atoms: C_12  and  O_20 
REMARK    8  A    between atoms: C_13  and  O_21 
REMARK    9  A    between atoms: C_14  and  O_22 
REMARK   10  A    between atoms: N_16  and  C_15 
ROOT
HETATM    1  C   UNK N   1      34.635  16.140   6.597  0.00  0.00     0.110 A 
HETATM    2  C   UNK N   1      34.864  15.263   7.866  0.00  0.00     0.130 A 
HETATM    3  C   UNK N   1      35.891  14.290   8.348  0.00  0.00     0.173 A 
HETATM    4  C   UNK N   1      35.729  13.624   9.717  0.00  0.00     0.181 A 
HETATM    5  C   UNK N   1      34.552  13.936  10.582  0.00  0.00     0.198 A 
HETATM    6  C   UNK N   1      33.575  14.890  10.075  0.00  0.00     0.254 A 
HETATM    7  C   UNK N   1      32.867  16.380   8.299  0.00  0.00     0.140 A 
HETATM    8  N   UNK N   1      33.783  15.510   8.730  0.00  0.00    -0.325 N 
HETATM    9  S   UNK N   1      33.116  17.131   6.677  0.00  0.00    -0.092 SA
ENDROOT
BRANCH   7  10
HETATM   10  N   UNK N   1      31.922  16.616   9.018  0.00  0.00    -0.371 N 
ATOM     11  HN  UNK N   1      31.859  16.167   9.932  1.00  0.00     0.161 HD
BRANCH  10  12
HETATM   12  C   UNK N   1      30.982  17.439   8.639  0.00  0.00     0.121 A 
HETATM   13  C   UNK N   1      29.798  17.118   9.356  0.00  0.00     0.020 A 
HETATM   14  C   UNK N   1      29.681  18.192   8.452  0.00  0.00     0.002 A 
BRANCH  14  15
HETATM   15  C   UNK N   1      28.439  18.707   8.454  0.00  0.00     0.000 C 
BRANCH  15  16
HETATM   16  C   UNK N   1      28.075  18.372   7.092  0.00  0.00     0.000 C 
BRANCH  16  17
HETATM   17  C   UNK N   1      27.861  19.764   7.050  0.00  0.00    -0.000 C 
BRANCH  17  18
HETATM   18  C   UNK N   1      27.501  20.370   5.818  0.00  0.00    -0.005 C 
HETATM   19  C   UNK N   1      26.811  21.532   6.459  0.00  0.00     0.005 C 
ENDBRANCH  17  18
ENDBRANCH  16  17
ENDBRANCH  15  16
ENDBRANCH  14  15
ENDBRANCH  10  12
ENDBRANCH   7  10
BRANCH   6  20
HETATM   20  O   UNK N   1      32.467  15.189  10.879  0.00  0.00    -0.374 OA
HETATM   21  H   UNK N   1      32.002  16.034  10.769  0.00  0.00     0.212 HD
ENDBRANCH   6  20
BRANCH   3  22
HETATM   22  O   UNK N   1      36.986  13.998   7.546  0.00  0.00    -0.391 OA
HETATM   23  H   UNK N   1      36.880  13.939   6.584  0.00  0.00     0.210 HD
ENDBRANCH   3  22
BRANCH   5  24
HETATM   24  O   UNK N   1      34.331  13.373  11.840  0.00  0.00    -0.389 OA
HETATM   25  H   UNK N   1      34.998  13.469  12.538  0.00  0.00     0.210 HD
ENDBRANCH   5  24
BRANCH   4  26
HETATM   26  O   UNK N   1      36.674  12.721  10.172  0.00  0.00    -0.390 OA
HETATM   27  H   UNK N   1      36.765  12.553  11.123  0.00  0.00     0.210 HD
ENDBRANCH   4  26
TORSDOF 10
ENDMDL
MODEL 7
REMARK VINA RESULT:      -5.7     14.226     16.000
REMARK  10 active torsions:
REMARK  status: ('A' for Active; 'I' for Inactive)
REMARK    1  A    between atoms: C_3  and  C_2 
REMARK    2  A    between atoms: C_4  and  C_3 
REMARK    3  A    between atoms: C_5  and  C_4 
REMARK    4  A    between atoms: C_6  and  C_5 
REMARK    5  A    between atoms: N_16  and  C_8 
REMARK    6  A    between atoms: C_11  and  O_19 
REMARK    7  A    between atoms: C_12  and  O_20 
REMARK    8  A    between atoms: C_13  and  O_21 
REMARK    9  A    between atoms: C_14  and  O_22 
REMARK   10  A    between atoms: N_16  and  C_15 
ROOT
HETATM    1  C   UNK N   1      28.806  22.082  -6.858  0.00  0.00     0.110 A 
HETATM    2  C   UNK N   1      29.851  21.648  -5.785  0.00  0.00     0.130 A 
HETATM    3  C   UNK N   1      30.893  20.586  -5.646  0.00  0.00     0.173 A 
HETATM    4  C   UNK N   1      31.740  20.509  -4.372  0.00  0.00     0.181 A 
HETATM    5  C   UNK N   1      31.538  21.488  -3.261  0.00  0.00     0.198 A 
HETATM    6  C   UNK N   1      30.512  22.507  -3.439  0.00  0.00     0.254 A 
HETATM    7  C   UNK N   1      28.784  23.484  -4.829  0.00  0.00     0.140 A 
HETATM    8  N   UNK N   1      29.714  22.535  -4.704  0.00  0.00    -0.325 N 
HETATM    9  S   UNK N   1      27.819  23.521  -6.354  0.00  0.00    -0.092 SA
ENDROOT
BRANCH   7  10
HETATM   10  N   UNK N   1      28.639  24.265  -3.916  0.00  0.00    -0.371 N 
ATOM     11  HN  UNK N   1      29.036  24.051  -3.001  1.00  0.00     0.161 HD
BRANCH  10  12
HETATM   12  C   UNK N   1      27.980  25.379  -4.087  0.00  0.00     0.121 A 
HETATM   13  C   UNK N   1      26.848  25.360  -3.227  0.00  0.00     0.020 A 
HETATM   14  C   UNK N   1      26.982  26.517  -4.019  0.00  0.00     0.002 A 
BRANCH  14  15
HETATM   15  C   UNK N   1      25.984  27.389  -3.792  0.00  0.00     0.000 C 
BRANCH  15  16
HETATM   16  C   UNK N   1      25.821  27.872  -5.149  0.00  0.00     0.000 C 
BRANCH  16  17
HETATM   17  C   UNK N   1      26.766  28.808  -4.685  0.00  0.00    -0.000 C 
BRANCH  17  18
HETATM   18  C   UNK N   1      26.315  29.953  -3.979  0.00  0.00    -0.005 C 
HETATM   19  C   UNK N   1      27.405  30.842  -4.490  0.00  0.00     0.005 C 
ENDBRANCH  17  18
ENDBRANCH  16  17
ENDBRANCH  15  16
ENDBRANCH  14  15
ENDBRANCH  10  12
ENDBRANCH   7  10
BRANCH   6  20
HETATM   20  O   UNK N   1      30.314  23.430  -2.403  0.00  0.00    -0.374 OA
HETATM   21  H   UNK N   1      30.920  24.180  -2.299  0.00  0.00     0.212 HD
ENDBRANCH   6  20
BRANCH   3  22
HETATM   22  O   UNK N   1      31.084  19.675  -6.675  0.00  0.00    -0.391 OA
HETATM   23  H   UNK N   1      30.450  18.952  -6.806  0.00  0.00     0.210 HD
ENDBRANCH   3  22
BRANCH   5  24
HETATM   24  O   UNK N   1      32.266  21.486  -2.072  0.00  0.00    -0.389 OA
HETATM   25  H   UNK N   1      33.210  21.712  -2.080  0.00  0.00     0.210 HD
ENDBRANCH   5  24
BRANCH   4  26
HETATM   26  O   UNK N   1      32.707  19.529  -4.233  0.00  0.00    -0.390 OA
HETATM   27  H   UNK N   1      32.741  18.789  -4.858  0.00  0.00     0.210 HD
ENDBRANCH   4  26
TORSDOF 10
ENDMDL
MODEL 8
REMARK VINA RESULT:      -5.6     14.313     16.511
REMARK  10 active torsions:
REMARK  status: ('A' for Active; 'I' for Inactive)
REMARK    1  A    between atoms: C_3  and  C_2 
REMARK    2  A    between atoms: C_4  and  C_3 
REMARK    3  A    between atoms: C_5  and  C_4 
REMARK    4  A    between atoms: C_6  and  C_5 
REMARK    5  A    between atoms: N_16  and  C_8 
REMARK    6  A    between atoms: C_11  and  O_19 
REMARK    7  A    between atoms: C_12  and  O_20 
REMARK    8  A    between atoms: C_13  and  O_21 
REMARK    9  A    between atoms: C_14  and  O_22 
REMARK   10  A    between atoms: N_16  and  C_15 
ROOT
HETATM    1  C   UNK N   1      30.550  20.940  -6.948  0.00  0.00     0.110 A 
HETATM    2  C   UNK N   1      30.834  21.287  -5.455  0.00  0.00     0.130 A 
HETATM    3  C   UNK N   1      31.847  20.912  -4.423  0.00  0.00     0.173 A 
HETATM    4  C   UNK N   1      31.760  21.507  -3.015  0.00  0.00     0.181 A 
HETATM    5  C   UNK N   1      30.669  22.464  -2.657  0.00  0.00     0.198 A 
HETATM    6  C   UNK N   1      29.702  22.802  -3.693  0.00  0.00     0.254 A 
HETATM    7  C   UNK N   1      28.931  22.525  -5.975  0.00  0.00     0.140 A 
HETATM    8  N   UNK N   1      29.836  22.191  -5.052  0.00  0.00    -0.325 N 
HETATM    9  S   UNK N   1      29.089  21.790  -7.615  0.00  0.00    -0.092 SA
ENDROOT
BRANCH   7  10
HETATM   10  N   UNK N   1      28.057  23.302  -5.661  0.00  0.00    -0.371 N 
ATOM     11  HN  UNK N   1      27.460  23.093  -4.860  1.00  0.00     0.161 HD
BRANCH  10  12
HETATM   12  C   UNK N   1      27.869  24.404  -6.334  0.00  0.00     0.121 A 
HETATM   13  C   UNK N   1      26.499  24.766  -6.216  0.00  0.00     0.020 A 
HETATM   14  C   UNK N   1      27.287  25.639  -6.993  0.00  0.00     0.002 A 
BRANCH  14  15
HETATM   15  C   UNK N   1      26.562  26.662  -7.476  0.00  0.00     0.000 C 
BRANCH  15  16
HETATM   16  C   UNK N   1      26.437  27.423  -6.249  0.00  0.00     0.000 C 
BRANCH  16  17
HETATM   17  C   UNK N   1      27.481  28.145  -6.859  0.00  0.00    -0.000 C 
BRANCH  17  18
HETATM   18  C   UNK N   1      27.971  29.318  -6.229  0.00  0.00    -0.005 C 
HETATM   19  C   UNK N   1      28.118  28.675  -4.886  0.00  0.00     0.005 C 
ENDBRANCH  17  18
ENDBRANCH  16  17
ENDBRANCH  15  16
ENDBRANCH  14  15
ENDBRANCH  10  12
ENDBRANCH   7  10
BRANCH   6  20
HETATM   20  O   UNK N   1      28.675  23.698  -3.369  0.00  0.00    -0.374 OA
HETATM   21  H   UNK N   1      27.819  23.640  -3.821  0.00  0.00     0.212 HD
ENDBRANCH   6  20
BRANCH   3  22
HETATM   22  O   UNK N   1      32.862  20.024  -4.751  0.00  0.00    -0.391 OA
HETATM   23  H   UNK N   1      33.554  19.817  -4.104  0.00  0.00     0.210 HD
ENDBRANCH   3  22
BRANCH   5  24
HETATM   24  O   UNK N   1      30.519  23.049  -1.400  0.00  0.00    -0.389 OA
HETATM   25  H   UNK N   1      30.864  23.942  -1.236  0.00  0.00     0.210 HD
ENDBRANCH   5  24
BRANCH   4  26
HETATM   26  O   UNK N   1      32.693  21.166  -2.052  0.00  0.00    -0.390 OA
HETATM   27  H   UNK N   1      33.512  21.679  -1.967  0.00  0.00     0.210 HD
ENDBRANCH   4  26
TORSDOF 10
ENDMDL
MODEL 9
REMARK VINA RESULT:      -5.6     14.158     16.187
REMARK  10 active torsions:
REMARK  status: ('A' for Active; 'I' for Inactive)
REMARK    1  A    between atoms: C_3  and  C_2 
REMARK    2  A    between atoms: C_4  and  C_3 
REMARK    3  A    between atoms: C_5  and  C_4 
REMARK    4  A    between atoms: C_6  and  C_5 
REMARK    5  A    between atoms: N_16  and  C_8 
REMARK    6  A    between atoms: C_11  and  O_19 
REMARK    7  A    between atoms: C_12  and  O_20 
REMARK    8  A    between atoms: C_13  and  O_21 
REMARK    9  A    between atoms: C_14  and  O_22 
REMARK   10  A    between atoms: N_16  and  C_15 
ROOT
HETATM    1  C   UNK N   1      37.344  13.244   9.224  0.00  0.00     0.110 A 
HETATM    2  C   UNK N   1      36.105  14.092   8.805  0.00  0.00     0.130 A 
HETATM    3  C   UNK N   1      35.615  14.767   7.565  0.00  0.00     0.173 A 
HETATM    4  C   UNK N   1      34.287  15.528   7.583  0.00  0.00     0.181 A 
HETATM    5  C   UNK N   1      33.469  15.606   8.832  0.00  0.00     0.198 A 
HETATM    6  C   UNK N   1      33.983  14.935  10.018  0.00  0.00     0.254 A 
HETATM    7  C   UNK N   1      35.726  13.603  11.050  0.00  0.00     0.140 A 
HETATM    8  N   UNK N   1      35.287  14.205   9.943  0.00  0.00    -0.325 N 
HETATM    9  S   UNK N   1      37.298  12.721  10.963  0.00  0.00    -0.092 SA
ENDROOT
BRANCH   7  10
HETATM   10  N   UNK N   1      35.046  13.680  12.049  0.00  0.00    -0.371 N 
ATOM     11  HN  UNK N   1      34.058  13.923  11.970  1.00  0.00     0.161 HD
BRANCH  10  12
HETATM   12  C   UNK N   1      35.561  13.456  13.227  0.00  0.00     0.121 A 
HETATM   13  C   UNK N   1      34.840  12.389  13.829  0.00  0.00     0.020 A 
HETATM   14  C   UNK N   1      35.886  12.923  14.608  0.00  0.00     0.002 A 
BRANCH  14  15
HETATM   15  C   UNK N   1      35.990  12.297  15.793  0.00  0.00     0.000 C 
BRANCH  15  16
HETATM   16  C   UNK N   1      34.739  12.742  16.372  0.00  0.00     0.000 C 
BRANCH  16  17
HETATM   17  C   UNK N   1      35.633  13.511  17.142  0.00  0.00    -0.000 C 
BRANCH  17  18
HETATM   18  C   UNK N   1      35.159  14.153  18.316  0.00  0.00    -0.005 C 
HETATM   19  C   UNK N   1      35.232  12.921  19.160  0.00  0.00     0.005 C 
ENDBRANCH  17  18
ENDBRANCH  16  17
ENDBRANCH  15  16
ENDBRANCH  14  15
ENDBRANCH  10  12
ENDBRANCH   7  10
BRANCH   6  20
HETATM   20  O   UNK N   1      33.225  15.002  11.194  0.00  0.00    -0.374 OA
HETATM   21  H   UNK N   1      33.435  15.664  11.871  0.00  0.00     0.212 HD
ENDBRANCH   6  20
BRANCH   3  22
HETATM   22  O   UNK N   1      36.371  14.696   6.403  0.00  0.00    -0.391 OA
HETATM   23  H   UNK N   1      37.108  15.312   6.267  0.00  0.00     0.210 HD
ENDBRANCH   3  22
BRANCH   5  24
HETATM   24  O   UNK N   1      32.251  16.278   8.932  0.00  0.00    -0.389 OA
HETATM   25  H   UNK N   1      31.733  16.465   8.133  0.00  0.00     0.210 HD
ENDBRANCH   5  24
BRANCH   4  26
HETATM   26  O   UNK N   1      33.824  16.156   6.441  0.00  0.00    -0.390 OA
HETATM   27  H   UNK N   1      32.940  15.951   6.099  0.00  0.00     0.210 HD
ENDBRANCH   4  26
TORSDOF 10
ENDMDL
