REMARK  8 active torsions:
REMARK  status: ('A' for Active; 'I' for Inactive)
REMARK    1  A    between atoms: C_9  and  C_4 
REMARK    2  A    between atoms: C_10  and  C_4 
REMARK    3  A    between atoms: C_10  and  C_6 
REMARK    4  A    between atoms: C_15  and  C_6 
REMARK    5  A    between atoms: C_14  and  C_8 
REMARK    6  A    between atoms: C_17  and  C_8 
REMARK    7  A    between atoms: C_10  and  N_24 
REMARK       I    between atoms: N_27  and  C_15 
REMARK    8  A    between atoms: O_29  and  C_16 
ROOT
HETATM    1  C   UNK N   1       2.934   0.138   0.955  0.00  0.00     0.039 C 
HETATM    2  C   UNK N   1       3.819   0.631  -0.187  0.00  0.00     0.123 C 
HETATM    3  C   UNK N   1       1.755   1.083   1.169  0.00  0.00     0.128 C 
HETATM    4  C   UNK N   1       3.132   3.163   1.295  0.00  0.00     0.169 C 
HETATM    5  C   UNK N   1       1.390   2.833  -0.477  0.00  0.00     0.222 C 
HETATM    6  C   UNK N   1       4.543   2.681   0.949  0.00  0.00     0.135 C 
HETATM    7  N   UNK N   1       4.795   1.582   0.304  0.00  0.00    -0.373 N 
ATOM      8  HN  UNK N   1       5.777   1.367   0.127  1.00  0.00     0.161 HD
HETATM    9  N   UNK N   1       2.051   2.408   0.650  0.00  0.00    -0.340 N 
HETATM   10  O   UNK N   1       1.671   3.893  -1.007  0.00  0.00    -0.273 OA
ENDROOT
BRANCH   5  11
HETATM   11  C   UNK N   1       0.312   2.001  -1.121  0.00  0.00     0.127 C 
BRANCH  11  12
HETATM   12  C   UNK N   1      -0.960   1.824  -0.285  0.00  0.00     0.087 C 
BRANCH  12  13
HETATM   13  C   UNK N   1      -2.159   2.137  -1.193  0.00  0.00     0.067 C 
BRANCH  13  14
HETATM   14  C   UNK N   1      -3.182   3.041  -0.579  0.00  0.00    -0.015 A 
HETATM   15  C   UNK N   1      -4.400   2.507  -0.149  0.00  0.00     0.055 A 
HETATM   16  C   UNK N   1      -5.351   3.332   0.456  0.00  0.00     0.155 A 
HETATM   17  C   UNK N   1      -5.085   4.696   0.631  0.00  0.00     0.157 A 
HETATM   18  F   UNK N   1      -6.525   2.806   0.879  0.00  0.00    -0.203 F 
HETATM   19  C   UNK N   1      -3.873   5.234   0.192  0.00  0.00     0.088 A 
HETATM   20  F   UNK N   1      -6.000   5.498   1.227  0.00  0.00    -0.203 F 
HETATM   21  C   UNK N   1      -2.921   4.412  -0.415  0.00  0.00     0.125 A 
HETATM   22  F   UNK N   1      -1.744   4.946  -0.829  0.00  0.00    -0.205 F 
ENDBRANCH  13  14
ENDBRANCH  12  13
BRANCH  12  23
HETATM   23  N   UNK N   1      -0.945   2.647   0.924  0.00  0.00    -0.425 N 
HETATM   24  H   UNK N   1      -0.443   2.925   1.767  0.00  0.00     0.150 HD
HETATM   25  H   UNK N   1      -1.819   3.173   0.924  0.00  0.00     0.150 HD
ENDBRANCH  12  23
ENDBRANCH  11  12
ENDBRANCH   5  11
BRANCH   4  26
HETATM   26  C   UNK N   1       2.929   4.699   1.340  0.00  0.00     0.151 C 
BRANCH  26  27
HETATM   27  C   UNK N   1       3.532   5.591   0.247  0.00  0.00     0.390 C 
HETATM   28  F   UNK N   1       4.474   6.422   0.822  0.00  0.00    -0.171 F 
HETATM   29  F   UNK N   1       4.134   4.868  -0.767  0.00  0.00    -0.171 F 
HETATM   30  F   UNK N   1       2.529   6.377  -0.289  0.00  0.00    -0.171 F 
ENDBRANCH  26  27
ENDBRANCH   4  26
BRANCH   6  31
HETATM   31  O   UNK N   1       5.585   3.408   1.394  0.00  0.00    -0.348 OA
HETATM   32  H   UNK N   1       6.386   3.032   1.704  0.00  0.00     0.219 HD
ENDBRANCH   6  31
TORSDOF 8
