MODEL 1
REMARK VINA RESULT:      -7.0      0.000      0.000
REMARK  4 active torsions:
REMARK  status: ('A' for Active; 'I' for Inactive)
REMARK    1  A    between atoms: C_13  and  C_10 
REMARK    2  A    between atoms: O_22  and  C_10 
REMARK    3  A    between atoms: C_17  and  C_12 
REMARK    4  A    between atoms: N_21  and  C_14 
ROOT
HETATM    1  C   UNK N   1      28.591  16.555   3.329  0.00  0.00     0.156 C 
HETATM    2  C   UNK N   1      31.846  15.815   6.471  0.00  0.00     0.085 A 
HETATM    3  C   UNK N   1      28.531  18.455   6.470  0.00  0.00     0.010 A 
HETATM    4  C   UNK N   1      31.738  16.563   7.600  0.00  0.00     0.066 A 
HETATM    5  C   UNK N   1      30.868  15.932   5.355  0.00  0.00     0.201 A 
HETATM    6  C   UNK N   1      29.642  17.652   6.631  0.00  0.00     0.057 A 
HETATM    7  C   UNK N   1      27.999  18.146   5.210  0.00  0.00     0.054 A 
HETATM    8  C   UNK N   1      29.764  16.897   5.501  0.00  0.00     0.100 A 
HETATM    9  C   UNK N   1      30.589  17.520   7.752  0.00  0.00     0.206 A 
HETATM   10  N   UNK N   1      28.769  17.181   4.631  0.00  0.00    -0.346 N 
HETATM   11  O   UNK N   1      30.983  15.240   4.357  0.00  0.00    -0.286 OA
HETATM   12  O   UNK N   1      30.423  18.154   8.781  0.00  0.00    -0.285 OA
ENDROOT
BRANCH   7  13
HETATM   13  C   UNK N   1      26.790  18.770   4.584  0.00  0.00    -0.009 A 
HETATM   14  C   UNK N   1      25.507  18.246   4.809  0.00  0.00     0.014 A 
HETATM   15  C   UNK N   1      24.382  18.829   4.218  0.00  0.00     0.001 A 
HETATM   16  C   UNK N   1      24.526  19.946   3.394  0.00  0.00     0.000 A 
HETATM   17  C   UNK N   1      25.794  20.478   3.159  0.00  0.00     0.001 A 
HETATM   18  C   UNK N   1      26.918  19.891   3.749  0.00  0.00     0.014 A 
ENDBRANCH   7  13
BRANCH   3  19
HETATM   19  C   UNK N   1      28.048  19.453   7.476  0.00  0.00     0.206 C 
BRANCH  19  20
HETATM   20  O   UNK N   1      27.478  18.800   8.566  0.00  0.00    -0.396 OA
HETATM   21  H   UNK N   1      27.438  18.072   9.208  0.00  0.00     0.209 HD
ENDBRANCH  19  20
ENDBRANCH   3  19
BRANCH   4  22
HETATM   22  N   UNK N   1      32.667  16.341   8.665  0.00  0.00    -0.273 NA
HETATM   23  C   UNK N   1      33.805  15.539   8.570  0.00  0.00     0.115 A 
HETATM   24  C   UNK N   1      33.782  17.101   9.054  0.00  0.00     0.072 A 
HETATM   25  C   UNK N   1      34.263  18.099   8.014  0.00  0.00     0.028 C 
ENDBRANCH   4  22
TORSDOF 4
ENDMDL
MODEL 2
REMARK VINA RESULT:      -6.4      1.396      3.180
REMARK  4 active torsions:
REMARK  status: ('A' for Active; 'I' for Inactive)
REMARK    1  A    between atoms: C_13  and  C_10 
REMARK    2  A    between atoms: O_22  and  C_10 
REMARK    3  A    between atoms: C_17  and  C_12 
REMARK    4  A    between atoms: N_21  and  C_14 
ROOT
HETATM    1  C   UNK N   1      28.188  19.050   7.665  0.00  0.00     0.156 C 
HETATM    2  C   UNK N   1      32.112  16.825   8.483  0.00  0.00     0.085 A 
HETATM    3  C   UNK N   1      29.824  17.214   4.938  0.00  0.00     0.010 A 
HETATM    4  C   UNK N   1      32.641  16.177   7.413  0.00  0.00     0.066 A 
HETATM    5  C   UNK N   1      30.843  17.597   8.386  0.00  0.00     0.201 A 
HETATM    6  C   UNK N   1      30.682  16.999   5.997  0.00  0.00     0.057 A 
HETATM    7  C   UNK N   1      28.778  18.009   5.432  0.00  0.00     0.054 A 
HETATM    8  C   UNK N   1      30.159  17.641   7.080  0.00  0.00     0.100 A 
HETATM    9  C   UNK N   1      31.953  16.258   6.080  0.00  0.00     0.206 A 
HETATM   10  N   UNK N   1      29.006  18.265   6.752  0.00  0.00    -0.346 N 
HETATM   11  O   UNK N   1      30.395  18.177   9.361  0.00  0.00    -0.286 OA
HETATM   12  O   UNK N   1      32.438  15.748   5.084  0.00  0.00    -0.285 OA
ENDROOT
BRANCH   7  13
HETATM   13  C   UNK N   1      27.596  18.497   4.654  0.00  0.00    -0.009 A 
HETATM   14  C   UNK N   1      26.495  17.660   4.411  0.00  0.00     0.014 A 
HETATM   15  C   UNK N   1      25.395  18.118   3.680  0.00  0.00     0.001 A 
HETATM   16  C   UNK N   1      25.382  19.422   3.181  0.00  0.00     0.000 A 
HETATM   17  C   UNK N   1      26.469  20.266   3.412  0.00  0.00     0.001 A 
HETATM   18  C   UNK N   1      27.569  19.804   4.142  0.00  0.00     0.014 A 
ENDBRANCH   7  13
BRANCH   3  19
HETATM   19  C   UNK N   1      30.017  16.667   3.559  0.00  0.00     0.206 C 
BRANCH  19  20
HETATM   20  O   UNK N   1      31.095  17.296   2.939  0.00  0.00    -0.396 OA
HETATM   21  H   UNK N   1      31.713  17.412   2.199  0.00  0.00     0.209 HD
ENDBRANCH  19  20
ENDBRANCH   3  19
BRANCH   4  22
HETATM   22  N   UNK N   1      33.904  15.522   7.561  0.00  0.00    -0.273 NA
HETATM   23  C   UNK N   1      34.631  15.459   8.750  0.00  0.00     0.115 A 
HETATM   24  C   UNK N   1      34.188  14.175   7.839  0.00  0.00     0.072 A 
HETATM   25  C   UNK N   1      33.013  13.380   8.385  0.00  0.00     0.028 C 
ENDBRANCH   4  22
TORSDOF 4
ENDMDL
MODEL 3
REMARK VINA RESULT:      -6.3      3.632      8.635
REMARK  4 active torsions:
REMARK  status: ('A' for Active; 'I' for Inactive)
REMARK    1  A    between atoms: C_13  and  C_10 
REMARK    2  A    between atoms: O_22  and  C_10 
REMARK    3  A    between atoms: C_17  and  C_12 
REMARK    4  A    between atoms: N_21  and  C_14 
ROOT
HETATM    1  C   UNK N   1      26.841  20.377   3.441  0.00  0.00     0.156 C 
HETATM    2  C   UNK N   1      22.300  19.921   3.010  0.00  0.00     0.085 A 
HETATM    3  C   UNK N   1      25.214  17.309   4.635  0.00  0.00     0.010 A 
HETATM    4  C   UNK N   1      21.790  18.754   3.483  0.00  0.00     0.066 A 
HETATM    5  C   UNK N   1      23.755  20.227   3.077  0.00  0.00     0.201 A 
HETATM    6  C   UNK N   1      24.148  18.043   4.154  0.00  0.00     0.057 A 
HETATM    7  C   UNK N   1      26.359  18.093   4.426  0.00  0.00     0.054 A 
HETATM    8  C   UNK N   1      24.648  19.217   3.673  0.00  0.00     0.100 A 
HETATM    9  C   UNK N   1      22.706  17.746   4.119  0.00  0.00     0.206 A 
HETATM   10  N   UNK N   1      25.988  19.265   3.836  0.00  0.00    -0.346 N 
HETATM   11  O   UNK N   1      24.184  21.288   2.654  0.00  0.00    -0.286 OA
HETATM   12  O   UNK N   1      22.272  16.721   4.617  0.00  0.00    -0.285 OA
ENDROOT
BRANCH   7  13
HETATM   13  C   UNK N   1      27.765  17.715   4.777  0.00  0.00    -0.009 A 
HETATM   14  C   UNK N   1      28.629  17.170   3.813  0.00  0.00     0.014 A 
HETATM   15  C   UNK N   1      29.939  16.814   4.147  0.00  0.00     0.001 A 
HETATM   16  C   UNK N   1      30.403  16.999   5.451  0.00  0.00     0.000 A 
HETATM   17  C   UNK N   1      29.556  17.538   6.420  0.00  0.00     0.001 A 
HETATM   18  C   UNK N   1      28.245  17.890   6.084  0.00  0.00     0.014 A 
ENDBRANCH   7  13
BRANCH   3  19
HETATM   19  C   UNK N   1      25.107  15.944   5.239  0.00  0.00     0.206 C 
BRANCH  19  20
HETATM   20  O   UNK N   1      24.481  16.015   6.481  0.00  0.00    -0.396 OA
HETATM   21  H   UNK N   1      23.875  15.676   7.159  0.00  0.00     0.209 HD
ENDBRANCH  19  20
ENDBRANCH   3  19
BRANCH   4  22
HETATM   22  N   UNK N   1      20.373  18.561   3.458  0.00  0.00    -0.273 NA
HETATM   23  C   UNK N   1      19.477  19.352   2.737  0.00  0.00     0.115 A 
HETATM   24  C   UNK N   1      19.596  17.724   2.642  0.00  0.00     0.072 A 
HETATM   25  C   UNK N   1      20.310  17.208   1.403  0.00  0.00     0.028 C 
ENDBRANCH   4  22
TORSDOF 4
ENDMDL
MODEL 4
REMARK VINA RESULT:      -6.3      5.468      8.844
REMARK  4 active torsions:
REMARK  status: ('A' for Active; 'I' for Inactive)
REMARK    1  A    between atoms: C_13  and  C_10 
REMARK    2  A    between atoms: O_22  and  C_10 
REMARK    3  A    between atoms: C_17  and  C_12 
REMARK    4  A    between atoms: N_21  and  C_14 
ROOT
HETATM    1  C   UNK N   1      35.387  16.780  10.906  0.00  0.00     0.156 C 
HETATM    2  C   UNK N   1      36.067  12.987  13.389  0.00  0.00     0.085 A 
HETATM    3  C   UNK N   1      34.161  13.556   9.647  0.00  0.00     0.010 A 
HETATM    4  C   UNK N   1      35.579  11.844  12.840  0.00  0.00     0.066 A 
HETATM    5  C   UNK N   1      35.931  14.304  12.709  0.00  0.00     0.201 A 
HETATM    6  C   UNK N   1      34.751  13.202  10.843  0.00  0.00     0.057 A 
HETATM    7  C   UNK N   1      34.324  14.944   9.521  0.00  0.00     0.054 A 
HETATM    8  C   UNK N   1      35.242  14.343  11.407  0.00  0.00     0.100 A 
HETATM    9  C   UNK N   1      34.908  11.891  11.496  0.00  0.00     0.206 A 
HETATM   10  N   UNK N   1      34.995  15.408  10.613  0.00  0.00    -0.346 N 
HETATM   11  O   UNK N   1      36.387  15.313  13.221  0.00  0.00    -0.286 OA
HETATM   12  O   UNK N   1      34.523  10.874  10.944  0.00  0.00    -0.285 OA
ENDROOT
BRANCH   7  13
HETATM   13  C   UNK N   1      33.837  15.791   8.387  0.00  0.00    -0.009 A 
HETATM   14  C   UNK N   1      34.616  15.972   7.233  0.00  0.00     0.014 A 
HETATM   15  C   UNK N   1      34.160  16.769   6.179  0.00  0.00     0.001 A 
HETATM   16  C   UNK N   1      32.916  17.396   6.265  0.00  0.00     0.000 A 
HETATM   17  C   UNK N   1      32.130  17.227   7.406  0.00  0.00     0.001 A 
HETATM   18  C   UNK N   1      32.590  16.432   8.460  0.00  0.00     0.014 A 
ENDBRANCH   7  13
BRANCH   3  19
HETATM   19  C   UNK N   1      33.483  12.601   8.715  0.00  0.00     0.206 C 
BRANCH  19  20
HETATM   20  O   UNK N   1      32.303  12.128   9.286  0.00  0.00    -0.396 OA
HETATM   21  H   UNK N   1      31.345  11.969   9.273  0.00  0.00     0.209 HD
ENDBRANCH  19  20
ENDBRANCH   3  19
BRANCH   4  22
HETATM   22  N   UNK N   1      35.815  10.603  13.511  0.00  0.00    -0.273 NA
HETATM   23  C   UNK N   1      36.394  10.482  14.775  0.00  0.00     0.115 A 
HETATM   24  C   UNK N   1      34.956   9.846  14.324  0.00  0.00     0.072 A 
HETATM   25  C   UNK N   1      33.738  10.599  14.832  0.00  0.00     0.028 C 
ENDBRANCH   4  22
TORSDOF 4
ENDMDL
MODEL 5
REMARK VINA RESULT:      -6.3      7.439     12.287
REMARK  4 active torsions:
REMARK  status: ('A' for Active; 'I' for Inactive)
REMARK    1  A    between atoms: C_13  and  C_10 
REMARK    2  A    between atoms: O_22  and  C_10 
REMARK    3  A    between atoms: C_17  and  C_12 
REMARK    4  A    between atoms: N_21  and  C_14 
ROOT
HETATM    1  C   UNK N   1      34.090  10.304  14.434  0.00  0.00     0.156 C 
HETATM    2  C   UNK N   1      34.769  12.251  10.339  0.00  0.00     0.085 A 
HETATM    3  C   UNK N   1      35.874  13.508  14.233  0.00  0.00     0.010 A 
HETATM    4  C   UNK N   1      35.440  13.432  10.367  0.00  0.00     0.066 A 
HETATM    5  C   UNK N   1      34.470  11.489  11.582  0.00  0.00     0.201 A 
HETATM    6  C   UNK N   1      35.597  13.238  12.908  0.00  0.00     0.057 A 
HETATM    7  C   UNK N   1      35.341  12.441  14.972  0.00  0.00     0.054 A 
HETATM    8  C   UNK N   1      34.921  12.055  12.867  0.00  0.00     0.100 A 
HETATM    9  C   UNK N   1      35.923  13.983  11.679  0.00  0.00     0.206 A 
HETATM   10  N   UNK N   1      34.762  11.556  14.112  0.00  0.00    -0.346 N 
HETATM   11  O   UNK N   1      33.875  10.426  11.527  0.00  0.00    -0.286 OA
HETATM   12  O   UNK N   1      36.589  15.004  11.731  0.00  0.00    -0.285 OA
ENDROOT
BRANCH   7  13
HETATM   13  C   UNK N   1      35.383  12.290  16.461  0.00  0.00    -0.009 A 
HETATM   14  C   UNK N   1      35.829  11.099  17.055  0.00  0.00     0.014 A 
HETATM   15  C   UNK N   1      35.862  10.961  18.446  0.00  0.00     0.001 A 
HETATM   16  C   UNK N   1      35.448  12.015  19.262  0.00  0.00     0.000 A 
HETATM   17  C   UNK N   1      35.000  13.205  18.688  0.00  0.00     0.001 A 
HETATM   18  C   UNK N   1      34.966  13.339  17.297  0.00  0.00     0.014 A 
ENDBRANCH   7  13
BRANCH   3  19
HETATM   19  C   UNK N   1      36.593  14.725  14.724  0.00  0.00     0.206 C 
BRANCH  19  20
HETATM   20  O   UNK N   1      37.760  14.358  15.391  0.00  0.00    -0.396 OA
HETATM   21  H   UNK N   1      38.551  13.806  15.498  0.00  0.00     0.209 HD
ENDBRANCH  19  20
ENDBRANCH   3  19
BRANCH   4  22
HETATM   22  N   UNK N   1      35.762  14.070   9.128  0.00  0.00    -0.273 NA
HETATM   23  C   UNK N   1      35.265  13.682   7.883  0.00  0.00     0.115 A 
HETATM   24  C   UNK N   1      35.173  15.188   8.515  0.00  0.00     0.072 A 
HETATM   25  C   UNK N   1      33.808  15.566   9.066  0.00  0.00     0.028 C 
ENDBRANCH   4  22
TORSDOF 4
ENDMDL
MODEL 6
REMARK VINA RESULT:      -6.3      3.936      9.267
REMARK  4 active torsions:
REMARK  status: ('A' for Active; 'I' for Inactive)
REMARK    1  A    between atoms: C_13  and  C_10 
REMARK    2  A    between atoms: O_22  and  C_10 
REMARK    3  A    between atoms: C_17  and  C_12 
REMARK    4  A    between atoms: N_21  and  C_14 
ROOT
HETATM    1  C   UNK N   1      35.617  16.759  10.571  0.00  0.00     0.156 C 
HETATM    2  C   UNK N   1      32.872  17.352   6.947  0.00  0.00     0.085 A 
HETATM    3  C   UNK N   1      33.951  13.849   9.074  0.00  0.00     0.010 A 
HETATM    4  C   UNK N   1      32.300  16.218   6.465  0.00  0.00     0.066 A 
HETATM    5  C   UNK N   1      33.787  17.333   8.121  0.00  0.00     0.201 A 
HETATM    6  C   UNK N   1      33.497  14.888   8.287  0.00  0.00     0.057 A 
HETATM    7  C   UNK N   1      34.806  14.421  10.029  0.00  0.00     0.054 A 
HETATM    8  C   UNK N   1      34.067  16.033   8.758  0.00  0.00     0.100 A 
HETATM    9  C   UNK N   1      32.567  14.904   7.144  0.00  0.00     0.206 A 
HETATM   10  N   UNK N   1      34.860  15.767   9.820  0.00  0.00    -0.346 N 
HETATM   11  O   UNK N   1      34.278  18.368   8.539  0.00  0.00    -0.286 OA
HETATM   12  O   UNK N   1      32.014  13.878   6.782  0.00  0.00    -0.285 OA
ENDROOT
BRANCH   7  13
HETATM   13  C   UNK N   1      35.550  13.686  11.100  0.00  0.00    -0.009 A 
HETATM   14  C   UNK N   1      36.791  13.085  10.836  0.00  0.00     0.014 A 
HETATM   15  C   UNK N   1      37.480  12.396  11.838  0.00  0.00     0.001 A 
HETATM   16  C   UNK N   1      36.936  12.300  13.121  0.00  0.00     0.000 A 
HETATM   17  C   UNK N   1      35.704  12.892  13.399  0.00  0.00     0.001 A 
HETATM   18  C   UNK N   1      35.015  13.578  12.394  0.00  0.00     0.014 A 
ENDBRANCH   7  13
BRANCH   3  19
HETATM   19  C   UNK N   1      33.580  12.411   8.886  0.00  0.00     0.206 C 
BRANCH  19  20
HETATM   20  O   UNK N   1      32.288  12.183   9.357  0.00  0.00    -0.396 OA
HETATM   21  H   UNK N   1      31.659  11.924  10.049  0.00  0.00     0.209 HD
ENDBRANCH  19  20
ENDBRANCH   3  19
BRANCH   4  22
HETATM   22  N   UNK N   1      31.369  16.321   5.385  0.00  0.00    -0.273 NA
HETATM   23  C   UNK N   1      31.113  17.490   4.667  0.00  0.00     0.115 A 
HETATM   24  C   UNK N   1      31.549  16.055   4.018  0.00  0.00     0.072 A 
HETATM   25  C   UNK N   1      33.001  15.969   3.575  0.00  0.00     0.028 C 
ENDBRANCH   4  22
TORSDOF 4
ENDMDL
MODEL 7
REMARK VINA RESULT:      -6.2      4.667     10.119
REMARK  4 active torsions:
REMARK  status: ('A' for Active; 'I' for Inactive)
REMARK    1  A    between atoms: C_13  and  C_10 
REMARK    2  A    between atoms: O_22  and  C_10 
REMARK    3  A    between atoms: C_17  and  C_12 
REMARK    4  A    between atoms: N_21  and  C_14 
ROOT
HETATM    1  C   UNK N   1      34.285  10.922  10.580  0.00  0.00     0.156 C 
HETATM    2  C   UNK N   1      33.059  13.953   7.367  0.00  0.00     0.085 A 
HETATM    3  C   UNK N   1      35.237  14.447  10.968  0.00  0.00     0.010 A 
HETATM    4  C   UNK N   1      33.458  15.231   7.597  0.00  0.00     0.066 A 
HETATM    5  C   UNK N   1      33.378  12.848   8.311  0.00  0.00     0.201 A 
HETATM    6  C   UNK N   1      34.557  14.454   9.767  0.00  0.00     0.057 A 
HETATM    7  C   UNK N   1      35.219  13.121  11.425  0.00  0.00     0.054 A 
HETATM    8  C   UNK N   1      34.147  13.176   9.526  0.00  0.00     0.100 A 
HETATM    9  C   UNK N   1      34.270  15.547   8.822  0.00  0.00     0.206 A 
HETATM   10  N   UNK N   1      34.546  12.353  10.520  0.00  0.00    -0.346 N 
HETATM   11  O   UNK N   1      33.015  11.708   8.074  0.00  0.00    -0.286 OA
HETATM   12  O   UNK N   1      34.705  16.669   9.022  0.00  0.00    -0.285 OA
ENDROOT
BRANCH   7  13
HETATM   13  C   UNK N   1      35.824  12.616  12.698  0.00  0.00    -0.009 A 
HETATM   14  C   UNK N   1      35.131  12.711  13.915  0.00  0.00     0.014 A 
HETATM   15  C   UNK N   1      35.702  12.244  15.103  0.00  0.00     0.001 A 
HETATM   16  C   UNK N   1      36.976  11.673  15.087  0.00  0.00     0.000 A 
HETATM   17  C   UNK N   1      37.679  11.573  13.886  0.00  0.00     0.001 A 
HETATM   18  C   UNK N   1      37.106  12.044  12.701  0.00  0.00     0.014 A 
ENDBRANCH   7  13
BRANCH   3  19
HETATM   19  C   UNK N   1      35.842  15.655  11.612  0.00  0.00     0.206 C 
BRANCH  19  20
HETATM   20  O   UNK N   1      36.972  16.062  10.906  0.00  0.00    -0.396 OA
HETATM   21  H   UNK N   1      37.563  16.744  10.549  0.00  0.00     0.209 HD
ENDBRANCH  19  20
ENDBRANCH   3  19
BRANCH   4  22
HETATM   22  N   UNK N   1      33.185  16.227   6.608  0.00  0.00    -0.273 NA
HETATM   23  C   UNK N   1      32.348  16.042   5.506  0.00  0.00     0.115 A 
HETATM   24  C   UNK N   1      32.219  17.247   6.605  0.00  0.00     0.072 A 
HETATM   25  C   UNK N   1      31.105  17.066   7.622  0.00  0.00     0.028 C 
ENDBRANCH   4  22
TORSDOF 4
ENDMDL
MODEL 8
REMARK VINA RESULT:      -6.1      1.422      6.928
REMARK  4 active torsions:
REMARK  status: ('A' for Active; 'I' for Inactive)
REMARK    1  A    between atoms: C_13  and  C_10 
REMARK    2  A    between atoms: O_22  and  C_10 
REMARK    3  A    between atoms: C_17  and  C_12 
REMARK    4  A    between atoms: N_21  and  C_14 
ROOT
HETATM    1  C   UNK N   1      32.085  15.841   5.434  0.00  0.00     0.156 C 
HETATM    2  C   UNK N   1      28.147  17.854   4.231  0.00  0.00     0.085 A 
HETATM    3  C   UNK N   1      30.222  17.791   7.925  0.00  0.00     0.010 A 
HETATM    4  C   UNK N   1      27.532  18.554   5.219  0.00  0.00     0.066 A 
HETATM    5  C   UNK N   1      29.435  17.144   4.456  0.00  0.00     0.201 A 
HETATM    6  C   UNK N   1      29.433  17.917   6.799  0.00  0.00     0.057 A 
HETATM    7  C   UNK N   1      31.315  16.995   7.554  0.00  0.00     0.054 A 
HETATM    8  C   UNK N   1      30.038  17.214   5.799  0.00  0.00     0.100 A 
HETATM    9  C   UNK N   1      28.173  18.647   6.575  0.00  0.00     0.206 A 
HETATM   10  N   UNK N   1      31.185  16.653   6.240  0.00  0.00    -0.346 N 
HETATM   11  O   UNK N   1      29.970  16.531   3.547  0.00  0.00    -0.286 OA
HETATM   12  O   UNK N   1      27.684  19.326   7.463  0.00  0.00    -0.285 OA
ENDROOT
BRANCH   7  13
HETATM   13  C   UNK N   1      32.442  16.571   8.445  0.00  0.00    -0.009 A 
HETATM   14  C   UNK N   1      33.565  17.392   8.630  0.00  0.00     0.014 A 
HETATM   15  C   UNK N   1      34.617  16.990   9.458  0.00  0.00     0.001 A 
HETATM   16  C   UNK N   1      34.559  15.759  10.114  0.00  0.00     0.000 A 
HETATM   17  C   UNK N   1      33.450  14.930   9.939  0.00  0.00     0.001 A 
HETATM   18  C   UNK N   1      32.401  15.334   9.108  0.00  0.00     0.014 A 
ENDBRANCH   7  13
BRANCH   3  19
HETATM   19  C   UNK N   1      29.910  18.399   9.256  0.00  0.00     0.206 C 
BRANCH  19  20
HETATM   20  O   UNK N   1      29.626  17.401  10.186  0.00  0.00    -0.396 OA
HETATM   21  H   UNK N   1      29.593  16.473  10.468  0.00  0.00     0.209 HD
ENDBRANCH  19  20
ENDBRANCH   3  19
BRANCH   4  22
HETATM   22  N   UNK N   1      26.337  19.278   4.910  0.00  0.00    -0.273 NA
HETATM   23  C   UNK N   1      25.808  19.424   3.627  0.00  0.00     0.115 A 
HETATM   24  C   UNK N   1      25.000  18.849   4.927  0.00  0.00     0.072 A 
HETATM   25  C   UNK N   1      24.819  17.341   4.949  0.00  0.00     0.028 C 
ENDBRANCH   4  22
TORSDOF 4
ENDMDL
MODEL 9
REMARK VINA RESULT:      -6.1     12.648     14.811
REMARK  4 active torsions:
REMARK  status: ('A' for Active; 'I' for Inactive)
REMARK    1  A    between atoms: C_13  and  C_10 
REMARK    2  A    between atoms: O_22  and  C_10 
REMARK    3  A    between atoms: C_17  and  C_12 
REMARK    4  A    between atoms: N_21  and  C_14 
ROOT
HETATM    1  C   UNK N   1      30.834  21.909  -5.537  0.00  0.00     0.156 C 
HETATM    2  C   UNK N   1      28.047  25.171  -3.922  0.00  0.00     0.085 A 
HETATM    3  C   UNK N   1      27.571  22.447  -7.133  0.00  0.00     0.010 A 
HETATM    4  C   UNK N   1      26.863  25.293  -4.576  0.00  0.00     0.066 A 
HETATM    5  C   UNK N   1      29.063  24.158  -4.319  0.00  0.00     0.201 A 
HETATM    6  C   UNK N   1      27.566  23.387  -6.122  0.00  0.00     0.057 A 
HETATM    7  C   UNK N   1      28.799  21.775  -7.041  0.00  0.00     0.054 A 
HETATM    8  C   UNK N   1      28.752  23.278  -5.460  0.00  0.00     0.100 A 
HETATM    9  C   UNK N   1      26.543  24.367  -5.716  0.00  0.00     0.206 A 
HETATM   10  N   UNK N   1      29.510  22.299  -6.002  0.00  0.00    -0.346 N 
HETATM   11  O   UNK N   1      30.114  24.064  -3.708  0.00  0.00    -0.286 OA
HETATM   12  O   UNK N   1      25.461  24.403  -6.277  0.00  0.00    -0.285 OA
ENDROOT
BRANCH   7  13
HETATM   13  C   UNK N   1      29.271  20.671  -7.935  0.00  0.00    -0.009 A 
HETATM   14  C   UNK N   1      29.698  20.935  -9.246  0.00  0.00     0.014 A 
HETATM   15  C   UNK N   1      30.134  19.900 -10.079  0.00  0.00     0.001 A 
HETATM   16  C   UNK N   1      30.147  18.585  -9.610  0.00  0.00     0.000 A 
HETATM   17  C   UNK N   1      29.724  18.306  -8.310  0.00  0.00     0.001 A 
HETATM   18  C   UNK N   1      29.287  19.343  -7.480  0.00  0.00     0.014 A 
ENDBRANCH   7  13
BRANCH   3  19
HETATM   19  C   UNK N   1      26.458  22.242  -8.112  0.00  0.00     0.206 C 
BRANCH  19  20
HETATM   20  O   UNK N   1      25.373  21.631  -7.487  0.00  0.00    -0.396 OA
HETATM   21  H   UNK N   1      24.437  21.378  -7.443  0.00  0.00     0.209 HD
ENDBRANCH  19  20
ENDBRANCH   3  19
BRANCH   4  22
HETATM   22  N   UNK N   1      25.901  26.234  -4.089  0.00  0.00    -0.273 NA
HETATM   23  C   UNK N   1      26.166  27.217  -3.135  0.00  0.00     0.115 A 
HETATM   24  C   UNK N   1      25.521  27.480  -4.614  0.00  0.00     0.072 A 
HETATM   25  C   UNK N   1      26.486  28.056  -5.637  0.00  0.00     0.028 C 
ENDBRANCH   4  22
TORSDOF 4
ENDMDL
