MODEL 1
REMARK VINA RESULT:      -8.1      0.000      0.000
REMARK  5 active torsions:
REMARK  status: ('A' for Active; 'I' for Inactive)
REMARK    1  A    between atoms: C_15  and  C_5 
REMARK    2  A    between atoms: O_29  and  C_16 
REMARK    3  A    between atoms: N_23  and  C_18 
REMARK    4  A    between atoms: O_27  and  C_21 
REMARK    5  A    between atoms: O_29  and  C_21 
ROOT
HETATM    1  C   UNK N   1      32.472  15.562   8.958  0.00  0.00     0.025 C 
HETATM    2  C   UNK N   1      36.071  14.454   6.386  0.00  0.00     0.152 C 
HETATM    3  C   UNK N   1      32.666  15.592   5.895  0.00  0.00     0.359 C 
HETATM    4  C   UNK N   1      36.862  14.214  10.743  0.00  0.00     0.039 A 
HETATM    5  C   UNK N   1      36.659  14.131   9.366  0.00  0.00     0.033 A 
HETATM    6  C   UNK N   1      33.446  17.790   8.408  0.00  0.00     0.055 C 
HETATM    7  C   UNK N   1      32.982  17.712   6.903  0.00  0.00     0.315 C 
HETATM    8  C   UNK N   1      35.025  15.808  10.978  0.00  0.00     0.047 A 
HETATM    9  C   UNK N   1      36.060  15.051  11.565  0.00  0.00     0.080 A 
HETATM   10  C   UNK N   1      34.849  15.734   9.591  0.00  0.00    -0.016 A 
HETATM   11  C   UNK N   1      35.640  14.891   8.819  0.00  0.00     0.039 A 
HETATM   12  C   UNK N   1      34.394  16.070   7.399  0.00  0.00     0.369 C 
HETATM   13  C   UNK N   1      33.762  16.345   8.730  0.00  0.00     0.042 C 
HETATM   14  N   UNK N   1      35.274  14.955   7.474  0.00  0.00    -0.349 N 
HETATM   15  N   UNK N   1      33.649  16.565   6.299  0.00  0.00     0.032 N 
HETATM   16  O   UNK N   1      34.346  16.880   5.383  0.00  0.00    -0.063 OA
ENDROOT
BRANCH   9  17
HETATM   17  O   UNK N   1      36.252  15.092  12.915  0.00  0.00    -0.274 OA
BRANCH  17  18
HETATM   18  C   UNK N   1      35.902  14.075  13.751  0.00  0.00     0.268 C 
HETATM   19  N   UNK N   1      36.651  13.786  14.765  0.00  0.00    -0.316 N 
ATOM     20  HN  UNK N   1      37.544  14.272  14.855  1.00  0.00     0.170 HD
BRANCH  19  21
HETATM   21  C   UNK N   1      36.302  12.827  15.768  0.00  0.00     0.042 A 
HETATM   22  C   UNK N   1      35.544  13.231  16.887  0.00  0.00     0.030 A 
HETATM   23  C   UNK N   1      35.207  12.336  17.896  0.00  0.00     0.002 A 
HETATM   24  C   UNK N   1      35.627  11.014  17.813  0.00  0.00     0.001 A 
HETATM   25  C   UNK N   1      36.390  10.591  16.724  0.00  0.00     0.009 A 
HETATM   26  C   UNK N   1      36.744  11.476  15.695  0.00  0.00    -0.032 A 
BRANCH  26  27
HETATM   27  C   UNK N   1      37.568  10.885  14.574  0.00  0.00     0.036 C 
HETATM   28  C   UNK N   1      38.296   9.580  14.840  0.00  0.00     0.010 C 
ENDBRANCH  26  27
ENDBRANCH  19  21
BRANCH  18  29
HETATM   29  O   UNK N   1      34.782  13.358  13.507  0.00  0.00    -0.326 OA
HETATM   30  H   UNK N   1      34.686  12.529  13.083  0.00  0.00     0.221 HD
ENDBRANCH  18  29
ENDBRANCH  17  18
ENDBRANCH   9  17
TORSDOF 5
ENDMDL
MODEL 2
REMARK VINA RESULT:      -8.1      1.471      1.607
REMARK  5 active torsions:
REMARK  status: ('A' for Active; 'I' for Inactive)
REMARK    1  A    between atoms: C_15  and  C_5 
REMARK    2  A    between atoms: O_29  and  C_16 
REMARK    3  A    between atoms: N_23  and  C_18 
REMARK    4  A    between atoms: O_27  and  C_21 
REMARK    5  A    between atoms: O_29  and  C_21 
ROOT
HETATM    1  C   UNK N   1      32.996  15.588   9.395  0.00  0.00     0.025 C 
HETATM    2  C   UNK N   1      36.340  13.283   7.321  0.00  0.00     0.152 C 
HETATM    3  C   UNK N   1      33.340  15.089   6.387  0.00  0.00     0.359 C 
HETATM    4  C   UNK N   1      36.836  13.557  11.720  0.00  0.00     0.039 A 
HETATM    5  C   UNK N   1      36.687  13.307  10.356  0.00  0.00     0.033 A 
HETATM    6  C   UNK N   1      34.507  17.414   8.620  0.00  0.00     0.055 C 
HETATM    7  C   UNK N   1      34.111  17.209   7.108  0.00  0.00     0.315 C 
HETATM    8  C   UNK N   1      35.431  15.551  11.570  0.00  0.00     0.047 A 
HETATM    9  C   UNK N   1      36.221  14.676  12.344  0.00  0.00     0.080 A 
HETATM   10  C   UNK N   1      35.310  15.301  10.198  0.00  0.00    -0.016 A 
HETATM   11  C   UNK N   1      35.910  14.187   9.623  0.00  0.00     0.039 A 
HETATM   12  C   UNK N   1      35.057  15.384   7.949  0.00  0.00     0.369 C 
HETATM   13  C   UNK N   1      34.447  16.004   9.169  0.00  0.00     0.042 C 
HETATM   14  N   UNK N   1      35.636  14.121   8.256  0.00  0.00    -0.349 N 
HETATM   15  N   UNK N   1      34.509  15.858   6.731  0.00  0.00     0.032 N 
HETATM   16  O   UNK N   1      35.305  15.855   5.842  0.00  0.00    -0.063 OA
ENDROOT
BRANCH   9  17
HETATM   17  O   UNK N   1      36.352  14.884  13.685  0.00  0.00    -0.274 OA
BRANCH  17  18
HETATM   18  C   UNK N   1      36.399  13.873  14.597  0.00  0.00     0.268 C 
HETATM   19  N   UNK N   1      35.301  13.370  15.061  0.00  0.00    -0.316 N 
ATOM     20  HN  UNK N   1      34.422  13.817  14.802  1.00  0.00     0.170 HD
BRANCH  19  21
HETATM   21  C   UNK N   1      35.247  12.224  15.918  0.00  0.00     0.042 A 
HETATM   22  C   UNK N   1      35.252  12.398  17.317  0.00  0.00     0.030 A 
HETATM   23  C   UNK N   1      35.228  11.309  18.183  0.00  0.00     0.002 A 
HETATM   24  C   UNK N   1      35.205  10.020  17.668  0.00  0.00     0.001 A 
HETATM   25  C   UNK N   1      35.214   9.820  16.287  0.00  0.00     0.009 A 
HETATM   26  C   UNK N   1      35.240  10.901  15.394  0.00  0.00    -0.032 A 
BRANCH  26  27
HETATM   27  C   UNK N   1      35.243  10.542  13.926  0.00  0.00     0.036 C 
HETATM   28  C   UNK N   1      33.906  10.472  13.210  0.00  0.00     0.010 C 
ENDBRANCH  26  27
ENDBRANCH  19  21
BRANCH  18  29
HETATM   29  O   UNK N   1      37.594  13.409  15.026  0.00  0.00    -0.326 OA
HETATM   30  H   UNK N   1      37.845  13.109  15.877  0.00  0.00     0.221 HD
ENDBRANCH  18  29
ENDBRANCH  17  18
ENDBRANCH   9  17
TORSDOF 5
ENDMDL
MODEL 3
REMARK VINA RESULT:      -8.0      0.624      1.846
REMARK  5 active torsions:
REMARK  status: ('A' for Active; 'I' for Inactive)
REMARK    1  A    between atoms: C_15  and  C_5 
REMARK    2  A    between atoms: O_29  and  C_16 
REMARK    3  A    between atoms: N_23  and  C_18 
REMARK    4  A    between atoms: O_27  and  C_21 
REMARK    5  A    between atoms: O_29  and  C_21 
ROOT
HETATM    1  C   UNK N   1      32.346  15.211   8.891  0.00  0.00     0.025 C 
HETATM    2  C   UNK N   1      36.155  14.587   6.462  0.00  0.00     0.152 C 
HETATM    3  C   UNK N   1      32.707  15.524   5.859  0.00  0.00     0.359 C 
HETATM    4  C   UNK N   1      36.718  14.019  10.824  0.00  0.00     0.039 A 
HETATM    5  C   UNK N   1      36.599  14.044   9.435  0.00  0.00     0.033 A 
HETATM    6  C   UNK N   1      33.180  17.541   8.592  0.00  0.00     0.055 C 
HETATM    7  C   UNK N   1      32.807  17.564   7.060  0.00  0.00     0.315 C 
HETATM    8  C   UNK N   1      34.757  15.455  11.078  0.00  0.00     0.047 A 
HETATM    9  C   UNK N   1      35.812  14.722  11.662  0.00  0.00     0.080 A 
HETATM   10  C   UNK N   1      34.665  15.491   9.682  0.00  0.00    -0.016 A 
HETATM   11  C   UNK N   1      35.558  14.776   8.892  0.00  0.00     0.039 A 
HETATM   12  C   UNK N   1      34.308  15.987   7.502  0.00  0.00     0.369 C 
HETATM   13  C   UNK N   1      33.585  16.098   8.809  0.00  0.00     0.042 C 
HETATM   14  N   UNK N   1      35.263  14.934   7.537  0.00  0.00    -0.349 N 
HETATM   15  N   UNK N   1      33.591  16.524   6.404  0.00  0.00     0.032 N 
HETATM   16  O   UNK N   1      34.312  16.967   5.562  0.00  0.00    -0.063 OA
ENDROOT
BRANCH   9  17
HETATM   17  O   UNK N   1      35.925  14.657  13.020  0.00  0.00    -0.274 OA
BRANCH  17  18
HETATM   18  C   UNK N   1      35.758  13.506  13.729  0.00  0.00     0.268 C 
HETATM   19  N   UNK N   1      36.636  13.160  14.614  0.00  0.00    -0.316 N 
ATOM     20  HN  UNK N   1      37.488  13.716  14.686  1.00  0.00     0.170 HD
BRANCH  19  21
HETATM   21  C   UNK N   1      36.482  12.044  15.497  0.00  0.00     0.042 A 
HETATM   22  C   UNK N   1      37.116  10.821  15.193  0.00  0.00     0.030 A 
HETATM   23  C   UNK N   1      36.970   9.706  16.011  0.00  0.00     0.002 A 
HETATM   24  C   UNK N   1      36.179   9.787  17.151  0.00  0.00     0.001 A 
HETATM   25  C   UNK N   1      35.530  10.980  17.467  0.00  0.00     0.009 A 
HETATM   26  C   UNK N   1      35.661  12.118  16.657  0.00  0.00    -0.032 A 
BRANCH  26  27
HETATM   27  C   UNK N   1      34.908  13.344  17.118  0.00  0.00     0.036 C 
HETATM   28  C   UNK N   1      35.217  13.888  18.501  0.00  0.00     0.010 C 
ENDBRANCH  26  27
ENDBRANCH  19  21
BRANCH  18  29
HETATM   29  O   UNK N   1      34.683  12.721  13.494  0.00  0.00    -0.326 OA
HETATM   30  H   UNK N   1      33.961  12.517  14.055  0.00  0.00     0.221 HD
ENDBRANCH  18  29
ENDBRANCH  17  18
ENDBRANCH   9  17
TORSDOF 5
ENDMDL
MODEL 4
REMARK VINA RESULT:      -7.7      2.411      4.231
REMARK  5 active torsions:
REMARK  status: ('A' for Active; 'I' for Inactive)
REMARK    1  A    between atoms: C_15  and  C_5 
REMARK    2  A    between atoms: O_29  and  C_16 
REMARK    3  A    between atoms: N_23  and  C_18 
REMARK    4  A    between atoms: O_27  and  C_21 
REMARK    5  A    between atoms: O_29  and  C_21 
ROOT
HETATM    1  C   UNK N   1      35.880  14.302   5.659  0.00  0.00     0.025 C 
HETATM    2  C   UNK N   1      32.784  17.290   4.148  0.00  0.00     0.152 C 
HETATM    3  C   UNK N   1      34.422  14.285   2.958  0.00  0.00     0.359 C 
HETATM    4  C   UNK N   1      34.195  18.125   8.270  0.00  0.00     0.039 A 
HETATM    5  C   UNK N   1      33.801  18.015   6.937  0.00  0.00     0.033 A 
HETATM    6  C   UNK N   1      33.730  13.122   6.109  0.00  0.00     0.055 C 
HETATM    7  C   UNK N   1      33.469  12.844   4.579  0.00  0.00     0.315 C 
HETATM    8  C   UNK N   1      34.758  15.748   8.361  0.00  0.00     0.047 A 
HETATM    9  C   UNK N   1      34.670  17.002   9.001  0.00  0.00     0.080 A 
HETATM   10  C   UNK N   1      34.336  15.648   7.030  0.00  0.00    -0.016 A 
HETATM   11  C   UNK N   1      33.893  16.771   6.339  0.00  0.00     0.039 A 
HETATM   12  C   UNK N   1      33.551  15.023   5.001  0.00  0.00     0.369 C 
HETATM   13  C   UNK N   1      34.424  14.468   6.084  0.00  0.00     0.042 C 
HETATM   14  N   UNK N   1      33.551  16.446   5.026  0.00  0.00    -0.349 N 
HETATM   15  N   UNK N   1      33.353  14.136   3.913  0.00  0.00     0.032 N 
HETATM   16  O   UNK N   1      32.288  14.281   3.395  0.00  0.00    -0.063 OA
ENDROOT
BRANCH   9  17
HETATM   17  O   UNK N   1      35.082  17.137  10.293  0.00  0.00    -0.274 OA
BRANCH  17  18
HETATM   18  C   UNK N   1      35.735  16.155  10.976  0.00  0.00     0.268 C 
HETATM   19  N   UNK N   1      35.066  15.324  11.708  0.00  0.00    -0.316 N 
ATOM     20  HN  UNK N   1      34.067  15.491  11.832  1.00  0.00     0.170 HD
BRANCH  19  21
HETATM   21  C   UNK N   1      35.645  14.185  12.354  0.00  0.00     0.042 A 
HETATM   22  C   UNK N   1      36.143  14.305  13.668  0.00  0.00     0.030 A 
HETATM   23  C   UNK N   1      36.737  13.229  14.320  0.00  0.00     0.002 A 
HETATM   24  C   UNK N   1      36.851  12.008  13.669  0.00  0.00     0.001 A 
HETATM   25  C   UNK N   1      36.379  11.865  12.364  0.00  0.00     0.009 A 
HETATM   26  C   UNK N   1      35.779  12.936  11.685  0.00  0.00    -0.032 A 
BRANCH  26  27
HETATM   27  C   UNK N   1      35.308  12.643  10.279  0.00  0.00     0.036 C 
HETATM   28  C   UNK N   1      36.355  12.569   9.181  0.00  0.00     0.010 C 
ENDBRANCH  26  27
ENDBRANCH  19  21
BRANCH  18  29
HETATM   29  O   UNK N   1      37.081  16.062  10.899  0.00  0.00    -0.326 OA
HETATM   30  H   UNK N   1      37.610  15.465  10.408  0.00  0.00     0.221 HD
ENDBRANCH  18  29
ENDBRANCH  17  18
ENDBRANCH   9  17
TORSDOF 5
ENDMDL
MODEL 5
REMARK VINA RESULT:      -7.4      1.271      2.184
REMARK  5 active torsions:
REMARK  status: ('A' for Active; 'I' for Inactive)
REMARK    1  A    between atoms: C_15  and  C_5 
REMARK    2  A    between atoms: O_29  and  C_16 
REMARK    3  A    between atoms: N_23  and  C_18 
REMARK    4  A    between atoms: O_27  and  C_21 
REMARK    5  A    between atoms: O_29  and  C_21 
ROOT
HETATM    1  C   UNK N   1      35.684  14.128   6.719  0.00  0.00     0.025 C 
HETATM    2  C   UNK N   1      33.590  17.977   7.983  0.00  0.00     0.152 C 
HETATM    3  C   UNK N   1      33.835  15.898   5.025  0.00  0.00     0.359 C 
HETATM    4  C   UNK N   1      35.941  16.085  11.233  0.00  0.00     0.039 A 
HETATM    5  C   UNK N   1      35.293  16.815  10.237  0.00  0.00     0.033 A 
HETATM    6  C   UNK N   1      33.382  13.336   7.257  0.00  0.00     0.055 C 
HETATM    7  C   UNK N   1      32.762  14.013   5.976  0.00  0.00     0.315 C 
HETATM    8  C   UNK N   1      35.654  14.006   9.980  0.00  0.00     0.047 A 
HETATM    9  C   UNK N   1      36.125  14.680  11.126  0.00  0.00     0.080 A 
HETATM   10  C   UNK N   1      34.984  14.748   9.000  0.00  0.00    -0.016 A 
HETATM   11  C   UNK N   1      34.836  16.124   9.128  0.00  0.00     0.039 A 
HETATM   12  C   UNK N   1      33.669  15.524   7.329  0.00  0.00     0.369 C 
HETATM   13  C   UNK N   1      34.481  14.304   7.641  0.00  0.00     0.042 C 
HETATM   14  N   UNK N   1      34.166  16.659   8.027  0.00  0.00    -0.349 N 
HETATM   15  N   UNK N   1      32.978  15.450   6.093  0.00  0.00     0.032 N 
HETATM   16  O   UNK N   1      31.953  16.060   6.108  0.00  0.00    -0.063 OA
ENDROOT
BRANCH   9  17
HETATM   17  O   UNK N   1      36.791  13.990  12.095  0.00  0.00    -0.274 OA
BRANCH  17  18
HETATM   18  C   UNK N   1      36.182  13.482  13.204  0.00  0.00     0.268 C 
HETATM   19  N   UNK N   1      36.893  13.118  14.221  0.00  0.00    -0.316 N 
ATOM     20  HN  UNK N   1      37.909  13.130  14.125  1.00  0.00     0.170 HD
BRANCH  19  21
HETATM   21  C   UNK N   1      36.340  12.699  15.473  0.00  0.00     0.042 A 
HETATM   22  C   UNK N   1      35.792  13.658  16.350  0.00  0.00     0.030 A 
HETATM   23  C   UNK N   1      35.270  13.295  17.587  0.00  0.00     0.002 A 
HETATM   24  C   UNK N   1      35.288  11.962  17.978  0.00  0.00     0.001 A 
HETATM   25  C   UNK N   1      35.837  10.995  17.135  0.00  0.00     0.009 A 
HETATM   26  C   UNK N   1      36.371  11.336  15.884  0.00  0.00    -0.032 A 
BRANCH  26  27
HETATM   27  C   UNK N   1      36.928  10.191  15.071  0.00  0.00     0.036 C 
HETATM   28  C   UNK N   1      36.029   9.561  14.023  0.00  0.00     0.010 C 
ENDBRANCH  26  27
ENDBRANCH  19  21
BRANCH  18  29
HETATM   29  O   UNK N   1      34.838  13.345  13.230  0.00  0.00    -0.326 OA
HETATM   30  H   UNK N   1      34.319  12.566  13.248  0.00  0.00     0.221 HD
ENDBRANCH  18  29
ENDBRANCH  17  18
ENDBRANCH   9  17
TORSDOF 5
ENDMDL
MODEL 6
REMARK VINA RESULT:      -7.3      2.287      3.196
REMARK  5 active torsions:
REMARK  status: ('A' for Active; 'I' for Inactive)
REMARK    1  A    between atoms: C_15  and  C_5 
REMARK    2  A    between atoms: O_29  and  C_16 
REMARK    3  A    between atoms: N_23  and  C_18 
REMARK    4  A    between atoms: O_27  and  C_21 
REMARK    5  A    between atoms: O_29  and  C_21 
ROOT
HETATM    1  C   UNK N   1      36.232  12.031   8.838  0.00  0.00     0.025 C 
HETATM    2  C   UNK N   1      33.719  15.636   7.620  0.00  0.00     0.152 C 
HETATM    3  C   UNK N   1      34.627  12.407   6.250  0.00  0.00     0.359 C 
HETATM    4  C   UNK N   1      35.538  16.019  11.647  0.00  0.00     0.039 A 
HETATM    5  C   UNK N   1      35.043  16.040  10.343  0.00  0.00     0.033 A 
HETATM    6  C   UNK N   1      33.921  11.295   9.415  0.00  0.00     0.055 C 
HETATM    7  C   UNK N   1      33.508  11.131   7.902  0.00  0.00     0.315 C 
HETATM    8  C   UNK N   1      35.608  13.576  11.646  0.00  0.00     0.047 A 
HETATM    9  C   UNK N   1      35.820  14.798  12.317  0.00  0.00     0.080 A 
HETATM   10  C   UNK N   1      35.089  13.612  10.346  0.00  0.00    -0.016 A 
HETATM   11  C   UNK N   1      34.840  14.824   9.714  0.00  0.00     0.039 A 
HETATM   12  C   UNK N   1      34.061  13.232   8.365  0.00  0.00     0.369 C 
HETATM   13  C   UNK N   1      34.871  12.473   9.370  0.00  0.00     0.042 C 
HETATM   14  N   UNK N   1      34.353  14.623   8.421  0.00  0.00    -0.349 N 
HETATM   15  N   UNK N   1      33.615  12.443   7.275  0.00  0.00     0.032 N 
HETATM   16  O   UNK N   1      32.571  12.819   6.838  0.00  0.00    -0.063 OA
ENDROOT
BRANCH   9  17
HETATM   17  O   UNK N   1      36.336  14.800  13.580  0.00  0.00    -0.274 OA
BRANCH  17  18
HETATM   18  C   UNK N   1      36.315  13.710  14.397  0.00  0.00     0.268 C 
HETATM   19  N   UNK N   1      35.247  13.428  15.070  0.00  0.00    -0.316 N 
ATOM     20  HN  UNK N   1      34.474  14.094  15.045  1.00  0.00     0.170 HD
BRANCH  19  21
HETATM   21  C   UNK N   1      35.085  12.238  15.849  0.00  0.00     0.042 A 
HETATM   22  C   UNK N   1      35.493  12.225  17.199  0.00  0.00     0.030 A 
HETATM   23  C   UNK N   1      35.378  11.081  17.981  0.00  0.00     0.002 A 
HETATM   24  C   UNK N   1      34.856   9.918  17.428  0.00  0.00     0.001 A 
HETATM   25  C   UNK N   1      34.458   9.899  16.091  0.00  0.00     0.009 A 
HETATM   26  C   UNK N   1      34.566  11.040  15.282  0.00  0.00    -0.032 A 
BRANCH  26  27
HETATM   27  C   UNK N   1      34.094  10.881  13.855  0.00  0.00     0.036 C 
HETATM   28  C   UNK N   1      34.987  10.120  12.892  0.00  0.00     0.010 C 
ENDBRANCH  26  27
ENDBRANCH  19  21
BRANCH  18  29
HETATM   29  O   UNK N   1      37.417  12.936  14.514  0.00  0.00    -0.326 OA
HETATM   30  H   UNK N   1      37.877  12.667  15.285  0.00  0.00     0.221 HD
ENDBRANCH  18  29
ENDBRANCH  17  18
ENDBRANCH   9  17
TORSDOF 5
ENDMDL
MODEL 7
REMARK VINA RESULT:      -7.3     17.289     20.552
REMARK  5 active torsions:
REMARK  status: ('A' for Active; 'I' for Inactive)
REMARK    1  A    between atoms: C_15  and  C_5 
REMARK    2  A    between atoms: O_29  and  C_16 
REMARK    3  A    between atoms: N_23  and  C_18 
REMARK    4  A    between atoms: O_27  and  C_21 
REMARK    5  A    between atoms: O_29  and  C_21 
ROOT
HETATM    1  C   UNK N   1      34.222  22.366  -4.967  0.00  0.00     0.025 C 
HETATM    2  C   UNK N   1      31.750  19.743  -7.762  0.00  0.00     0.152 C 
HETATM    3  C   UNK N   1      35.249  20.323  -7.015  0.00  0.00     0.359 C 
HETATM    4  C   UNK N   1      29.297  22.273  -5.068  0.00  0.00     0.039 A 
HETATM    5  C   UNK N   1      29.988  21.549  -6.040  0.00  0.00     0.033 A 
HETATM    6  C   UNK N   1      34.180  20.185  -3.760  0.00  0.00     0.055 C 
HETATM    7  C   UNK N   1      35.152  19.501  -4.795  0.00  0.00     0.315 C 
HETATM    8  C   UNK N   1      31.256  22.295  -3.606  0.00  0.00     0.047 A 
HETATM    9  C   UNK N   1      29.911  22.650  -3.843  0.00  0.00     0.080 A 
HETATM   10  C   UNK N   1      31.929  21.548  -4.580  0.00  0.00    -0.016 A 
HETATM   11  C   UNK N   1      31.303  21.211  -5.775  0.00  0.00     0.039 A 
HETATM   12  C   UNK N   1      33.271  20.169  -5.772  0.00  0.00     0.369 C 
HETATM   13  C   UNK N   1      33.386  21.134  -4.633  0.00  0.00     0.042 C 
HETATM   14  N   UNK N   1      32.165  20.493  -6.605  0.00  0.00    -0.349 N 
HETATM   15  N   UNK N   1      34.488  19.516  -6.094  0.00  0.00     0.032 N 
HETATM   16  O   UNK N   1      34.315  18.417  -6.524  0.00  0.00    -0.063 OA
ENDROOT
BRANCH   9  17
HETATM   17  O   UNK N   1      29.229  23.386  -2.920  0.00  0.00    -0.274 OA
BRANCH  17  18
HETATM   18  C   UNK N   1      28.124  24.123  -3.221  0.00  0.00     0.268 C 
HETATM   19  N   UNK N   1      28.227  25.156  -3.993  0.00  0.00    -0.316 N 
ATOM     20  HN  UNK N   1      29.161  25.450  -4.279  1.00  0.00     0.170 HD
BRANCH  19  21
HETATM   21  C   UNK N   1      27.108  25.911  -4.470  0.00  0.00     0.042 A 
HETATM   22  C   UNK N   1      26.670  27.042  -3.749  0.00  0.00     0.030 A 
HETATM   23  C   UNK N   1      25.571  27.785  -4.165  0.00  0.00     0.002 A 
HETATM   24  C   UNK N   1      24.878  27.411  -5.310  0.00  0.00     0.001 A 
HETATM   25  C   UNK N   1      25.282  26.288  -6.033  0.00  0.00     0.009 A 
HETATM   26  C   UNK N   1      26.386  25.521  -5.634  0.00  0.00    -0.032 A 
BRANCH  26  27
HETATM   27  C   UNK N   1      26.716  24.336  -6.510  0.00  0.00     0.036 C 
HETATM   28  C   UNK N   1      25.874  23.082  -6.354  0.00  0.00     0.010 C 
ENDBRANCH  26  27
ENDBRANCH  19  21
BRANCH  18  29
HETATM   29  O   UNK N   1      26.925  23.782  -2.697  0.00  0.00    -0.326 OA
HETATM   30  H   UNK N   1      26.596  23.912  -1.830  0.00  0.00     0.221 HD
ENDBRANCH  18  29
ENDBRANCH  17  18
ENDBRANCH   9  17
TORSDOF 5
ENDMDL
MODEL 8
REMARK VINA RESULT:      -7.2      2.173      3.170
REMARK  5 active torsions:
REMARK  status: ('A' for Active; 'I' for Inactive)
REMARK    1  A    between atoms: C_15  and  C_5 
REMARK    2  A    between atoms: O_29  and  C_16 
REMARK    3  A    between atoms: N_23  and  C_18 
REMARK    4  A    between atoms: O_27  and  C_21 
REMARK    5  A    between atoms: O_29  and  C_21 
ROOT
HETATM    1  C   UNK N   1      31.723  15.688   6.344  0.00  0.00     0.025 C 
HETATM    2  C   UNK N   1      34.837  13.473   3.854  0.00  0.00     0.152 C 
HETATM    3  C   UNK N   1      31.660  15.135   3.325  0.00  0.00     0.359 C 
HETATM    4  C   UNK N   1      35.936  13.866   8.134  0.00  0.00     0.039 A 
HETATM    5  C   UNK N   1      35.607  13.579   6.809  0.00  0.00     0.033 A 
HETATM    6  C   UNK N   1      33.029  17.555   5.332  0.00  0.00     0.055 C 
HETATM    7  C   UNK N   1      32.434  17.301   3.894  0.00  0.00     0.315 C 
HETATM    8  C   UNK N   1      34.439  15.797   8.151  0.00  0.00     0.047 A 
HETATM    9  C   UNK N   1      35.368  14.973   8.820  0.00  0.00     0.080 A 
HETATM   10  C   UNK N   1      34.137  15.512   6.814  0.00  0.00    -0.016 A 
HETATM   11  C   UNK N   1      34.697  14.410   6.179  0.00  0.00     0.039 A 
HETATM   12  C   UNK N   1      33.566  15.534   4.623  0.00  0.00     0.369 C 
HETATM   13  C   UNK N   1      33.108  16.157   5.907  0.00  0.00     0.042 C 
HETATM   14  N   UNK N   1      34.237  14.303   4.866  0.00  0.00    -0.349 N 
HETATM   15  N   UNK N   1      32.832  15.958   3.487  0.00  0.00     0.032 N 
HETATM   16  O   UNK N   1      33.494  15.967   2.495  0.00  0.00    -0.063 OA
ENDROOT
BRANCH   9  17
HETATM   17  O   UNK N   1      35.677  15.216  10.125  0.00  0.00    -0.274 OA
BRANCH  17  18
HETATM   18  C   UNK N   1      35.143  14.513  11.163  0.00  0.00     0.268 C 
HETATM   19  N   UNK N   1      35.861  13.635  11.784  0.00  0.00    -0.316 N 
ATOM     20  HN  UNK N   1      36.787  13.422  11.412  1.00  0.00     0.170 HD
BRANCH  19  21
HETATM   21  C   UNK N   1      35.433  12.944  12.963  0.00  0.00     0.042 A 
HETATM   22  C   UNK N   1      34.606  11.808  12.846  0.00  0.00     0.030 A 
HETATM   23  C   UNK N   1      34.147  11.126  13.968  0.00  0.00     0.002 A 
HETATM   24  C   UNK N   1      34.502  11.569  15.236  0.00  0.00     0.001 A 
HETATM   25  C   UNK N   1      35.309  12.698  15.381  0.00  0.00     0.009 A 
HETATM   26  C   UNK N   1      35.782  13.404  14.265  0.00  0.00    -0.032 A 
BRANCH  26  27
HETATM   27  C   UNK N   1      36.649  14.605  14.565  0.00  0.00     0.036 C 
HETATM   28  C   UNK N   1      37.045  14.851  16.009  0.00  0.00     0.010 C 
ENDBRANCH  26  27
ENDBRANCH  19  21
BRANCH  18  29
HETATM   29  O   UNK N   1      33.859  14.724  11.529  0.00  0.00    -0.326 OA
HETATM   30  H   UNK N   1      33.163  15.129  11.050  0.00  0.00     0.221 HD
ENDBRANCH  18  29
ENDBRANCH  17  18
ENDBRANCH   9  17
TORSDOF 5
ENDMDL
MODEL 9
REMARK VINA RESULT:      -7.1      2.440      3.210
REMARK  5 active torsions:
REMARK  status: ('A' for Active; 'I' for Inactive)
REMARK    1  A    between atoms: C_15  and  C_5 
REMARK    2  A    between atoms: O_29  and  C_16 
REMARK    3  A    between atoms: N_23  and  C_18 
REMARK    4  A    between atoms: O_27  and  C_21 
REMARK    5  A    between atoms: O_29  and  C_21 
ROOT
HETATM    1  C   UNK N   1      31.792  15.513   6.155  0.00  0.00     0.025 C 
HETATM    2  C   UNK N   1      35.162  13.548   3.794  0.00  0.00     0.152 C 
HETATM    3  C   UNK N   1      31.904  14.990   3.133  0.00  0.00     0.359 C 
HETATM    4  C   UNK N   1      36.037  13.969   8.122  0.00  0.00     0.039 A 
HETATM    5  C   UNK N   1      35.789  13.675   6.781  0.00  0.00     0.033 A 
HETATM    6  C   UNK N   1      33.008  17.478   5.219  0.00  0.00     0.055 C 
HETATM    7  C   UNK N   1      32.497  17.198   3.754  0.00  0.00     0.315 C 
HETATM    8  C   UNK N   1      34.409  15.791   8.086  0.00  0.00     0.047 A 
HETATM    9  C   UNK N   1      35.363  15.027   8.790  0.00  0.00     0.080 A 
HETATM   10  C   UNK N   1      34.188  15.501   6.734  0.00  0.00    -0.016 A 
HETATM   11  C   UNK N   1      34.853  14.447   6.117  0.00  0.00     0.039 A 
HETATM   12  C   UNK N   1      33.717  15.507   4.520  0.00  0.00     0.369 C 
HETATM   13  C   UNK N   1      33.159  16.082   5.786  0.00  0.00     0.042 C 
HETATM   14  N   UNK N   1      34.460  14.323   4.783  0.00  0.00    -0.349 N 
HETATM   15  N   UNK N   1      33.007  15.891   3.355  0.00  0.00     0.032 N 
HETATM   16  O   UNK N   1      33.711  15.957   2.394  0.00  0.00    -0.063 OA
ENDROOT
BRANCH   9  17
HETATM   17  O   UNK N   1      35.595  15.276  10.110  0.00  0.00    -0.274 OA
BRANCH  17  18
HETATM   18  C   UNK N   1      35.020  14.562  11.118  0.00  0.00     0.268 C 
HETATM   19  N   UNK N   1      35.693  13.635  11.718  0.00  0.00    -0.316 N 
ATOM     20  HN  UNK N   1      36.614  13.396  11.349  1.00  0.00     0.170 HD
BRANCH  19  21
HETATM   21  C   UNK N   1      35.223  12.925  12.869  0.00  0.00     0.042 A 
HETATM   22  C   UNK N   1      35.384  13.489  14.151  0.00  0.00     0.030 A 
HETATM   23  C   UNK N   1      34.966  12.819  15.296  0.00  0.00     0.002 A 
HETATM   24  C   UNK N   1      34.381  11.563  15.184  0.00  0.00     0.001 A 
HETATM   25  C   UNK N   1      34.223  10.977  13.928  0.00  0.00     0.009 A 
HETATM   26  C   UNK N   1      34.638  11.632  12.760  0.00  0.00    -0.032 A 
BRANCH  26  27
HETATM   27  C   UNK N   1      34.403  10.885  11.467  0.00  0.00     0.036 C 
HETATM   28  C   UNK N   1      33.424   9.724  11.487  0.00  0.00     0.010 C 
ENDBRANCH  26  27
ENDBRANCH  19  21
BRANCH  18  29
HETATM   29  O   UNK N   1      33.741  14.814  11.476  0.00  0.00    -0.326 OA
HETATM   30  H   UNK N   1      32.974  14.873  10.941  0.00  0.00     0.221 HD
ENDBRANCH  18  29
ENDBRANCH  17  18
ENDBRANCH   9  17
TORSDOF 5
ENDMDL
