REMARK  5 active torsions:
REMARK  status: ('A' for Active; 'I' for Inactive)
REMARK    1  A    between atoms: P_1  and  O_2 
REMARK    2  A    between atoms: P_1  and  O_3 
REMARK    3  A    between atoms: P_1  and  O_4 
REMARK    4  A    between atoms: O_2  and  C_6 
REMARK    5  A    between atoms: O_3  and  C_7 
ROOT
HETATM    1  P   UNK N   1       0.319   0.002  -0.473  0.00  0.00     0.326 P 
HETATM    2  S   UNK N   1      -0.542  -1.090   0.630  0.00  0.00    -0.007 SA
ENDROOT
BRANCH   1   3
HETATM    3  O   UNK N   1      -0.775   1.076   0.355  0.00  0.00    -0.314 OA
BRANCH   3   4
HETATM    4  C   UNK N   1      -1.566   1.660  -0.642  0.00  0.00     0.174 C 
HETATM    5  C   UNK N   1      -2.768   2.318   0.004  0.00  0.00     0.034 C 
ENDBRANCH   3   4
ENDBRANCH   1   3
BRANCH   1   6
HETATM    6  O   UNK N   1       1.618  -0.723   0.435  0.00  0.00    -0.314 OA
BRANCH   6   7
HETATM    7  C   UNK N   1       2.458  -1.323  -0.512  0.00  0.00     0.174 C 
HETATM    8  C   UNK N   1       2.597  -2.799  -0.194  0.00  0.00     0.034 C 
ENDBRANCH   6   7
ENDBRANCH   1   6
BRANCH   1   9
HETATM    9  O   UNK N   1       1.205   1.222   0.396  0.00  0.00    -0.324 OA
HETATM   10  H   UNK N   1       2.041   1.134   0.880  0.00  0.00     0.220 HD
ENDBRANCH   1   9
TORSDOF 5
