MODEL 1
REMARK VINA RESULT:      -7.6      0.000      0.000
REMARK  1 active torsions:
REMARK  status: ('A' for Active; 'I' for Inactive)
REMARK    1  A    between atoms: C_13  and  O_1 
ROOT
HETATM    1  O   UNK N   1      35.984   8.298  22.027  0.00  0.00    -0.298 OA
HETATM    2  C   UNK N   1      35.059  11.947  17.024  0.00  0.00    -0.005 C 
HETATM    3  C   UNK N   1      36.087  10.792  17.170  0.00  0.00    -0.002 C 
HETATM    4  C   UNK N   1      35.156  12.643  15.648  0.00  0.00     0.001 C 
HETATM    5  C   UNK N   1      35.081  11.653  14.481  0.00  0.00    -0.014 C 
HETATM    6  C   UNK N   1      35.894  10.066  18.533  0.00  0.00    -0.036 C 
HETATM    7  C   UNK N   1      36.028  11.096  19.696  0.00  0.00     0.001 C 
HETATM    8  C   UNK N   1      35.944   9.810  15.993  0.00  0.00     0.007 C 
HETATM    9  C   UNK N   1      36.122  10.531  14.658  0.00  0.00     0.012 C 
HETATM   10  C   UNK N   1      35.240  12.952  18.166  0.00  0.00     0.006 C 
HETATM   11  C   UNK N   1      36.464  13.379  15.381  0.00  0.00     0.008 C 
HETATM   12  C   UNK N   1      35.485  12.520  13.292  0.00  0.00     0.126 C 
HETATM   13  C   UNK N   1      35.056  12.268  19.521  0.00  0.00     0.006 C 
HETATM   14  C   UNK N   1      36.595  13.413  13.854  0.00  0.00     0.033 C 
HETATM   15  C   UNK N   1      36.966   8.964  18.688  0.00  0.00     0.017 C 
HETATM   16  C   UNK N   1      33.698  11.028  14.308  0.00  0.00     0.018 C 
HETATM   17  C   UNK N   1      34.515   9.388  18.577  0.00  0.00     0.016 C 
HETATM   18  C   UNK N   1      35.726  10.426  21.044  0.00  0.00     0.083 C 
HETATM   19  C   UNK N   1      37.353   8.606  20.133  0.00  0.00     0.079 C 
HETATM   20  C   UNK N   1      36.346   9.061  21.147  0.00  0.00     0.127 C 
ENDROOT
BRANCH  12  21
HETATM   21  O   UNK N   1      34.424  13.342  12.894  0.00  0.00    -0.395 OA
HETATM   22  H   UNK N   1      34.195  14.281  12.971  0.00  0.00     0.210 HD
ENDBRANCH  12  21
TORSDOF 1
ENDMDL
MODEL 2
REMARK VINA RESULT:      -7.3      1.210      6.195
REMARK  1 active torsions:
REMARK  status: ('A' for Active; 'I' for Inactive)
REMARK    1  A    between atoms: C_13  and  O_1 
ROOT
HETATM    1  O   UNK N   1      35.216  12.178  12.448  0.00  0.00    -0.298 OA
HETATM    2  C   UNK N   1      35.687  11.542  18.659  0.00  0.00    -0.005 C 
HETATM    3  C   UNK N   1      34.950  10.599  17.669  0.00  0.00    -0.002 C 
HETATM    4  C   UNK N   1      35.548  11.072  20.124  0.00  0.00     0.001 C 
HETATM    5  C   UNK N   1      35.952   9.606  20.313  0.00  0.00    -0.014 C 
HETATM    6  C   UNK N   1      35.189  11.062  16.203  0.00  0.00    -0.036 C 
HETATM    7  C   UNK N   1      34.719  12.540  16.038  0.00  0.00     0.001 C 
HETATM    8  C   UNK N   1      35.418   9.148  17.877  0.00  0.00     0.007 C 
HETATM    9  C   UNK N   1      35.192   8.705  19.321  0.00  0.00     0.012 C 
HETATM   10  C   UNK N   1      35.179  12.977  18.488  0.00  0.00     0.006 C 
HETATM   11  C   UNK N   1      34.132  11.105  20.688  0.00  0.00     0.008 C 
HETATM   12  C   UNK N   1      35.461   9.312  21.727  0.00  0.00     0.126 C 
HETATM   13  C   UNK N   1      35.401  13.461  17.055  0.00  0.00     0.006 C 
HETATM   14  C   UNK N   1      34.128  10.063  21.812  0.00  0.00     0.033 C 
HETATM   15  C   UNK N   1      34.395  10.153  15.238  0.00  0.00     0.017 C 
HETATM   16  C   UNK N   1      37.453   9.368  20.153  0.00  0.00     0.018 C 
HETATM   17  C   UNK N   1      36.680  10.934  15.848  0.00  0.00     0.016 C 
HETATM   18  C   UNK N   1      35.052  13.056  14.631  0.00  0.00     0.083 C 
HETATM   19  C   UNK N   1      33.981  10.795  13.903  0.00  0.00     0.079 C 
HETATM   20  C   UNK N   1      34.763  12.031  13.571  0.00  0.00     0.127 C 
ENDROOT
BRANCH  12  21
HETATM   21  O   UNK N   1      36.330   9.858  22.679  0.00  0.00    -0.395 OA
HETATM   22  H   UNK N   1      37.148  10.378  22.667  0.00  0.00     0.210 HD
ENDBRANCH  12  21
TORSDOF 1
ENDMDL
MODEL 3
REMARK VINA RESULT:      -7.2     11.480     14.530
REMARK  1 active torsions:
REMARK  status: ('A' for Active; 'I' for Inactive)
REMARK    1  A    between atoms: C_13  and  O_1 
ROOT
HETATM    1  O   UNK N   1      34.628  15.361   7.256  0.00  0.00    -0.298 OA
HETATM    2  C   UNK N   1      28.840  17.728   6.946  0.00  0.00    -0.005 C 
HETATM    3  C   UNK N   1      29.948  17.807   5.862  0.00  0.00    -0.002 C 
HETATM    4  C   UNK N   1      27.553  18.468   6.518  0.00  0.00     0.001 C 
HETATM    5  C   UNK N   1      27.047  18.021   5.142  0.00  0.00    -0.014 C 
HETATM    6  C   UNK N   1      31.191  16.977   6.298  0.00  0.00    -0.036 C 
HETATM    7  C   UNK N   1      31.706  17.494   7.677  0.00  0.00     0.001 C 
HETATM    8  C   UNK N   1      29.399  17.315   4.511  0.00  0.00     0.007 C 
HETATM    9  C   UNK N   1      28.172  18.125   4.095  0.00  0.00     0.012 C 
HETATM   10  C   UNK N   1      29.372  18.270   8.277  0.00  0.00     0.006 C 
HETATM   11  C   UNK N   1      27.693  19.976   6.353  0.00  0.00     0.008 C 
HETATM   12  C   UNK N   1      25.982  19.069   4.831  0.00  0.00     0.126 C 
HETATM   13  C   UNK N   1      30.595  17.474   8.733  0.00  0.00     0.006 C 
HETATM   14  C   UNK N   1      26.587  20.371   5.367  0.00  0.00     0.033 C 
HETATM   15  C   UNK N   1      32.307  17.122   5.239  0.00  0.00     0.017 C 
HETATM   16  C   UNK N   1      26.489  16.599   5.136  0.00  0.00     0.018 C 
HETATM   17  C   UNK N   1      30.822  15.488   6.391  0.00  0.00     0.016 C 
HETATM   18  C   UNK N   1      32.859  16.615   8.182  0.00  0.00     0.083 C 
HETATM   19  C   UNK N   1      33.745  16.950   5.755  0.00  0.00     0.079 C 
HETATM   20  C   UNK N   1      33.820  16.259   7.084  0.00  0.00     0.127 C 
ENDROOT
BRANCH  12  21
HETATM   21  O   UNK N   1      24.806  18.809   5.543  0.00  0.00    -0.395 OA
HETATM   22  H   UNK N   1      24.175  19.323   6.071  0.00  0.00     0.210 HD
ENDBRANCH  12  21
TORSDOF 1
ENDMDL
MODEL 4
REMARK VINA RESULT:      -7.1     27.264     29.393
REMARK  1 active torsions:
REMARK  status: ('A' for Active; 'I' for Inactive)
REMARK    1  A    between atoms: C_13  and  O_1 
ROOT
HETATM    1  O   UNK N   1      25.940  20.775  -9.801  0.00  0.00    -0.298 OA
HETATM    2  C   UNK N   1      26.863  26.047  -6.553  0.00  0.00    -0.005 C 
HETATM    3  C   UNK N   1      26.146  24.757  -6.070  0.00  0.00    -0.002 C 
HETATM    4  C   UNK N   1      26.858  27.154  -5.476  0.00  0.00     0.001 C 
HETATM    5  C   UNK N   1      27.398  26.665  -4.127  0.00  0.00    -0.014 C 
HETATM    6  C   UNK N   1      26.250  23.644  -7.153  0.00  0.00    -0.036 C 
HETATM    7  C   UNK N   1      25.647  24.162  -8.494  0.00  0.00     0.001 C 
HETATM    8  C   UNK N   1      26.749  24.290  -4.733  0.00  0.00     0.007 C 
HETATM    9  C   UNK N   1      26.655  25.392  -3.680  0.00  0.00     0.012 C 
HETATM   10  C   UNK N   1      26.224  26.542  -7.856  0.00  0.00     0.006 C 
HETATM   11  C   UNK N   1      25.484  27.702  -5.109  0.00  0.00     0.008 C 
HETATM   12  C   UNK N   1      27.025  27.811  -3.192  0.00  0.00     0.126 C 
HETATM   13  C   UNK N   1      26.311  25.468  -8.941  0.00  0.00     0.006 C 
HETATM   14  C   UNK N   1      25.641  28.247  -3.685  0.00  0.00     0.033 C 
HETATM   15  C   UNK N   1      25.476  22.392  -6.683  0.00  0.00     0.017 C 
HETATM   16  C   UNK N   1      28.900  26.386  -4.143  0.00  0.00     0.018 C 
HETATM   17  C   UNK N   1      27.720  23.239  -7.351  0.00  0.00     0.016 C 
HETATM   18  C   UNK N   1      25.843  23.123  -9.608  0.00  0.00     0.083 C 
HETATM   19  C   UNK N   1      24.924  21.489  -7.798  0.00  0.00     0.079 C 
HETATM   20  C   UNK N   1      25.574  21.724  -9.129  0.00  0.00     0.127 C 
ENDROOT
BRANCH  12  21
HETATM   21  O   UNK N   1      27.904  28.889  -3.352  0.00  0.00    -0.395 OA
HETATM   22  H   UNK N   1      28.849  29.052  -3.211  0.00  0.00     0.210 HD
ENDBRANCH  12  21
TORSDOF 1
ENDMDL
MODEL 5
REMARK VINA RESULT:      -7.0     14.682     18.550
REMARK  1 active torsions:
REMARK  status: ('A' for Active; 'I' for Inactive)
REMARK    1  A    between atoms: C_13  and  O_1 
ROOT
HETATM    1  O   UNK N   1      19.956  16.245   2.702  0.00  0.00    -0.298 OA
HETATM    2  C   UNK N   1      21.665  14.582   8.492  0.00  0.00    -0.005 C 
HETATM    3  C   UNK N   1      21.217  13.646   7.337  0.00  0.00    -0.002 C 
HETATM    4  C   UNK N   1      21.971  13.802   9.789  0.00  0.00     0.001 C 
HETATM    5  C   UNK N   1      22.957  12.651   9.564  0.00  0.00    -0.014 C 
HETATM    6  C   UNK N   1      21.003  14.464   6.030  0.00  0.00    -0.036 C 
HETATM    7  C   UNK N   1      19.957  15.592   6.285  0.00  0.00     0.001 C 
HETATM    8  C   UNK N   1      22.258  12.532   7.131  0.00  0.00     0.007 C 
HETATM    9  C   UNK N   1      22.473  11.741   8.420  0.00  0.00     0.012 C 
HETATM   10  C   UNK N   1      20.600  15.658   8.733  0.00  0.00     0.006 C 
HETATM   11  C   UNK N   1      20.776  13.102  10.426  0.00  0.00     0.008 C 
HETATM   12  C   UNK N   1      22.867  11.883  10.880  0.00  0.00     0.126 C 
HETATM   13  C   UNK N   1      20.367  16.480   7.465  0.00  0.00     0.006 C 
HETATM   14  C   UNK N   1      21.379  11.948  11.237  0.00  0.00     0.033 C 
HETATM   15  C   UNK N   1      20.496  13.527   4.911  0.00  0.00     0.017 C 
HETATM   16  C   UNK N   1      24.377  13.124   9.258  0.00  0.00     0.018 C 
HETATM   17  C   UNK N   1      22.338  15.070   5.565  0.00  0.00     0.016 C 
HETATM   18  C   UNK N   1      19.816  16.484   5.044  0.00  0.00     0.083 C 
HETATM   19  C   UNK N   1      19.643  14.192   3.817  0.00  0.00     0.079 C 
HETATM   20  C   UNK N   1      19.794  15.683   3.773  0.00  0.00     0.127 C 
ENDROOT
BRANCH  12  21
HETATM   21  O   UNK N   1      23.587  12.537  11.887  0.00  0.00    -0.395 OA
HETATM   22  H   UNK N   1      24.101  12.276  12.666  0.00  0.00     0.210 HD
ENDBRANCH  12  21
TORSDOF 1
ENDMDL
MODEL 6
REMARK VINA RESULT:      -6.9     27.237     29.427
REMARK  1 active torsions:
REMARK  status: ('A' for Active; 'I' for Inactive)
REMARK    1  A    between atoms: C_13  and  O_1 
ROOT
HETATM    1  O   UNK N   1      24.658  23.560  -8.581  0.00  0.00    -0.298 OA
HETATM    2  C   UNK N   1      27.218  27.232  -4.203  0.00  0.00    -0.005 C 
HETATM    3  C   UNK N   1      27.478  27.270  -5.734  0.00  0.00    -0.002 C 
HETATM    4  C   UNK N   1      28.068  28.273  -3.442  0.00  0.00     0.001 C 
HETATM    5  C   UNK N   1      27.922  29.686  -4.017  0.00  0.00    -0.014 C 
HETATM    6  C   UNK N   1      26.540  26.267  -6.466  0.00  0.00    -0.036 C 
HETATM    7  C   UNK N   1      26.754  24.834  -5.888  0.00  0.00     0.001 C 
HETATM    8  C   UNK N   1      27.284  28.701  -6.264  0.00  0.00     0.007 C 
HETATM    9  C   UNK N   1      28.198  29.682  -5.533  0.00  0.00     0.012 C 
HETATM   10  C   UNK N   1      27.466  25.818  -3.668  0.00  0.00     0.006 C 
HETATM   11  C   UNK N   1      29.575  28.045  -3.489  0.00  0.00     0.008 C 
HETATM   12  C   UNK N   1      29.044  30.442  -3.311  0.00  0.00     0.126 C 
HETATM   13  C   UNK N   1      26.558  24.808  -4.369  0.00  0.00     0.006 C 
HETATM   14  C   UNK N   1      30.193  29.430  -3.267  0.00  0.00     0.033 C 
HETATM   15  C   UNK N   1      26.858  26.271  -7.978  0.00  0.00     0.017 C 
HETATM   16  C   UNK N   1      26.548  30.303  -3.762  0.00  0.00     0.018 C 
HETATM   17  C   UNK N   1      25.074  26.698  -6.295  0.00  0.00     0.016 C 
HETATM   18  C   UNK N   1      25.757  23.849  -6.515  0.00  0.00     0.083 C 
HETATM   19  C   UNK N   1      26.542  24.969  -8.732  0.00  0.00     0.079 C 
HETATM   20  C   UNK N   1      25.597  24.070  -7.992  0.00  0.00     0.127 C 
ENDROOT
BRANCH  12  21
HETATM   21  O   UNK N   1      28.683  30.751  -1.994  0.00  0.00    -0.395 OA
HETATM   22  H   UNK N   1      29.076  31.236  -1.253  0.00  0.00     0.210 HD
ENDBRANCH  12  21
TORSDOF 1
ENDMDL
MODEL 7
REMARK VINA RESULT:      -6.8     10.412     14.683
REMARK  1 active torsions:
REMARK  status: ('A' for Active; 'I' for Inactive)
REMARK    1  A    between atoms: C_13  and  O_1 
ROOT
HETATM    1  O   UNK N   1      26.211  16.759   3.084  0.00  0.00    -0.298 OA
HETATM    2  C   UNK N   1      31.689  16.220   6.068  0.00  0.00    -0.005 C 
HETATM    3  C   UNK N   1      30.624  17.336   6.249  0.00  0.00    -0.002 C 
HETATM    4  C   UNK N   1      32.932  16.452   6.955  0.00  0.00     0.001 C 
HETATM    5  C   UNK N   1      32.571  16.671   8.428  0.00  0.00    -0.014 C 
HETATM    6  C   UNK N   1      29.357  17.016   5.403  0.00  0.00    -0.036 C 
HETATM    7  C   UNK N   1      29.758  16.850   3.905  0.00  0.00     0.001 C 
HETATM    8  C   UNK N   1      30.273  17.489   7.739  0.00  0.00     0.007 C 
HETATM    9  C   UNK N   1      31.521  17.790   8.565  0.00  0.00     0.012 C 
HETATM   10  C   UNK N   1      32.079  16.107   4.589  0.00  0.00     0.006 C 
HETATM   11  C   UNK N   1      33.749  17.694   6.621  0.00  0.00     0.008 C 
HETATM   12  C   UNK N   1      33.892  17.155   9.019  0.00  0.00     0.126 C 
HETATM   13  C   UNK N   1      30.854  15.793   3.731  0.00  0.00     0.006 C 
HETATM   14  C   UNK N   1      34.470  18.057   7.925  0.00  0.00     0.033 C 
HETATM   15  C   UNK N   1      28.337  18.168   5.544  0.00  0.00     0.017 C 
HETATM   16  C   UNK N   1      32.048  15.411   9.115  0.00  0.00     0.018 C 
HETATM   17  C   UNK N   1      28.690  15.732   5.921  0.00  0.00     0.016 C 
HETATM   18  C   UNK N   1      28.544  16.420   3.069  0.00  0.00     0.083 C 
HETATM   19  C   UNK N   1      27.379  18.363   4.357  0.00  0.00     0.079 C 
HETATM   20  C   UNK N   1      27.299  17.165   3.457  0.00  0.00     0.127 C 
ENDROOT
BRANCH  12  21
HETATM   21  O   UNK N   1      34.772  16.083   9.211  0.00  0.00    -0.395 OA
HETATM   22  H   UNK N   1      35.122  15.356   8.674  0.00  0.00     0.210 HD
ENDBRANCH  12  21
TORSDOF 1
ENDMDL
MODEL 8
REMARK VINA RESULT:      -6.7     14.980     17.865
REMARK  1 active torsions:
REMARK  status: ('A' for Active; 'I' for Inactive)
REMARK    1  A    between atoms: C_13  and  O_1 
ROOT
HETATM    1  O   UNK N   1      23.165  11.162  10.837  0.00  0.00    -0.298 OA
HETATM    2  C   UNK N   1      20.563  15.335   6.962  0.00  0.00    -0.005 C 
HETATM    3  C   UNK N   1      22.048  14.882   6.998  0.00  0.00    -0.002 C 
HETATM    4  C   UNK N   1      20.309  16.415   5.887  0.00  0.00     0.001 C 
HETATM    5  C   UNK N   1      20.820  15.999   4.503  0.00  0.00    -0.014 C 
HETATM    6  C   UNK N   1      22.238  13.736   8.034  0.00  0.00    -0.036 C 
HETATM    7  C   UNK N   1      21.755  14.214   9.438  0.00  0.00     0.001 C 
HETATM    8  C   UNK N   1      22.497  14.442   5.594  0.00  0.00     0.007 C 
HETATM    9  C   UNK N   1      22.296  15.567   4.581  0.00  0.00     0.012 C 
HETATM   10  C   UNK N   1      20.134  15.826   8.350  0.00  0.00     0.006 C 
HETATM   11  C   UNK N   1      21.016  17.745   6.120  0.00  0.00     0.008 C 
HETATM   12  C   UNK N   1      20.724  17.302   3.716  0.00  0.00     0.126 C 
HETATM   13  C   UNK N   1      20.309  14.719   9.391  0.00  0.00     0.006 C 
HETATM   14  C   UNK N   1      21.155  18.370   4.726  0.00  0.00     0.033 C 
HETATM   15  C   UNK N   1      23.731  13.344   8.103  0.00  0.00     0.017 C 
HETATM   16  C   UNK N   1      20.003  14.872   3.873  0.00  0.00     0.018 C 
HETATM   17  C   UNK N   1      21.447  12.493   7.593  0.00  0.00     0.016 C 
HETATM   18  C   UNK N   1      21.824  13.063  10.450  0.00  0.00     0.083 C 
HETATM   19  C   UNK N   1      24.205  12.750   9.440  0.00  0.00     0.079 C 
HETATM   20  C   UNK N   1      23.081  12.254  10.301  0.00  0.00     0.127 C 
ENDROOT
BRANCH  12  21
HETATM   21  O   UNK N   1      19.400  17.563   3.343  0.00  0.00    -0.395 OA
HETATM   22  H   UNK N   1      18.662  17.055   2.973  0.00  0.00     0.210 HD
ENDBRANCH  12  21
TORSDOF 1
ENDMDL
MODEL 9
REMARK VINA RESULT:      -6.6      8.311     11.686
REMARK  1 active torsions:
REMARK  status: ('A' for Active; 'I' for Inactive)
REMARK    1  A    between atoms: C_13  and  O_1 
ROOT
HETATM    1  O   UNK N   1      35.924  14.349  11.588  0.00  0.00    -0.298 OA
HETATM    2  C   UNK N   1      32.627  16.787   6.856  0.00  0.00    -0.005 C 
HETATM    3  C   UNK N   1      33.470  15.483   6.843  0.00  0.00    -0.002 C 
HETATM    4  C   UNK N   1      31.987  17.081   5.481  0.00  0.00     0.001 C 
HETATM    5  C   UNK N   1      31.197  15.889   4.932  0.00  0.00    -0.014 C 
HETATM    6  C   UNK N   1      34.022  15.181   8.267  0.00  0.00    -0.036 C 
HETATM    7  C   UNK N   1      34.861  16.396   8.769  0.00  0.00     0.001 C 
HETATM    8  C   UNK N   1      32.620  14.313   6.317  0.00  0.00     0.007 C 
HETATM    9  C   UNK N   1      32.071  14.620   4.926  0.00  0.00     0.012 C 
HETATM   10  C   UNK N   1      33.492  17.961   7.327  0.00  0.00     0.006 C 
HETATM   11  C   UNK N   1      32.971  17.380   4.355  0.00  0.00     0.008 C 
HETATM   12  C   UNK N   1      30.928  16.312   3.491  0.00  0.00     0.126 C 
HETATM   13  C   UNK N   1      34.049  17.695   8.725  0.00  0.00     0.006 C 
HETATM   14  C   UNK N   1      32.225  17.008   3.068  0.00  0.00     0.033 C 
HETATM   15  C   UNK N   1      34.911  13.919   8.219  0.00  0.00     0.017 C 
HETATM   16  C   UNK N   1      29.913  15.606   5.710  0.00  0.00     0.018 C 
HETATM   17  C   UNK N   1      32.859  14.901   9.232  0.00  0.00     0.016 C 
HETATM   18  C   UNK N   1      35.318  16.170  10.217  0.00  0.00     0.083 C 
HETATM   19  C   UNK N   1      36.013  13.836   9.289  0.00  0.00     0.079 C 
HETATM   20  C   UNK N   1      35.785  14.760  10.448  0.00  0.00     0.127 C 
ENDROOT
BRANCH  12  21
HETATM   21  O   UNK N   1      29.891  17.251   3.435  0.00  0.00    -0.395 OA
HETATM   22  H   UNK N   1      29.803  18.209   3.553  0.00  0.00     0.210 HD
ENDBRANCH  12  21
TORSDOF 1
ENDMDL
