MODEL 1
REMARK VINA RESULT:      -5.7      0.000      0.000
REMARK  6 active torsions:
REMARK  status: ('A' for Active; 'I' for Inactive)
REMARK    1  A    between atoms: C_5  and  C_3 
REMARK    2  A    between atoms: C_6  and  C_3 
REMARK    3  A    between atoms: C_9  and  C_6 
REMARK    4  A    between atoms: O_12  and  C_7 
REMARK    5  A    between atoms: O_13  and  C_8 
REMARK    6  A    between atoms: O_15  and  C_9 
ROOT
HETATM    1  C   UNK N   1      30.062  17.153   6.864  0.00  0.00     0.010 A 
HETATM    2  C   UNK N   1      28.801  17.354   7.426  0.00  0.00     0.040 A 
HETATM    3  C   UNK N   1      31.099  18.138   8.819  0.00  0.00     0.047 A 
HETATM    4  C   UNK N   1      31.216  17.555   7.550  0.00  0.00    -0.050 A 
HETATM    5  C   UNK N   1      28.682  17.941   8.686  0.00  0.00     0.098 A 
HETATM    6  C   UNK N   1      29.834  18.327   9.389  0.00  0.00     0.099 A 
ENDROOT
BRANCH   4   7
HETATM    7  C   UNK N   1      32.572  17.327   6.946  0.00  0.00     0.102 C 
BRANCH   7   8
HETATM    8  C   UNK N   1      33.595  16.893   7.965  0.00  0.00     0.081 C 
HETATM    9  N   UNK N   1      33.562  15.685   8.410  0.00  0.00    -0.397 N 
HETATM   10  H   UNK N   1      34.232  15.341   9.112  0.00  0.00     0.156 HD
ATOM     11  HN  UNK N   1      32.849  15.049   8.054  1.00  0.00     0.156 HD
BRANCH   8  12
HETATM   12  C   UNK N   1      34.597  17.863   8.471  0.00  0.00     0.189 C 
HETATM   13  O   UNK N   1      34.908  18.836   7.800  0.00  0.00    -0.645 OA
BRANCH  12  14
HETATM   14  O   UNK N   1      35.182  17.671   9.667  0.00  0.00    -0.772 OA
HETATM   15  H   UNK N   1      35.040  18.261  10.381  0.00  0.00     0.167 HD
ENDBRANCH  12  14
ENDBRANCH   8  12
ENDBRANCH   7   8
ENDBRANCH   4   7
BRANCH   6  16
HETATM   16  O   UNK N   1      29.727  18.879  10.610  0.00  0.00    -0.358 OA
HETATM   17  H   UNK N   1      29.439  18.432  11.381  0.00  0.00     0.217 HD
ENDBRANCH   6  16
BRANCH   5  18
HETATM   18  O   UNK N   1      27.464  18.129   9.219  0.00  0.00    -0.358 OA
HETATM   19  H   UNK N   1      27.307  17.983  10.132  0.00  0.00     0.217 HD
ENDBRANCH   5  18
TORSDOF 6
ENDMDL
MODEL 2
REMARK VINA RESULT:      -5.7     10.254     11.034
REMARK  6 active torsions:
REMARK  status: ('A' for Active; 'I' for Inactive)
REMARK    1  A    between atoms: C_5  and  C_3 
REMARK    2  A    between atoms: C_6  and  C_3 
REMARK    3  A    between atoms: C_9  and  C_6 
REMARK    4  A    between atoms: O_12  and  C_7 
REMARK    5  A    between atoms: O_13  and  C_8 
REMARK    6  A    between atoms: O_15  and  C_9 
ROOT
HETATM    1  C   UNK N   1      22.766  13.045   8.340  0.00  0.00     0.010 A 
HETATM    2  C   UNK N   1      22.079  14.040   7.644  0.00  0.00     0.040 A 
HETATM    3  C   UNK N   1      21.051  13.044  10.050  0.00  0.00     0.047 A 
HETATM    4  C   UNK N   1      22.264  12.552   9.553  0.00  0.00    -0.050 A 
HETATM    5  C   UNK N   1      20.874  14.537   8.143  0.00  0.00     0.098 A 
HETATM    6  C   UNK N   1      20.353  14.033   9.345  0.00  0.00     0.099 A 
ENDROOT
BRANCH   4   7
HETATM    7  C   UNK N   1      23.002  11.474  10.293  0.00  0.00     0.102 C 
BRANCH   7   8
HETATM    8  C   UNK N   1      23.812  12.011  11.445  0.00  0.00     0.081 C 
HETATM    9  N   UNK N   1      24.952  12.560  11.207  0.00  0.00    -0.397 N 
HETATM   10  H   UNK N   1      25.549  12.935  11.958  0.00  0.00     0.156 HD
ATOM     11  HN  UNK N   1      25.275  12.624  10.241  1.00  0.00     0.156 HD
BRANCH   8  12
HETATM   12  C   UNK N   1      23.311  11.871  12.834  0.00  0.00     0.189 C 
HETATM   13  O   UNK N   1      23.960  12.312  13.772  0.00  0.00    -0.645 OA
BRANCH  12  14
HETATM   14  O   UNK N   1      22.146  11.244  13.074  0.00  0.00    -0.772 OA
HETATM   15  H   UNK N   1      21.460  11.225  12.437  0.00  0.00     0.167 HD
ENDBRANCH  12  14
ENDBRANCH   8  12
ENDBRANCH   7   8
ENDBRANCH   4   7
BRANCH   6  16
HETATM   16  O   UNK N   1      19.185  14.496   9.823  0.00  0.00    -0.358 OA
HETATM   17  H   UNK N   1      19.078  14.960  10.629  0.00  0.00     0.217 HD
ENDBRANCH   6  16
BRANCH   5  18
HETATM   18  O   UNK N   1      20.218  15.493   7.464  0.00  0.00    -0.358 OA
HETATM   19  H   UNK N   1      20.666  16.051   6.859  0.00  0.00     0.217 HD
ENDBRANCH   5  18
TORSDOF 6
ENDMDL
MODEL 3
REMARK VINA RESULT:      -5.7      9.430     10.685
REMARK  6 active torsions:
REMARK  status: ('A' for Active; 'I' for Inactive)
REMARK    1  A    between atoms: C_5  and  C_3 
REMARK    2  A    between atoms: C_6  and  C_3 
REMARK    3  A    between atoms: C_9  and  C_6 
REMARK    4  A    between atoms: O_12  and  C_7 
REMARK    5  A    between atoms: O_13  and  C_8 
REMARK    6  A    between atoms: O_15  and  C_9 
ROOT
HETATM    1  C   UNK N   1      35.371  11.104  17.415  0.00  0.00     0.010 A 
HETATM    2  C   UNK N   1      35.348  11.387  18.781  0.00  0.00     0.040 A 
HETATM    3  C   UNK N   1      35.232  13.469  16.914  0.00  0.00     0.047 A 
HETATM    4  C   UNK N   1      35.299  12.141  16.475  0.00  0.00    -0.050 A 
HETATM    5  C   UNK N   1      35.273  12.709  19.220  0.00  0.00     0.098 A 
HETATM    6  C   UNK N   1      35.223  13.755  18.285  0.00  0.00     0.099 A 
ENDROOT
BRANCH   4   7
HETATM    7  C   UNK N   1      35.335  11.833  15.006  0.00  0.00     0.102 C 
BRANCH   7   8
HETATM    8  C   UNK N   1      36.359  12.654  14.265  0.00  0.00     0.081 C 
HETATM    9  N   UNK N   1      37.608  12.374  14.409  0.00  0.00    -0.397 N 
HETATM   10  H   UNK N   1      38.348  12.909  13.933  0.00  0.00     0.156 HD
ATOM     11  HN  UNK N   1      37.871  11.597  15.015  1.00  0.00     0.156 HD
BRANCH   8  12
HETATM   12  C   UNK N   1      35.927  13.790  13.416  0.00  0.00     0.189 C 
HETATM   13  O   UNK N   1      34.825  13.781  12.886  0.00  0.00    -0.645 OA
BRANCH  12  14
HETATM   14  O   UNK N   1      36.750  14.834  13.210  0.00  0.00    -0.772 OA
HETATM   15  H   UNK N   1      36.729  15.591  13.762  0.00  0.00     0.167 HD
ENDBRANCH  12  14
ENDBRANCH   8  12
ENDBRANCH   7   8
ENDBRANCH   4   7
BRANCH   6  16
HETATM   16  O   UNK N   1      35.166  15.032  18.702  0.00  0.00    -0.358 OA
HETATM   17  H   UNK N   1      35.744  15.421  19.328  0.00  0.00     0.217 HD
ENDBRANCH   6  16
BRANCH   5  18
HETATM   18  O   UNK N   1      35.254  12.972  20.538  0.00  0.00    -0.358 OA
HETATM   19  H   UNK N   1      35.360  12.287  21.169  0.00  0.00     0.217 HD
ENDBRANCH   5  18
TORSDOF 6
ENDMDL
MODEL 4
REMARK VINA RESULT:      -5.6      0.805      1.988
REMARK  6 active torsions:
REMARK  status: ('A' for Active; 'I' for Inactive)
REMARK    1  A    between atoms: C_5  and  C_3 
REMARK    2  A    between atoms: C_6  and  C_3 
REMARK    3  A    between atoms: C_9  and  C_6 
REMARK    4  A    between atoms: O_12  and  C_7 
REMARK    5  A    between atoms: O_13  and  C_8 
REMARK    6  A    between atoms: O_15  and  C_9 
ROOT
HETATM    1  C   UNK N   1      31.013  18.430   9.007  0.00  0.00     0.010 A 
HETATM    2  C   UNK N   1      29.724  18.599   9.513  0.00  0.00     0.040 A 
HETATM    3  C   UNK N   1      30.139  17.060   7.212  0.00  0.00     0.047 A 
HETATM    4  C   UNK N   1      31.230  17.649   7.864  0.00  0.00    -0.050 A 
HETATM    5  C   UNK N   1      28.637  18.007   8.868  0.00  0.00     0.098 A 
HETATM    6  C   UNK N   1      28.843  17.242   7.710  0.00  0.00     0.099 A 
ENDROOT
BRANCH   4   7
HETATM    7  C   UNK N   1      32.619  17.478   7.317  0.00  0.00     0.102 C 
BRANCH   7   8
HETATM    8  C   UNK N   1      33.587  16.957   8.348  0.00  0.00     0.081 C 
HETATM    9  N   UNK N   1      33.441  15.759   8.795  0.00  0.00    -0.397 N 
HETATM   10  H   UNK N   1      34.070  15.358   9.505  0.00  0.00     0.156 HD
ATOM     11  HN  UNK N   1      32.677  15.188   8.433  1.00  0.00     0.156 HD
BRANCH   8  12
HETATM   12  C   UNK N   1      34.667  17.835   8.863  0.00  0.00     0.189 C 
HETATM   13  O   UNK N   1      35.316  17.504   9.844  0.00  0.00    -0.645 OA
BRANCH  12  14
HETATM   14  O   UNK N   1      34.931  19.008   8.260  0.00  0.00    -0.772 OA
HETATM   15  H   UNK N   1      35.404  19.688   8.699  0.00  0.00     0.167 HD
ENDBRANCH  12  14
ENDBRANCH   8  12
ENDBRANCH   7   8
ENDBRANCH   4   7
BRANCH   6  16
HETATM   16  O   UNK N   1      27.798  16.681   7.075  0.00  0.00    -0.358 OA
HETATM   17  H   UNK N   1      27.730  15.776   6.845  0.00  0.00     0.217 HD
ENDBRANCH   6  16
BRANCH   5  18
HETATM   18  O   UNK N   1      27.399  18.177   9.361  0.00  0.00    -0.358 OA
HETATM   19  H   UNK N   1      26.755  18.672   8.891  0.00  0.00     0.217 HD
ENDBRANCH   5  18
TORSDOF 6
ENDMDL
MODEL 5
REMARK VINA RESULT:      -5.5      6.178      8.043
REMARK  6 active torsions:
REMARK  status: ('A' for Active; 'I' for Inactive)
REMARK    1  A    between atoms: C_5  and  C_3 
REMARK    2  A    between atoms: C_6  and  C_3 
REMARK    3  A    between atoms: C_9  and  C_6 
REMARK    4  A    between atoms: O_12  and  C_7 
REMARK    5  A    between atoms: O_13  and  C_8 
REMARK    6  A    between atoms: O_15  and  C_9 
ROOT
HETATM    1  C   UNK N   1      34.688  12.578  13.545  0.00  0.00     0.010 A 
HETATM    2  C   UNK N   1      34.794  12.375  14.922  0.00  0.00     0.040 A 
HETATM    3  C   UNK N   1      36.486  14.197  13.637  0.00  0.00     0.047 A 
HETATM    4  C   UNK N   1      35.523  13.500  12.898  0.00  0.00    -0.050 A 
HETATM    5  C   UNK N   1      35.749  13.076  15.660  0.00  0.00     0.098 A 
HETATM    6  C   UNK N   1      36.604  13.984  15.016  0.00  0.00     0.099 A 
ENDROOT
BRANCH   4   7
HETATM    7  C   UNK N   1      35.411  13.707  11.415  0.00  0.00     0.102 C 
BRANCH   7   8
HETATM    8  C   UNK N   1      34.780  15.029  11.060  0.00  0.00     0.081 C 
HETATM    9  N   UNK N   1      33.498  15.102  10.956  0.00  0.00    -0.397 N 
HETATM   10  H   UNK N   1      33.017  15.978  10.708  0.00  0.00     0.156 HD
ATOM     11  HN  UNK N   1      32.942  14.264  11.125  1.00  0.00     0.156 HD
BRANCH   8  12
HETATM   12  C   UNK N   1      35.633  16.214  10.798  0.00  0.00     0.189 C 
HETATM   13  O   UNK N   1      35.125  17.299  10.558  0.00  0.00    -0.645 OA
BRANCH  12  14
HETATM   14  O   UNK N   1      36.973  16.099  10.809  0.00  0.00    -0.772 OA
HETATM   15  H   UNK N   1      37.455  16.063  11.612  0.00  0.00     0.167 HD
ENDBRANCH  12  14
ENDBRANCH   8  12
ENDBRANCH   7   8
ENDBRANCH   4   7
BRANCH   6  16
HETATM   16  O   UNK N   1      37.536  14.650  15.719  0.00  0.00    -0.358 OA
HETATM   17  H   UNK N   1      37.360  15.242  16.423  0.00  0.00     0.217 HD
ENDBRANCH   6  16
BRANCH   5  18
HETATM   18  O   UNK N   1      35.846  12.872  16.984  0.00  0.00    -0.358 OA
HETATM   19  H   UNK N   1      36.645  12.568  17.370  0.00  0.00     0.217 HD
ENDBRANCH   5  18
TORSDOF 6
ENDMDL
MODEL 6
REMARK VINA RESULT:      -5.5      9.814     11.363
REMARK  6 active torsions:
REMARK  status: ('A' for Active; 'I' for Inactive)
REMARK    1  A    between atoms: C_5  and  C_3 
REMARK    2  A    between atoms: C_6  and  C_3 
REMARK    3  A    between atoms: C_9  and  C_6 
REMARK    4  A    between atoms: O_12  and  C_7 
REMARK    5  A    between atoms: O_13  and  C_8 
REMARK    6  A    between atoms: O_15  and  C_9 
ROOT
HETATM    1  C   UNK N   1      21.162  12.312  10.860  0.00  0.00     0.010 A 
HETATM    2  C   UNK N   1      21.682  12.008  12.118  0.00  0.00     0.040 A 
HETATM    3  C   UNK N   1      23.401  12.672  10.011  0.00  0.00     0.047 A 
HETATM    4  C   UNK N   1      22.015  12.659   9.804  0.00  0.00    -0.050 A 
HETATM    5  C   UNK N   1      23.062  12.028  12.327  0.00  0.00     0.098 A 
HETATM    6  C   UNK N   1      23.925  12.353  11.270  0.00  0.00     0.099 A 
ENDROOT
BRANCH   4   7
HETATM    7  C   UNK N   1      21.451  12.976   8.449  0.00  0.00     0.102 C 
BRANCH   7   8
HETATM    8  C   UNK N   1      21.495  14.449   8.132  0.00  0.00     0.081 C 
HETATM    9  N   UNK N   1      22.402  14.890   7.332  0.00  0.00    -0.397 N 
HETATM   10  H   UNK N   1      22.482  15.887   7.089  0.00  0.00     0.156 HD
ATOM     11  HN  UNK N   1      23.063  14.228   6.925  1.00  0.00     0.156 HD
BRANCH   8  12
HETATM   12  C   UNK N   1      20.527  15.375   8.769  0.00  0.00     0.189 C 
HETATM   13  O   UNK N   1      20.762  16.573   8.820  0.00  0.00    -0.645 OA
BRANCH  12  14
HETATM   14  O   UNK N   1      19.389  14.901   9.307  0.00  0.00    -0.772 OA
HETATM   15  H   UNK N   1      18.707  14.544   8.773  0.00  0.00     0.167 HD
ENDBRANCH  12  14
ENDBRANCH   8  12
ENDBRANCH   7   8
ENDBRANCH   4   7
BRANCH   6  16
HETATM   16  O   UNK N   1      25.256  12.359  11.460  0.00  0.00    -0.358 OA
HETATM   17  H   UNK N   1      25.898  12.422  10.781  0.00  0.00     0.217 HD
ENDBRANCH   6  16
BRANCH   5  18
HETATM   18  O   UNK N   1      23.554  11.731  13.541  0.00  0.00    -0.358 OA
HETATM   19  H   UNK N   1      23.021  11.317  14.192  0.00  0.00     0.217 HD
ENDBRANCH   5  18
TORSDOF 6
ENDMDL
MODEL 7
REMARK VINA RESULT:      -5.3      9.361     11.291
REMARK  6 active torsions:
REMARK  status: ('A' for Active; 'I' for Inactive)
REMARK    1  A    between atoms: C_5  and  C_3 
REMARK    2  A    between atoms: C_6  and  C_3 
REMARK    3  A    between atoms: C_9  and  C_6 
REMARK    4  A    between atoms: O_12  and  C_7 
REMARK    5  A    between atoms: O_13  and  C_8 
REMARK    6  A    between atoms: O_15  and  C_9 
ROOT
HETATM    1  C   UNK N   1      23.570  13.086   8.698  0.00  0.00     0.010 A 
HETATM    2  C   UNK N   1      24.545  12.862   9.670  0.00  0.00     0.040 A 
HETATM    3  C   UNK N   1      21.862  12.276  10.211  0.00  0.00     0.047 A 
HETATM    4  C   UNK N   1      22.227  12.782   8.956  0.00  0.00    -0.050 A 
HETATM    5  C   UNK N   1      24.184  12.351  10.917  0.00  0.00     0.098 A 
HETATM    6  C   UNK N   1      22.838  12.064  11.192  0.00  0.00     0.099 A 
ENDROOT
BRANCH   4   7
HETATM    7  C   UNK N   1      21.180  13.034   7.910  0.00  0.00     0.102 C 
BRANCH   7   8
HETATM    8  C   UNK N   1      20.959  14.503   7.653  0.00  0.00     0.081 C 
HETATM    9  N   UNK N   1      21.370  15.013   6.544  0.00  0.00    -0.397 N 
HETATM   10  H   UNK N   1      21.252  16.011   6.322  0.00  0.00     0.156 HD
ATOM     11  HN  UNK N   1      21.828  14.406   5.864  1.00  0.00     0.156 HD
BRANCH   8  12
HETATM   12  C   UNK N   1      20.311  15.348   8.685  0.00  0.00     0.189 C 
HETATM   13  O   UNK N   1      19.413  14.895   9.380  0.00  0.00    -0.645 OA
BRANCH  12  14
HETATM   14  O   UNK N   1      20.698  16.625   8.855  0.00  0.00    -0.772 OA
HETATM   15  H   UNK N   1      20.999  16.939   9.685  0.00  0.00     0.167 HD
ENDBRANCH  12  14
ENDBRANCH   8  12
ENDBRANCH   7   8
ENDBRANCH   4   7
BRANCH   6  16
HETATM   16  O   UNK N   1      22.482  11.586  12.397  0.00  0.00    -0.358 OA
HETATM   17  H   UNK N   1      22.503  10.684  12.648  0.00  0.00     0.217 HD
ENDBRANCH   6  16
BRANCH   5  18
HETATM   18  O   UNK N   1      25.130  12.141  11.848  0.00  0.00    -0.358 OA
HETATM   19  H   UNK N   1      25.663  12.845  12.164  0.00  0.00     0.217 HD
ENDBRANCH   5  18
TORSDOF 6
ENDMDL
MODEL 8
REMARK VINA RESULT:      -5.3      9.717     10.989
REMARK  6 active torsions:
REMARK  status: ('A' for Active; 'I' for Inactive)
REMARK    1  A    between atoms: C_5  and  C_3 
REMARK    2  A    between atoms: C_6  and  C_3 
REMARK    3  A    between atoms: C_9  and  C_6 
REMARK    4  A    between atoms: O_12  and  C_7 
REMARK    5  A    between atoms: O_13  and  C_8 
REMARK    6  A    between atoms: O_15  and  C_9 
ROOT
HETATM    1  C   UNK N   1      35.205  13.419  16.939  0.00  0.00     0.010 A 
HETATM    2  C   UNK N   1      35.129  13.754  18.291  0.00  0.00     0.040 A 
HETATM    3  C   UNK N   1      35.481  11.085  17.523  0.00  0.00     0.047 A 
HETATM    4  C   UNK N   1      35.395  12.087  16.548  0.00  0.00    -0.050 A 
HETATM    5  C   UNK N   1      35.222  12.758  19.264  0.00  0.00     0.098 A 
HETATM    6  C   UNK N   1      35.390  11.419  18.881  0.00  0.00     0.099 A 
ENDROOT
BRANCH   4   7
HETATM    7  C   UNK N   1      35.466  11.730  15.091  0.00  0.00     0.102 C 
BRANCH   7   8
HETATM    8  C   UNK N   1      36.324  12.684  14.301  0.00  0.00     0.081 C 
HETATM    9  N   UNK N   1      37.605  12.613  14.413  0.00  0.00    -0.397 N 
HETATM   10  H   UNK N   1      38.236  13.246  13.903  0.00  0.00     0.156 HD
ATOM     11  HN  UNK N   1      38.006  11.906  15.029  1.00  0.00     0.156 HD
BRANCH   8  12
HETATM   12  C   UNK N   1      35.692  13.712  13.438  0.00  0.00     0.189 C 
HETATM   13  O   UNK N   1      36.207  14.813  13.312  0.00  0.00    -0.645 OA
BRANCH  12  14
HETATM   14  O   UNK N   1      34.539  13.444  12.798  0.00  0.00    -0.772 OA
HETATM   15  H   UNK N   1      34.261  12.563  12.639  0.00  0.00     0.167 HD
ENDBRANCH  12  14
ENDBRANCH   8  12
ENDBRANCH   7   8
ENDBRANCH   4   7
BRANCH   6  16
HETATM   16  O   UNK N   1      35.465  10.453  19.813  0.00  0.00    -0.358 OA
HETATM   17  H   UNK N   1      34.888  10.365  20.545  0.00  0.00     0.217 HD
ENDBRANCH   6  16
BRANCH   5  18
HETATM   18  O   UNK N   1      35.145  13.090  20.564  0.00  0.00    -0.358 OA
HETATM   19  H   UNK N   1      35.891  13.424  21.023  0.00  0.00     0.217 HD
ENDBRANCH   5  18
TORSDOF 6
ENDMDL
MODEL 9
REMARK VINA RESULT:      -5.3      3.686      5.970
REMARK  6 active torsions:
REMARK  status: ('A' for Active; 'I' for Inactive)
REMARK    1  A    between atoms: C_5  and  C_3 
REMARK    2  A    between atoms: C_6  and  C_3 
REMARK    3  A    between atoms: C_9  and  C_6 
REMARK    4  A    between atoms: O_12  and  C_7 
REMARK    5  A    between atoms: O_13  and  C_8 
REMARK    6  A    between atoms: O_15  and  C_9 
ROOT
HETATM    1  C   UNK N   1      36.027  15.038   9.154  0.00  0.00     0.010 A 
HETATM    2  C   UNK N   1      36.889  14.567  10.145  0.00  0.00     0.040 A 
HETATM    3  C   UNK N   1      34.123  14.578  10.577  0.00  0.00     0.047 A 
HETATM    4  C   UNK N   1      34.641  15.033   9.358  0.00  0.00    -0.050 A 
HETATM    5  C   UNK N   1      36.374  14.106  11.357  0.00  0.00     0.098 A 
HETATM    6  C   UNK N   1      34.988  14.118  11.579  0.00  0.00     0.099 A 
ENDROOT
BRANCH   4   7
HETATM    7  C   UNK N   1      33.718  15.550   8.291  0.00  0.00     0.102 C 
BRANCH   7   8
HETATM    8  C   UNK N   1      33.453  17.028   8.420  0.00  0.00     0.081 C 
HETATM    9  N   UNK N   1      32.448  17.425   9.120  0.00  0.00    -0.397 N 
HETATM   10  H   UNK N   1      32.218  18.422   9.233  0.00  0.00     0.156 HD
ATOM     11  HN  UNK N   1      31.861  16.727   9.578  1.00  0.00     0.156 HD
BRANCH   8  12
HETATM   12  C   UNK N   1      34.321  18.002   7.714  0.00  0.00     0.189 C 
HETATM   13  O   UNK N   1      34.468  17.933   6.502  0.00  0.00    -0.645 OA
BRANCH  12  14
HETATM   14  O   UNK N   1      34.963  18.962   8.404  0.00  0.00    -0.772 OA
HETATM   15  H   UNK N   1      35.373  19.684   7.971  0.00  0.00     0.167 HD
ENDBRANCH  12  14
ENDBRANCH   8  12
ENDBRANCH   7   8
ENDBRANCH   4   7
BRANCH   6  16
HETATM   16  O   UNK N   1      34.486  13.691  12.750  0.00  0.00    -0.358 OA
HETATM   17  H   UNK N   1      34.296  12.798  12.962  0.00  0.00     0.217 HD
ENDBRANCH   6  16
BRANCH   5  18
HETATM   18  O   UNK N   1      37.211  13.658  12.307  0.00  0.00    -0.358 OA
HETATM   19  H   UNK N   1      38.078  13.372  12.093  0.00  0.00     0.217 HD
ENDBRANCH   5  18
TORSDOF 6
ENDMDL
