MODEL 1
REMARK VINA RESULT:      -6.2      0.000      0.000
REMARK  5 active torsions:
REMARK  status: ('A' for Active; 'I' for Inactive)
REMARK    1  A    between atoms: C_6  and  C_2 
REMARK    2  A    between atoms: C_14  and  C_6 
REMARK    3  A    between atoms: S_24  and  C_13 
REMARK    4  A    between atoms: S_24  and  C_17 
REMARK    5  A    between atoms: O_22  and  C_18 
ROOT
HETATM    1  C   UNK N   1      25.918  24.770  -4.829  0.00  0.00     0.026 A 
HETATM    2  C   UNK N   1      26.651  24.471  -3.679  0.00  0.00     0.032 A 
HETATM    3  C   UNK N   1      27.729  23.940  -6.200  0.00  0.00     0.039 A 
HETATM    4  C   UNK N   1      26.459  24.508  -6.088  0.00  0.00     0.035 A 
HETATM    5  C   UNK N   1      30.497  22.828  -3.942  0.00  0.00     0.013 A 
HETATM    6  C   UNK N   1      28.484  23.639  -5.052  0.00  0.00     0.012 A 
HETATM    7  C   UNK N   1      27.929  23.915  -3.784  0.00  0.00     0.045 A 
HETATM    8  C   UNK N   1      29.783  23.082  -5.153  0.00  0.00     0.054 A 
HETATM    9  C   UNK N   1      29.883  23.129  -2.705  0.00  0.00     0.148 A 
HETATM   10 Cl   UNK N   1      25.552  24.909  -7.531  0.00  0.00    -0.084 Cl
HETATM   11  N   UNK N   1      28.635  23.650  -2.660  0.00  0.00    -0.336 N 
ATOM     12  HN  UNK N   1      28.212  23.848  -1.753  1.00  0.00     0.168 HD
ENDROOT
BRANCH   8  13
HETATM   13  S   UNK N   1      30.398  22.722  -6.855  0.00  0.00     0.056 S 
HETATM   14  O   UNK N   1      31.858  22.881  -6.395  0.00  0.00    -0.252 OA
BRANCH  13  15
HETATM   15  C   UNK N   1      30.576  20.912  -7.020  0.00  0.00     0.084 C 
HETATM   16  C   UNK N   1      31.655  20.623  -8.073  0.00  0.00     0.018 C 
HETATM   17  C   UNK N   1      31.798  19.124  -8.321  0.00  0.00     0.001 C 
HETATM   18  C   UNK N   1      30.464  18.532  -8.766  0.00  0.00     0.000 C 
HETATM   19  C   UNK N   1      29.389  18.820  -7.724  0.00  0.00     0.001 C 
HETATM   20  C   UNK N   1      29.256  20.328  -7.529  0.00  0.00     0.018 C 
ENDBRANCH  13  15
ENDBRANCH   8  13
BRANCH   5  21
HETATM   21  C   UNK N   1      31.890  22.282  -3.920  0.00  0.00     0.044 C 
BRANCH  21  22
HETATM   22  C   UNK N   1      31.904  20.771  -3.756  0.00  0.00     0.000 C 
HETATM   23  C   UNK N   1      33.230  20.232  -4.250  0.00  0.00     0.005 C 
ENDBRANCH  21  22
ENDBRANCH   5  21
BRANCH   9  24
HETATM   24  O   UNK N   1      30.536  22.905  -1.549  0.00  0.00    -0.346 OA
HETATM   25  H   UNK N   1      30.073  22.706  -0.759  0.00  0.00     0.219 HD
ENDBRANCH   9  24
TORSDOF 5
ENDMDL
MODEL 2
REMARK VINA RESULT:      -6.2     13.786     16.070
REMARK  5 active torsions:
REMARK  status: ('A' for Active; 'I' for Inactive)
REMARK    1  A    between atoms: C_6  and  C_2 
REMARK    2  A    between atoms: C_14  and  C_6 
REMARK    3  A    between atoms: S_24  and  C_13 
REMARK    4  A    between atoms: S_24  and  C_17 
REMARK    5  A    between atoms: O_22  and  C_18 
ROOT
HETATM    1  C   UNK N   1      35.343  14.700  11.994  0.00  0.00     0.026 A 
HETATM    2  C   UNK N   1      35.367  15.984  11.448  0.00  0.00     0.032 A 
HETATM    3  C   UNK N   1      34.589  13.813   9.874  0.00  0.00     0.039 A 
HETATM    4  C   UNK N   1      34.950  13.615  11.207  0.00  0.00     0.035 A 
HETATM    5  C   UNK N   1      34.229  16.658   7.472  0.00  0.00     0.013 A 
HETATM    6  C   UNK N   1      34.601  15.102   9.310  0.00  0.00     0.012 A 
HETATM    7  C   UNK N   1      34.993  16.191  10.117  0.00  0.00     0.045 A 
HETATM    8  C   UNK N   1      34.215  15.317   7.964  0.00  0.00     0.054 A 
HETATM    9  C   UNK N   1      34.632  17.704   8.334  0.00  0.00     0.148 A 
HETATM   10 Cl   UNK N   1      34.893  12.008  11.899  0.00  0.00    -0.084 Cl
HETATM   11  N   UNK N   1      35.003  17.445   9.610  0.00  0.00    -0.336 N 
ATOM     12  HN  UNK N   1      35.298  18.218  10.206  1.00  0.00     0.168 HD
ENDROOT
BRANCH   8  13
HETATM   13  S   UNK N   1      33.760  13.822   6.984  0.00  0.00     0.056 S 
HETATM   14  O   UNK N   1      32.265  14.052   7.269  0.00  0.00    -0.252 OA
BRANCH  13  15
HETATM   15  C   UNK N   1      33.574  14.324   5.238  0.00  0.00     0.084 C 
HETATM   16  C   UNK N   1      32.246  13.764   4.709  0.00  0.00     0.018 C 
HETATM   17  C   UNK N   1      32.066  14.079   3.227  0.00  0.00     0.001 C 
HETATM   18  C   UNK N   1      33.229  13.510   2.420  0.00  0.00     0.000 C 
HETATM   19  C   UNK N   1      34.550  14.062   2.946  0.00  0.00     0.001 C 
HETATM   20  C   UNK N   1      34.706  13.699   4.419  0.00  0.00     0.018 C 
ENDBRANCH  13  15
ENDBRANCH   8  13
BRANCH   5  21
HETATM   21  C   UNK N   1      33.805  17.019   6.083  0.00  0.00     0.044 C 
BRANCH  21  22
HETATM   22  C   UNK N   1      32.328  17.369   6.013  0.00  0.00     0.000 C 
HETATM   23  C   UNK N   1      31.935  17.569   4.564  0.00  0.00     0.005 C 
ENDBRANCH  21  22
ENDBRANCH   5  21
BRANCH   9  24
HETATM   24  O   UNK N   1      34.649  18.978   7.898  0.00  0.00    -0.346 OA
HETATM   25  H   UNK N   1      34.746  19.695   8.493  0.00  0.00     0.219 HD
ENDBRANCH   9  24
TORSDOF 5
ENDMDL
MODEL 3
REMARK VINA RESULT:      -6.2     11.220     12.658
REMARK  5 active torsions:
REMARK  status: ('A' for Active; 'I' for Inactive)
REMARK    1  A    between atoms: C_6  and  C_2 
REMARK    2  A    between atoms: C_14  and  C_6 
REMARK    3  A    between atoms: S_24  and  C_13 
REMARK    4  A    between atoms: S_24  and  C_17 
REMARK    5  A    between atoms: O_22  and  C_18 
ROOT
HETATM    1  C   UNK N   1      26.413  20.820   5.760  0.00  0.00     0.026 A 
HETATM    2  C   UNK N   1      26.888  20.496   7.032  0.00  0.00     0.032 A 
HETATM    3  C   UNK N   1      27.875  19.156   4.789  0.00  0.00     0.039 A 
HETATM    4  C   UNK N   1      26.910  20.152   4.639  0.00  0.00     0.035 A 
HETATM    5  C   UNK N   1      29.835  17.562   7.548  0.00  0.00     0.013 A 
HETATM    6  C   UNK N   1      28.370  18.822   6.063  0.00  0.00     0.012 A 
HETATM    7  C   UNK N   1      27.865  19.509   7.188  0.00  0.00     0.045 A 
HETATM    8  C   UNK N   1      29.366  17.827   6.226  0.00  0.00     0.054 A 
HETATM    9  C   UNK N   1      29.288  18.287   8.631  0.00  0.00     0.148 A 
HETATM   10 Cl   UNK N   1      26.335  20.578   3.041  0.00  0.00    -0.084 Cl
HETATM   11  N   UNK N   1      28.329  19.220   8.426  0.00  0.00    -0.336 N 
ATOM     12  HN  UNK N   1      27.945  19.722   9.227  1.00  0.00     0.168 HD
ENDROOT
BRANCH   8  13
HETATM   13  S   UNK N   1      29.927  16.961   4.697  0.00  0.00     0.056 S 
HETATM   14  O   UNK N   1      31.151  17.888   4.583  0.00  0.00    -0.252 OA
BRANCH  13  15
HETATM   15  C   UNK N   1      30.963  15.543   5.197  0.00  0.00     0.084 C 
HETATM   16  C   UNK N   1      32.365  15.729   4.602  0.00  0.00     0.018 C 
HETATM   17  C   UNK N   1      33.262  14.534   4.915  0.00  0.00     0.001 C 
HETATM   18  C   UNK N   1      32.636  13.250   4.380  0.00  0.00     0.000 C 
HETATM   19  C   UNK N   1      31.241  13.063   4.967  0.00  0.00     0.001 C 
HETATM   20  C   UNK N   1      30.369  14.262   4.606  0.00  0.00     0.018 C 
ENDBRANCH  13  15
ENDBRANCH   8  13
BRANCH   5  21
HETATM   21  C   UNK N   1      30.911  16.566   7.844  0.00  0.00     0.044 C 
BRANCH  21  22
HETATM   22  C   UNK N   1      32.270  17.228   8.007  0.00  0.00     0.000 C 
HETATM   23  C   UNK N   1      33.276  16.189   8.454  0.00  0.00     0.005 C 
ENDBRANCH  21  22
ENDBRANCH   5  21
BRANCH   9  24
HETATM   24  O   UNK N   1      29.716  18.062   9.888  0.00  0.00    -0.346 OA
HETATM   25  H   UNK N   1      29.268  17.467  10.456  0.00  0.00     0.219 HD
ENDBRANCH   9  24
TORSDOF 5
ENDMDL
MODEL 4
REMARK VINA RESULT:      -6.2     11.992     13.418
REMARK  5 active torsions:
REMARK  status: ('A' for Active; 'I' for Inactive)
REMARK    1  A    between atoms: C_6  and  C_2 
REMARK    2  A    between atoms: C_14  and  C_6 
REMARK    3  A    between atoms: S_24  and  C_13 
REMARK    4  A    between atoms: S_24  and  C_17 
REMARK    5  A    between atoms: O_22  and  C_18 
ROOT
HETATM    1  C   UNK N   1      28.139  18.826   8.524  0.00  0.00     0.026 A 
HETATM    2  C   UNK N   1      29.052  18.107   9.298  0.00  0.00     0.032 A 
HETATM    3  C   UNK N   1      29.205  18.012   6.511  0.00  0.00     0.039 A 
HETATM    4  C   UNK N   1      28.219  18.781   7.131  0.00  0.00     0.035 A 
HETATM    5  C   UNK N   1      32.081  15.835   7.503  0.00  0.00     0.013 A 
HETATM    6  C   UNK N   1      30.138  17.288   7.276  0.00  0.00     0.012 A 
HETATM    7  C   UNK N   1      30.051  17.347   8.684  0.00  0.00     0.045 A 
HETATM    8  C   UNK N   1      31.157  16.522   6.658  0.00  0.00     0.054 A 
HETATM    9  C   UNK N   1      31.938  15.937   8.906  0.00  0.00     0.148 A 
HETATM   10 Cl   UNK N   1      27.092  19.704   6.160  0.00  0.00    -0.084 Cl
HETATM   11  N   UNK N   1      30.940  16.672   9.449  0.00  0.00    -0.336 N 
ATOM     12  HN  UNK N   1      30.856  16.720  10.464  1.00  0.00     0.168 HD
ENDROOT
BRANCH   8  13
HETATM   13  S   UNK N   1      31.156  16.479   4.814  0.00  0.00     0.056 S 
HETATM   14  O   UNK N   1      32.282  17.526   4.758  0.00  0.00    -0.252 OA
BRANCH  13  15
HETATM   15  C   UNK N   1      32.279  15.142   4.278  0.00  0.00     0.084 C 
HETATM   16  C   UNK N   1      33.156  15.671   3.135  0.00  0.00     0.018 C 
HETATM   17  C   UNK N   1      34.065  14.576   2.584  0.00  0.00     0.001 C 
HETATM   18  C   UNK N   1      33.233  13.394   2.097  0.00  0.00     0.000 C 
HETATM   19  C   UNK N   1      32.358  12.868   3.230  0.00  0.00     0.001 C 
HETATM   20  C   UNK N   1      31.444  13.982   3.731  0.00  0.00     0.018 C 
ENDBRANCH  13  15
ENDBRANCH   8  13
BRANCH   5  21
HETATM   21  C   UNK N   1      33.223  15.028   6.971  0.00  0.00     0.044 C 
BRANCH  21  22
HETATM   22  C   UNK N   1      34.506  15.839   6.898  0.00  0.00     0.000 C 
HETATM   23  C   UNK N   1      35.540  15.060   6.113  0.00  0.00     0.005 C 
ENDBRANCH  21  22
ENDBRANCH   5  21
BRANCH   9  24
HETATM   24  O   UNK N   1      32.799  15.304   9.726  0.00  0.00    -0.346 OA
HETATM   25  H   UNK N   1      32.693  14.398   9.937  0.00  0.00     0.219 HD
ENDBRANCH   9  24
TORSDOF 5
ENDMDL
MODEL 5
REMARK VINA RESULT:      -6.2     11.480     13.575
REMARK  5 active torsions:
REMARK  status: ('A' for Active; 'I' for Inactive)
REMARK    1  A    between atoms: C_6  and  C_2 
REMARK    2  A    between atoms: C_14  and  C_6 
REMARK    3  A    between atoms: S_24  and  C_13 
REMARK    4  A    between atoms: S_24  and  C_17 
REMARK    5  A    between atoms: O_22  and  C_18 
ROOT
HETATM    1  C   UNK N   1      27.182  19.624   3.773  0.00  0.00     0.026 A 
HETATM    2  C   UNK N   1      26.174  20.444   3.264  0.00  0.00     0.032 A 
HETATM    3  C   UNK N   1      25.520  18.008   4.464  0.00  0.00     0.039 A 
HETATM    4  C   UNK N   1      26.855  18.408   4.376  0.00  0.00     0.035 A 
HETATM    5  C   UNK N   1      22.143  19.336   3.556  0.00  0.00     0.013 A 
HETATM    6  C   UNK N   1      24.491  18.826   3.963  0.00  0.00     0.012 A 
HETATM    7  C   UNK N   1      24.835  20.055   3.361  0.00  0.00     0.045 A 
HETATM    8  C   UNK N   1      23.131  18.440   4.067  0.00  0.00     0.054 A 
HETATM    9  C   UNK N   1      22.555  20.553   2.966  0.00  0.00     0.148 A 
HETATM   10 Cl   UNK N   1      28.116  17.393   5.040  0.00  0.00    -0.084 Cl
HETATM   11  N   UNK N   1      23.868  20.871   2.881  0.00  0.00    -0.336 N 
ATOM     12  HN  UNK N   1      24.137  21.752   2.441  1.00  0.00     0.168 HD
ENDROOT
BRANCH   8  13
HETATM   13  S   UNK N   1      22.794  16.796   4.832  0.00  0.00     0.056 S 
HETATM   14  O   UNK N   1      22.276  17.467   6.117  0.00  0.00    -0.252 OA
BRANCH  13  15
HETATM   15  C   UNK N   1      21.113  16.278   4.343  0.00  0.00     0.084 C 
HETATM   16  C   UNK N   1      20.254  16.153   5.609  0.00  0.00     0.018 C 
HETATM   17  C   UNK N   1      18.854  15.642   5.279  0.00  0.00     0.001 C 
HETATM   18  C   UNK N   1      18.937  14.294   4.569  0.00  0.00     0.000 C 
HETATM   19  C   UNK N   1      19.792  14.415   3.313  0.00  0.00     0.001 C 
HETATM   20  C   UNK N   1      21.190  14.897   3.689  0.00  0.00     0.018 C 
ENDBRANCH  13  15
ENDBRANCH   8  13
BRANCH   5  21
HETATM   21  C   UNK N   1      20.675  19.061   3.643  0.00  0.00     0.044 C 
BRANCH  21  22
HETATM   22  C   UNK N   1      20.003  19.124   2.282  0.00  0.00     0.000 C 
HETATM   23  C   UNK N   1      20.242  17.819   1.551  0.00  0.00     0.005 C 
ENDBRANCH  21  22
ENDBRANCH   5  21
BRANCH   9  24
HETATM   24  O   UNK N   1      21.644  21.418   2.483  0.00  0.00    -0.346 OA
HETATM   25  H   UNK N   1      20.725  21.254   2.563  0.00  0.00     0.219 HD
ENDBRANCH   9  24
TORSDOF 5
ENDMDL
MODEL 6
REMARK VINA RESULT:      -6.1      3.558      7.331
REMARK  5 active torsions:
REMARK  status: ('A' for Active; 'I' for Inactive)
REMARK    1  A    between atoms: C_6  and  C_2 
REMARK    2  A    between atoms: C_14  and  C_6 
REMARK    3  A    between atoms: S_24  and  C_13 
REMARK    4  A    between atoms: S_24  and  C_17 
REMARK    5  A    between atoms: O_22  and  C_18 
ROOT
HETATM    1  C   UNK N   1      29.621  20.111  -7.061  0.00  0.00     0.026 A 
HETATM    2  C   UNK N   1      28.516  20.424  -7.855  0.00  0.00     0.032 A 
HETATM    3  C   UNK N   1      29.379  22.216  -5.894  0.00  0.00     0.039 A 
HETATM    4  C   UNK N   1      30.054  21.008  -6.083  0.00  0.00     0.035 A 
HETATM    5  C   UNK N   1      26.488  24.061  -7.387  0.00  0.00     0.013 A 
HETATM    6  C   UNK N   1      28.269  22.551  -6.691  0.00  0.00     0.012 A 
HETATM    7  C   UNK N   1      27.845  21.638  -7.680  0.00  0.00     0.045 A 
HETATM    8  C   UNK N   1      27.590  23.783  -6.523  0.00  0.00     0.054 A 
HETATM    9  C   UNK N   1      26.116  23.104  -8.358  0.00  0.00     0.148 A 
HETATM   10 Cl   UNK N   1      31.455  20.628  -5.106  0.00  0.00    -0.084 Cl
HETATM   11  N   UNK N   1      26.789  21.935  -8.473  0.00  0.00    -0.336 N 
ATOM     12  HN  UNK N   1      26.492  21.259  -9.176  1.00  0.00     0.168 HD
ENDROOT
BRANCH   8  13
HETATM   13  S   UNK N   1      28.199  24.885  -5.174  0.00  0.00     0.056 S 
HETATM   14  O   UNK N   1      29.154  25.600  -6.147  0.00  0.00    -0.252 OA
BRANCH  13  15
HETATM   15  C   UNK N   1      27.093  26.336  -5.086  0.00  0.00     0.084 C 
HETATM   16  C   UNK N   1      27.919  27.596  -5.377  0.00  0.00     0.018 C 
HETATM   17  C   UNK N   1      27.071  28.857  -5.239  0.00  0.00     0.001 C 
HETATM   18  C   UNK N   1      26.470  28.939  -3.839  0.00  0.00     0.000 C 
HETATM   19  C   UNK N   1      25.651  27.687  -3.546  0.00  0.00     0.001 C 
HETATM   20  C   UNK N   1      26.542  26.454  -3.664  0.00  0.00     0.018 C 
ENDBRANCH  13  15
ENDBRANCH   8  13
BRANCH   5  21
HETATM   21  C   UNK N   1      25.718  25.343  -7.335  0.00  0.00     0.044 C 
BRANCH  21  22
HETATM   22  C   UNK N   1      25.824  26.123  -8.635  0.00  0.00     0.000 C 
HETATM   23  C   UNK N   1      27.252  26.589  -8.818  0.00  0.00     0.005 C 
ENDBRANCH  21  22
ENDBRANCH   5  21
BRANCH   9  24
HETATM   24  O   UNK N   1      25.084  23.343  -9.190  0.00  0.00    -0.346 OA
HETATM   25  H   UNK N   1      25.216  23.737 -10.030  0.00  0.00     0.219 HD
ENDBRANCH   9  24
TORSDOF 5
ENDMDL
MODEL 7
REMARK VINA RESULT:      -6.1      3.056      4.776
REMARK  5 active torsions:
REMARK  status: ('A' for Active; 'I' for Inactive)
REMARK    1  A    between atoms: C_6  and  C_2 
REMARK    2  A    between atoms: C_14  and  C_6 
REMARK    3  A    between atoms: S_24  and  C_13 
REMARK    4  A    between atoms: S_24  and  C_17 
REMARK    5  A    between atoms: O_22  and  C_18 
ROOT
HETATM    1  C   UNK N   1      25.900  28.533  -4.027  0.00  0.00     0.026 A 
HETATM    2  C   UNK N   1      25.316  27.692  -4.977  0.00  0.00     0.032 A 
HETATM    3  C   UNK N   1      27.685  26.931  -3.709  0.00  0.00     0.039 A 
HETATM    4  C   UNK N   1      27.083  28.150  -3.391  0.00  0.00     0.035 A 
HETATM    5  C   UNK N   1      27.034  23.990  -5.927  0.00  0.00     0.013 A 
HETATM    6  C   UNK N   1      27.105  26.069  -4.657  0.00  0.00     0.012 A 
HETATM    7  C   UNK N   1      25.907  26.465  -5.289  0.00  0.00     0.045 A 
HETATM    8  C   UNK N   1      27.696  24.820  -4.971  0.00  0.00     0.054 A 
HETATM    9  C   UNK N   1      25.835  24.446  -6.522  0.00  0.00     0.148 A 
HETATM   10 Cl   UNK N   1      27.801  29.190  -2.180  0.00  0.00    -0.084 Cl
HETATM   11  N   UNK N   1      25.316  25.653  -6.197  0.00  0.00    -0.336 N 
ATOM     12  HN  UNK N   1      24.455  25.961  -6.649  1.00  0.00     0.168 HD
ENDROOT
BRANCH   8  13
HETATM   13  S   UNK N   1      29.282  24.418  -4.121  0.00  0.00     0.056 S 
HETATM   14  O   UNK N   1      28.528  23.704  -2.985  0.00  0.00    -0.252 OA
BRANCH  13  15
HETATM   15  C   UNK N   1      29.902  22.838  -4.794  0.00  0.00     0.084 C 
HETATM   16  C   UNK N   1      30.205  21.894  -3.623  0.00  0.00     0.018 C 
HETATM   17  C   UNK N   1      30.806  20.580  -4.113  0.00  0.00     0.001 C 
HETATM   18  C   UNK N   1      32.079  20.845  -4.911  0.00  0.00     0.000 C 
HETATM   19  C   UNK N   1      31.781  21.785  -6.074  0.00  0.00     0.001 C 
HETATM   20  C   UNK N   1      31.213  23.097  -5.540  0.00  0.00     0.018 C 
ENDBRANCH  13  15
ENDBRANCH   8  13
BRANCH   5  21
HETATM   21  C   UNK N   1      27.535  22.634  -6.311  0.00  0.00     0.044 C 
BRANCH  21  22
HETATM   22  C   UNK N   1      28.151  22.628  -7.701  0.00  0.00     0.000 C 
HETATM   23  C   UNK N   1      28.611  21.225  -8.033  0.00  0.00     0.005 C 
ENDBRANCH  21  22
ENDBRANCH   5  21
BRANCH   9  24
HETATM   24  O   UNK N   1      25.187  23.681  -7.421  0.00  0.00    -0.346 OA
HETATM   25  H   UNK N   1      24.255  23.589  -7.401  0.00  0.00     0.219 HD
ENDBRANCH   9  24
TORSDOF 5
ENDMDL
MODEL 8
REMARK VINA RESULT:      -6.1      3.278      6.020
REMARK  5 active torsions:
REMARK  status: ('A' for Active; 'I' for Inactive)
REMARK    1  A    between atoms: C_6  and  C_2 
REMARK    2  A    between atoms: C_14  and  C_6 
REMARK    3  A    between atoms: S_24  and  C_13 
REMARK    4  A    between atoms: S_24  and  C_17 
REMARK    5  A    between atoms: O_22  and  C_18 
ROOT
HETATM    1  C   UNK N   1      30.956  21.607  -3.723  0.00  0.00     0.026 A 
HETATM    2  C   UNK N   1      30.109  22.496  -3.058  0.00  0.00     0.032 A 
HETATM    3  C   UNK N   1      29.708  21.945  -5.767  0.00  0.00     0.039 A 
HETATM    4  C   UNK N   1      30.753  21.330  -5.076  0.00  0.00     0.035 A 
HETATM    5  C   UNK N   1      26.911  24.325  -5.055  0.00  0.00     0.013 A 
HETATM    6  C   UNK N   1      28.840  22.837  -5.111  0.00  0.00     0.012 A 
HETATM    7  C   UNK N   1      29.052  23.104  -3.741  0.00  0.00     0.045 A 
HETATM    8  C   UNK N   1      27.763  23.451  -5.797  0.00  0.00     0.054 A 
HETATM    9  C   UNK N   1      27.178  24.548  -3.685  0.00  0.00     0.148 A 
HETATM   10 Cl   UNK N   1      31.798  20.195  -5.902  0.00  0.00    -0.084 Cl
HETATM   11  N   UNK N   1      28.227  23.947  -3.077  0.00  0.00    -0.336 N 
ATOM     12  HN  UNK N   1      28.402  24.135  -2.090  1.00  0.00     0.168 HD
ENDROOT
BRANCH   8  13
HETATM   13  S   UNK N   1      27.600  23.066  -7.594  0.00  0.00     0.056 S 
HETATM   14  O   UNK N   1      26.231  22.404  -7.360  0.00  0.00    -0.252 OA
BRANCH  13  15
HETATM   15  C   UNK N   1      26.840  24.509  -8.415  0.00  0.00     0.084 C 
HETATM   16  C   UNK N   1      25.727  24.009  -9.347  0.00  0.00     0.018 C 
HETATM   17  C   UNK N   1      25.102  25.161 -10.129  0.00  0.00     0.001 C 
HETATM   18  C   UNK N   1      26.170  25.892 -10.937  0.00  0.00     0.000 C 
HETATM   19  C   UNK N   1      27.278  26.387 -10.014  0.00  0.00     0.001 C 
HETATM   20  C   UNK N   1      27.897  25.204  -9.276  0.00  0.00     0.018 C 
ENDBRANCH  13  15
ENDBRANCH   8  13
BRANCH   5  21
HETATM   21  C   UNK N   1      25.718  24.999  -5.656  0.00  0.00     0.044 C 
BRANCH  21  22
HETATM   22  C   UNK N   1      25.993  26.459  -5.977  0.00  0.00     0.000 C 
HETATM   23  C   UNK N   1      24.779  27.284  -5.606  0.00  0.00     0.005 C 
ENDBRANCH  21  22
ENDBRANCH   5  21
BRANCH   9  24
HETATM   24  O   UNK N   1      26.388  25.363  -2.961  0.00  0.00    -0.346 OA
HETATM   25  H   UNK N   1      26.740  26.092  -2.490  0.00  0.00     0.219 HD
ENDBRANCH   9  24
TORSDOF 5
ENDMDL
MODEL 9
REMARK VINA RESULT:      -6.1     17.111     19.729
REMARK  5 active torsions:
REMARK  status: ('A' for Active; 'I' for Inactive)
REMARK    1  A    between atoms: C_6  and  C_2 
REMARK    2  A    between atoms: C_14  and  C_6 
REMARK    3  A    between atoms: S_24  and  C_13 
REMARK    4  A    between atoms: S_24  and  C_17 
REMARK    5  A    between atoms: O_22  and  C_18 
ROOT
HETATM    1  C   UNK N   1      37.326  11.921  14.323  0.00  0.00     0.026 A 
HETATM    2  C   UNK N   1      37.705  11.417  13.077  0.00  0.00     0.032 A 
HETATM    3  C   UNK N   1      36.245  13.792  13.237  0.00  0.00     0.039 A 
HETATM    4  C   UNK N   1      36.599  13.110  14.402  0.00  0.00     0.035 A 
HETATM    5  C   UNK N   1      36.734  13.449   9.544  0.00  0.00     0.013 A 
HETATM    6  C   UNK N   1      36.626  13.302  11.974  0.00  0.00     0.012 A 
HETATM    7  C   UNK N   1      37.365  12.102  11.908  0.00  0.00     0.045 A 
HETATM    8  C   UNK N   1      36.290  13.998  10.786  0.00  0.00     0.054 A 
HETATM    9  C   UNK N   1      37.473  12.244   9.548  0.00  0.00     0.148 A 
HETATM   10 Cl   UNK N   1      36.148  13.757  15.965  0.00  0.00    -0.084 Cl
HETATM   11  N   UNK N   1      37.758  11.611  10.710  0.00  0.00    -0.336 N 
ATOM     12  HN  UNK N   1      38.284  10.737  10.682  1.00  0.00     0.168 HD
ENDROOT
BRANCH   8  13
HETATM   13  S   UNK N   1      35.286  15.533  10.982  0.00  0.00     0.056 S 
HETATM   14  O   UNK N   1      36.528  16.412  10.752  0.00  0.00    -0.252 OA
BRANCH  13  15
HETATM   15  C   UNK N   1      34.592  15.967   9.349  0.00  0.00     0.084 C 
HETATM   16  C   UNK N   1      34.731  17.482   9.148  0.00  0.00     0.018 C 
HETATM   17  C   UNK N   1      34.095  17.926   7.834  0.00  0.00     0.001 C 
HETATM   18  C   UNK N   1      32.622  17.529   7.799  0.00  0.00     0.000 C 
HETATM   19  C   UNK N   1      32.481  16.025   8.002  0.00  0.00     0.001 C 
HETATM   20  C   UNK N   1      33.100  15.627   9.338  0.00  0.00     0.018 C 
ENDBRANCH  13  15
ENDBRANCH   8  13
BRANCH   5  21
HETATM   21  C   UNK N   1      36.479  14.111   8.227  0.00  0.00     0.044 C 
BRANCH  21  22
HETATM   22  C   UNK N   1      35.406  13.390   7.427  0.00  0.00     0.000 C 
HETATM   23  C   UNK N   1      35.157  14.146   6.139  0.00  0.00     0.005 C 
ENDBRANCH  21  22
ENDBRANCH   5  21
BRANCH   9  24
HETATM   24  O   UNK N   1      37.908  11.708   8.392  0.00  0.00    -0.346 OA
HETATM   25  H   UNK N   1      37.608  12.027   7.564  0.00  0.00     0.219 HD
ENDBRANCH   9  24
TORSDOF 5
ENDMDL
