MODEL 1
REMARK VINA RESULT:      -5.2      0.000      0.000
REMARK  2 active torsions:
REMARK  status: ('A' for Active; 'I' for Inactive)
REMARK    1  A    between atoms: C_2  and  N_3 
REMARK       I    between atoms: N_3  and  C_4 
REMARK       I    between atoms: C_11  and  N_12 
REMARK    2  A    between atoms: N_12  and  C_13 
ROOT
HETATM    1  N   UNK N   1      36.856  14.809  14.207  0.00  0.00    -0.226 N 
HETATM    2  C   UNK N   1      36.017  13.918  13.499  0.00  0.00     0.694 A 
HETATM    3  N   UNK N   1      35.388  12.898  14.142  0.00  0.00    -0.165 N 
ATOM      4  HN  UNK N   1      35.506  12.781  15.148  1.00  0.00     0.186 HD
HETATM    5  C   UNK N   1      34.605  12.036  13.445  0.00  0.00     0.208 A 
HETATM    6 Cl   UNK N   1      33.785  10.734  14.277  0.00  0.00    -0.044 Cl
HETATM    7  N   UNK N   1      34.458  12.186  12.104  0.00  0.00    -0.165 N 
ATOM      8  HN  UNK N   1      33.878  11.529  11.580  1.00  0.00     0.186 HD
HETATM    9  C   UNK N   1      35.078  13.205  11.459  0.00  0.00     0.695 A 
HETATM   10  N   UNK N   1      34.917  13.348  10.057  0.00  0.00    -0.222 N 
HETATM   11  N   UNK N   1      35.854  14.073  12.162  0.00  0.00    -0.022 N 
ATOM     12  HN  UNK N   1      36.316  14.845  11.680  1.00  0.00     0.203 HD
HETATM   13  H   UNK N   1      37.287  15.549  13.723  0.00  0.00     0.177 HD
HETATM   14  H   UNK N   1      34.465  12.627   9.564  0.00  0.00     0.178 HD
ENDROOT
BRANCH  10  15
HETATM   15  C   UNK N   1      35.383  14.500   9.317  0.00  0.00     0.091 C 
HETATM   16  C   UNK N   1      34.240  15.481   9.161  0.00  0.00     0.032 C 
HETATM   17  C   UNK N   1      35.883  14.113   7.937  0.00  0.00     0.032 C 
ENDBRANCH  10  15
BRANCH   1  18
HETATM   18  C   UNK N   1      37.096  14.663  15.619  0.00  0.00     0.133 C 
HETATM   19  C   UNK N   1      37.475  16.005  16.206  0.00  0.00     0.027 C 
ENDBRANCH   1  18
TORSDOF 2
ENDMDL
MODEL 2
REMARK VINA RESULT:      -5.1      2.766      5.570
REMARK  2 active torsions:
REMARK  status: ('A' for Active; 'I' for Inactive)
REMARK    1  A    between atoms: C_2  and  N_3 
REMARK       I    between atoms: N_3  and  C_4 
REMARK       I    between atoms: C_11  and  N_12 
REMARK    2  A    between atoms: N_12  and  C_13 
ROOT
HETATM    1  N   UNK N   1      34.762  16.328  10.814  0.00  0.00    -0.226 N 
HETATM    2  C   UNK N   1      35.750  15.345  11.051  0.00  0.00     0.694 A 
HETATM    3  N   UNK N   1      36.565  14.925  10.046  0.00  0.00    -0.165 N 
ATOM      4  HN  UNK N   1      36.478  15.333   9.116  1.00  0.00     0.186 HD
HETATM    5  C   UNK N   1      37.492  13.962  10.282  0.00  0.00     0.208 A 
HETATM    6 Cl   UNK N   1      38.550  13.435   8.992  0.00  0.00    -0.044 Cl
HETATM    7  N   UNK N   1      37.599  13.411  11.517  0.00  0.00    -0.165 N 
ATOM      8  HN  UNK N   1      38.290  12.679  11.689  1.00  0.00     0.186 HD
HETATM    9  C   UNK N   1      36.793  13.831  12.524  0.00  0.00     0.695 A 
HETATM   10  N   UNK N   1      36.914  13.245  13.810  0.00  0.00    -0.222 N 
HETATM   11  N   UNK N   1      35.871  14.803  12.288  0.00  0.00    -0.022 N 
ATOM     12  HN  UNK N   1      35.268  15.124  13.045  1.00  0.00     0.203 HD
HETATM   13  H   UNK N   1      34.194  16.627  11.561  0.00  0.00     0.177 HD
HETATM   14  H   UNK N   1      37.492  12.454  13.909  0.00  0.00     0.178 HD
ENDROOT
BRANCH  10  15
HETATM   15  C   UNK N   1      36.233  13.750  14.981  0.00  0.00     0.091 C 
HETATM   16  C   UNK N   1      37.119  14.770  15.664  0.00  0.00     0.032 C 
HETATM   17  C   UNK N   1      35.921  12.640  15.969  0.00  0.00     0.032 C 
ENDBRANCH  10  15
BRANCH   1  18
HETATM   18  C   UNK N   1      34.564  16.905   9.510  0.00  0.00     0.133 C 
HETATM   19  C   UNK N   1      33.353  16.272   8.859  0.00  0.00     0.027 C 
ENDBRANCH   1  18
TORSDOF 2
ENDMDL
MODEL 3
REMARK VINA RESULT:      -5.0      2.537      5.204
REMARK  2 active torsions:
REMARK  status: ('A' for Active; 'I' for Inactive)
REMARK    1  A    between atoms: C_2  and  N_3 
REMARK       I    between atoms: N_3  and  C_4 
REMARK       I    between atoms: C_11  and  N_12 
REMARK    2  A    between atoms: N_12  and  C_13 
ROOT
HETATM    1  N   UNK N   1      36.051  14.351  11.513  0.00  0.00    -0.226 N 
HETATM    2  C   UNK N   1      36.234  14.124  12.896  0.00  0.00     0.694 A 
HETATM    3  N   UNK N   1      36.733  15.101  13.699  0.00  0.00    -0.165 N 
ATOM      4  HN  UNK N   1      36.963  16.014  13.308  1.00  0.00     0.186 HD
HETATM    5  C   UNK N   1      36.927  14.861  15.021  0.00  0.00     0.208 A 
HETATM    6 Cl   UNK N   1      37.554  16.124  16.056  0.00  0.00    -0.044 Cl
HETATM    7  N   UNK N   1      36.632  13.641  15.539  0.00  0.00    -0.165 N 
ATOM      8  HN  UNK N   1      36.789  13.459  16.531  1.00  0.00     0.186 HD
HETATM    9  C   UNK N   1      36.128  12.666  14.743  0.00  0.00     0.695 A 
HETATM   10  N   UNK N   1      35.827  11.395  15.297  0.00  0.00    -0.222 N 
HETATM   11  N   UNK N   1      35.926  12.912  13.421  0.00  0.00    -0.022 N 
ATOM     12  HN  UNK N   1      35.541  12.182  12.822  1.00  0.00     0.203 HD
HETATM   13  H   UNK N   1      35.673  13.633  10.954  0.00  0.00     0.177 HD
HETATM   14  H   UNK N   1      36.113  11.209  16.221  0.00  0.00     0.178 HD
ENDROOT
BRANCH  10  15
HETATM   15  C   UNK N   1      35.120  10.361  14.576  0.00  0.00     0.091 C 
HETATM   16  C   UNK N   1      33.633  10.641  14.643  0.00  0.00     0.032 C 
HETATM   17  C   UNK N   1      35.382   8.987  15.167  0.00  0.00     0.032 C 
ENDBRANCH  10  15
BRANCH   1  18
HETATM   18  C   UNK N   1      36.402  15.605  10.898  0.00  0.00     0.133 C 
HETATM   19  C   UNK N   1      35.177  16.491  10.829  0.00  0.00     0.027 C 
ENDBRANCH   1  18
TORSDOF 2
ENDMDL
MODEL 4
REMARK VINA RESULT:      -4.9      1.971      3.545
REMARK  2 active torsions:
REMARK  status: ('A' for Active; 'I' for Inactive)
REMARK    1  A    between atoms: C_2  and  N_3 
REMARK       I    between atoms: N_3  and  C_4 
REMARK       I    between atoms: C_11  and  N_12 
REMARK    2  A    between atoms: N_12  and  C_13 
ROOT
HETATM    1  N   UNK N   1      34.333  11.489  12.599  0.00  0.00    -0.226 N 
HETATM    2  C   UNK N   1      34.977  12.738  12.758  0.00  0.00     0.694 A 
HETATM    3  N   UNK N   1      35.730  12.994  13.861  0.00  0.00    -0.165 N 
ATOM      4  HN  UNK N   1      35.850  12.275  14.574  1.00  0.00     0.186 HD
HETATM    5  C   UNK N   1      36.323  14.206  14.012  0.00  0.00     0.208 A 
HETATM    6 Cl   UNK N   1      37.305  14.528  15.424  0.00  0.00    -0.044 Cl
HETATM    7  N   UNK N   1      36.154  15.166  13.068  0.00  0.00    -0.165 N 
ATOM      8  HN  UNK N   1      36.590  16.080  13.190  1.00  0.00     0.186 HD
HETATM    9  C   UNK N   1      35.408  14.913  11.964  0.00  0.00     0.695 A 
HETATM   10  N   UNK N   1      35.238  15.927  10.986  0.00  0.00    -0.222 N 
HETATM   11  N   UNK N   1      34.824  13.695  11.810  0.00  0.00    -0.022 N 
ATOM     12  HN  UNK N   1      34.268  13.501  10.977  1.00  0.00     0.203 HD
HETATM   13  H   UNK N   1      33.805  11.322  11.785  0.00  0.00     0.177 HD
HETATM   14  H   UNK N   1      35.557  16.835  11.195  0.00  0.00     0.178 HD
ENDROOT
BRANCH  10  15
HETATM   15  C   UNK N   1      34.620  15.695   9.700  0.00  0.00     0.091 C 
HETATM   16  C   UNK N   1      35.620  15.012   8.790  0.00  0.00     0.032 C 
HETATM   17  C   UNK N   1      34.179  16.993   9.048  0.00  0.00     0.032 C 
ENDBRANCH  10  15
BRANCH   1  18
HETATM   18  C   UNK N   1      34.428  10.455  13.596  0.00  0.00     0.133 C 
HETATM   19  C   UNK N   1      33.458  10.748  14.720  0.00  0.00     0.027 C 
ENDBRANCH   1  18
TORSDOF 2
ENDMDL
MODEL 5
REMARK VINA RESULT:      -4.8      9.086     11.187
REMARK  2 active torsions:
REMARK  status: ('A' for Active; 'I' for Inactive)
REMARK    1  A    between atoms: C_2  and  N_3 
REMARK       I    between atoms: N_3  and  C_4 
REMARK       I    between atoms: C_11  and  N_12 
REMARK    2  A    between atoms: N_12  and  C_13 
ROOT
HETATM    1  N   UNK N   1      27.888  18.130   8.312  0.00  0.00    -0.226 N 
HETATM    2  C   UNK N   1      28.411  18.090   6.999  0.00  0.00     0.694 A 
HETATM    3  N   UNK N   1      29.623  17.525   6.753  0.00  0.00    -0.165 N 
ATOM      4  HN  UNK N   1      30.156  17.109   7.516  1.00  0.00     0.186 HD
HETATM    5  C   UNK N   1      30.124  17.516   5.491  0.00  0.00     0.208 A 
HETATM    6 Cl   UNK N   1      31.677  16.775   5.173  0.00  0.00    -0.044 Cl
HETATM    7  N   UNK N   1      29.420  18.081   4.478  0.00  0.00    -0.165 N 
ATOM      8  HN  UNK N   1      29.804  18.083   3.532  1.00  0.00     0.186 HD
HETATM    9  C   UNK N   1      28.208  18.640   4.717  0.00  0.00     0.695 A 
HETATM   10  N   UNK N   1      27.484  19.228   3.649  0.00  0.00    -0.222 N 
HETATM   11  N   UNK N   1      27.704  18.638   5.980  0.00  0.00    -0.022 N 
ATOM     12  HN  UNK N   1      26.790  19.053   6.162  1.00  0.00     0.203 HD
HETATM   13  H   UNK N   1      27.001  18.530   8.463  0.00  0.00     0.177 HD
HETATM   14  H   UNK N   1      27.937  19.334   2.781  0.00  0.00     0.178 HD
ENDROOT
BRANCH  10  15
HETATM   15  C   UNK N   1      26.116  19.680   3.770  0.00  0.00     0.091 C 
HETATM   16  C   UNK N   1      25.190  18.492   3.613  0.00  0.00     0.032 C 
HETATM   17  C   UNK N   1      25.770  20.708   2.707  0.00  0.00     0.032 C 
ENDBRANCH  10  15
BRANCH   1  18
HETATM   18  C   UNK N   1      28.617  17.600   9.435  0.00  0.00     0.133 C 
HETATM   19  C   UNK N   1      29.641  18.615   9.894  0.00  0.00     0.027 C 
ENDBRANCH   1  18
TORSDOF 2
ENDMDL
MODEL 6
REMARK VINA RESULT:      -4.8      5.020      7.495
REMARK  2 active torsions:
REMARK  status: ('A' for Active; 'I' for Inactive)
REMARK    1  A    between atoms: C_2  and  N_3 
REMARK       I    between atoms: N_3  and  C_4 
REMARK       I    between atoms: C_11  and  N_12 
REMARK    2  A    between atoms: N_12  and  C_13 
ROOT
HETATM    1  N   UNK N   1      30.549  17.797   9.349  0.00  0.00    -0.226 N 
HETATM    2  C   UNK N   1      31.691  17.335   8.655  0.00  0.00     0.694 A 
HETATM    3  N   UNK N   1      31.873  17.637   7.342  0.00  0.00    -0.165 N 
ATOM      4  HN  UNK N   1      31.192  18.217   6.853  1.00  0.00     0.186 HD
HETATM    5  C   UNK N   1      32.962  17.165   6.681  0.00  0.00     0.208 A 
HETATM    6 Cl   UNK N   1      33.203  17.568   4.996  0.00  0.00    -0.044 Cl
HETATM    7  N   UNK N   1      33.862  16.383   7.329  0.00  0.00    -0.165 N 
ATOM      8  HN  UNK N   1      34.673  16.020   6.827  1.00  0.00     0.186 HD
HETATM    9  C   UNK N   1      33.687  16.084   8.640  0.00  0.00     0.695 A 
HETATM   10  N   UNK N   1      34.635  15.263   9.304  0.00  0.00    -0.222 N 
HETATM   11  N   UNK N   1      32.601  16.566   9.302  0.00  0.00    -0.022 N 
ATOM     12  HN  UNK N   1      32.472  16.348  10.290  1.00  0.00     0.203 HD
HETATM   13  H   UNK N   1      30.447  17.579  10.304  0.00  0.00     0.177 HD
HETATM   14  H   UNK N   1      35.329  14.821   8.763  0.00  0.00     0.178 HD
ENDROOT
BRANCH  10  15
HETATM   15  C   UNK N   1      34.633  15.044  10.733  0.00  0.00     0.091 C 
HETATM   16  C   UNK N   1      35.607  16.006  11.380  0.00  0.00     0.032 C 
HETATM   17  C   UNK N   1      35.049  13.625  11.082  0.00  0.00     0.032 C 
ENDBRANCH  10  15
BRANCH   1  18
HETATM   18  C   UNK N   1      29.533  18.581   8.698  0.00  0.00     0.133 C 
HETATM   19  C   UNK N   1      28.168  18.032   9.056  0.00  0.00     0.027 C 
ENDBRANCH   1  18
TORSDOF 2
ENDMDL
MODEL 7
REMARK VINA RESULT:      -4.7     19.984     22.915
REMARK  2 active torsions:
REMARK  status: ('A' for Active; 'I' for Inactive)
REMARK    1  A    between atoms: C_2  and  N_3 
REMARK       I    between atoms: N_3  and  C_4 
REMARK       I    between atoms: C_11  and  N_12 
REMARK    2  A    between atoms: N_12  and  C_13 
ROOT
HETATM    1  N   UNK N   1      26.219  22.418  -7.147  0.00  0.00    -0.226 N 
HETATM    2  C   UNK N   1      26.355  23.539  -6.297  0.00  0.00     0.694 A 
HETATM    3  N   UNK N   1      25.504  24.595  -6.399  0.00  0.00    -0.165 N 
ATOM      4  HN  UNK N   1      24.747  24.575  -7.082  1.00  0.00     0.186 HD
HETATM    5  C   UNK N   1      25.662  25.675  -5.593  0.00  0.00     0.208 A 
HETATM    6 Cl   UNK N   1      24.556  27.026  -5.715  0.00  0.00    -0.044 Cl
HETATM    7  N   UNK N   1      26.677  25.707  -4.692  0.00  0.00    -0.165 N 
ATOM      8  HN  UNK N   1      26.801  26.526  -4.095  1.00  0.00     0.186 HD
HETATM    9  C   UNK N   1      27.525  24.655  -4.582  0.00  0.00     0.695 A 
HETATM   10  N   UNK N   1      28.582  24.702  -3.639  0.00  0.00    -0.222 N 
HETATM   11  N   UNK N   1      27.358  23.569  -5.385  0.00  0.00    -0.022 N 
ATOM     12  HN  UNK N   1      27.991  22.773  -5.299  1.00  0.00     0.203 HD
HETATM   13  H   UNK N   1      26.838  21.659  -7.043  0.00  0.00     0.177 HD
HETATM   14  H   UNK N   1      28.756  25.553  -3.176  0.00  0.00     0.178 HD
ENDROOT
BRANCH  10  15
HETATM   15  C   UNK N   1      29.417  23.565  -3.322  0.00  0.00     0.091 C 
HETATM   16  C   UNK N   1      29.009  23.016  -1.971  0.00  0.00     0.032 C 
HETATM   17  C   UNK N   1      30.886  23.946  -3.268  0.00  0.00     0.032 C 
ENDBRANCH  10  15
BRANCH   1  18
HETATM   18  C   UNK N   1      25.198  22.355  -8.160  0.00  0.00     0.133 C 
HETATM   19  C   UNK N   1      25.565  21.298  -9.179  0.00  0.00     0.027 C 
ENDBRANCH   1  18
TORSDOF 2
ENDMDL
MODEL 8
REMARK VINA RESULT:      -4.7      2.566      3.051
REMARK  2 active torsions:
REMARK  status: ('A' for Active; 'I' for Inactive)
REMARK    1  A    between atoms: C_2  and  N_3 
REMARK       I    between atoms: N_3  and  C_4 
REMARK       I    between atoms: C_11  and  N_12 
REMARK    2  A    between atoms: N_12  and  C_13 
ROOT
HETATM    1  N   UNK N   1      34.901  13.220  16.330  0.00  0.00    -0.226 N 
HETATM    2  C   UNK N   1      35.754  12.926  15.241  0.00  0.00     0.694 A 
HETATM    3  N   UNK N   1      36.713  11.968  15.350  0.00  0.00    -0.165 N 
ATOM      4  HN  UNK N   1      36.810  11.441  16.217  1.00  0.00     0.186 HD
HETATM    5  C   UNK N   1      37.541  11.715  14.305  0.00  0.00     0.208 A 
HETATM    6 Cl   UNK N   1      38.764  10.471  14.442  0.00  0.00    -0.044 Cl
HETATM    7  N   UNK N   1      37.419  12.425  13.155  0.00  0.00    -0.165 N 
ATOM      8  HN  UNK N   1      38.050  12.240  12.375  1.00  0.00     0.186 HD
HETATM    9  C   UNK N   1      36.460  13.377  13.039  0.00  0.00     0.695 A 
HETATM   10  N   UNK N   1      36.346  14.113  11.832  0.00  0.00    -0.222 N 
HETATM   11  N   UNK N   1      35.625  13.622  14.084  0.00  0.00    -0.022 N 
ATOM     12  HN  UNK N   1      34.899  14.333  13.997  1.00  0.00     0.203 HD
HETATM   13  H   UNK N   1      34.204  13.907  16.221  0.00  0.00     0.177 HD
HETATM   14  H   UNK N   1      37.050  14.007  11.153  0.00  0.00     0.178 HD
ENDROOT
BRANCH  10  15
HETATM   15  C   UNK N   1      35.248  15.010  11.550  0.00  0.00     0.091 C 
HETATM   16  C   UNK N   1      34.335  14.366  10.527  0.00  0.00     0.032 C 
HETATM   17  C   UNK N   1      35.737  16.337  10.996  0.00  0.00     0.032 C 
ENDBRANCH  10  15
BRANCH   1  18
HETATM   18  C   UNK N   1      35.023  12.540  17.593  0.00  0.00     0.133 C 
HETATM   19  C   UNK N   1      35.186  13.559  18.699  0.00  0.00     0.027 C 
ENDBRANCH   1  18
TORSDOF 2
ENDMDL
MODEL 9
REMARK VINA RESULT:      -4.7      4.599      6.371
REMARK  2 active torsions:
REMARK  status: ('A' for Active; 'I' for Inactive)
REMARK    1  A    between atoms: C_2  and  N_3 
REMARK       I    between atoms: N_3  and  C_4 
REMARK       I    between atoms: C_11  and  N_12 
REMARK    2  A    between atoms: N_12  and  C_13 
ROOT
HETATM    1  N   UNK N   1      33.630  14.877  10.797  0.00  0.00    -0.226 N 
HETATM    2  C   UNK N   1      33.308  15.383   9.517  0.00  0.00     0.694 A 
HETATM    3  N   UNK N   1      34.156  15.207   8.468  0.00  0.00    -0.165 N 
ATOM      4  HN  UNK N   1      35.025  14.690   8.597  1.00  0.00     0.186 HD
HETATM    5  C   UNK N   1      33.845  15.720   7.251  0.00  0.00     0.208 A 
HETATM    6 Cl   UNK N   1      34.929  15.478   5.899  0.00  0.00    -0.044 Cl
HETATM    7  N   UNK N   1      32.694  16.418   7.082  0.00  0.00    -0.165 N 
ATOM      8  HN  UNK N   1      32.468  16.812   6.168  1.00  0.00     0.186 HD
HETATM    9  C   UNK N   1      31.842  16.591   8.123  0.00  0.00     0.695 A 
HETATM   10  N   UNK N   1      30.643  17.324   7.934  0.00  0.00    -0.222 N 
HETATM   11  N   UNK N   1      32.151  16.067   9.340  0.00  0.00    -0.022 N 
ATOM     12  HN  UNK N   1      31.509  16.191  10.123  1.00  0.00     0.203 HD
HETATM   13  H   UNK N   1      32.993  15.003  11.537  0.00  0.00     0.177 HD
HETATM   14  H   UNK N   1      30.519  17.804   7.083  0.00  0.00     0.178 HD
ENDROOT
BRANCH  10  15
HETATM   15  C   UNK N   1      29.594  17.404   8.926  0.00  0.00     0.091 C 
HETATM   16  C   UNK N   1      28.252  17.395   8.225  0.00  0.00     0.032 C 
HETATM   17  C   UNK N   1      29.702  18.672   9.754  0.00  0.00     0.032 C 
ENDBRANCH  10  15
BRANCH   1  18
HETATM   18  C   UNK N   1      34.865  14.180  11.048  0.00  0.00     0.133 C 
HETATM   19  C   UNK N   1      35.589  14.839  12.202  0.00  0.00     0.027 C 
ENDBRANCH   1  18
TORSDOF 2
ENDMDL
