MODEL 1
REMARK VINA RESULT:      -7.6      0.000      0.000
REMARK  0 active torsions:
REMARK  status: ('A' for Active; 'I' for Inactive)
ROOT
HETATM    1  O   UNK N   1      24.484  23.559  -8.585  0.00  0.00    -0.297 OA
HETATM    2  O   UNK N   1      32.711  21.416  -2.012  0.00  0.00    -0.298 OA
HETATM    3  C   UNK N   1      31.341  23.468  -5.455  0.00  0.00     0.016 C 
HETATM    4  C   UNK N   1      27.287  24.385  -8.311  0.00  0.00     0.024 C 
HETATM    5  C   UNK N   1      30.152  22.595  -5.027  0.00  0.00    -0.036 C 
HETATM    6  C   UNK N   1      26.656  23.135  -7.697  0.00  0.00     0.021 C 
HETATM    7  C   UNK N   1      28.970  22.834  -6.056  0.00  0.00    -0.002 C 
HETATM    8  C   UNK N   1      28.505  21.544  -6.778  0.00  0.00    -0.004 C 
HETATM    9  C   UNK N   1      27.526  21.883  -7.935  0.00  0.00     0.006 C 
HETATM   10  C   UNK N   1      30.567  21.099  -4.971  0.00  0.00     0.001 C 
HETATM   11  C   UNK N   1      26.406  23.364  -6.206  0.00  0.00     0.018 C 
HETATM   12  C   UNK N   1      27.728  23.532  -5.420  0.00  0.00     0.007 C 
HETATM   13  C   UNK N   1      29.683  20.739  -7.343  0.00  0.00     0.006 C 
HETATM   14  C   UNK N   1      30.847  20.545  -6.366  0.00  0.00     0.006 C 
HETATM   15  C   UNK N   1      26.554  20.736  -8.215  0.00  0.00     0.013 C 
HETATM   16  C   UNK N   1      29.764  22.977  -3.585  0.00  0.00     0.017 C 
HETATM   17  C   UNK N   1      25.357  21.377  -8.911  0.00  0.00     0.079 C 
HETATM   18  C   UNK N   1      31.801  20.858  -4.101  0.00  0.00     0.083 C 
HETATM   19  C   UNK N   1      30.874  22.781  -2.545  0.00  0.00     0.079 C 
HETATM   20  C   UNK N   1      25.409  22.777  -8.423  0.00  0.00     0.135 C 
HETATM   21  C   UNK N   1      31.828  21.648  -2.821  0.00  0.00     0.127 C 
ENDROOT
TORSDOF 0
ENDMDL
MODEL 2
REMARK VINA RESULT:      -7.2     23.223     26.994
REMARK  0 active torsions:
REMARK  status: ('A' for Active; 'I' for Inactive)
ROOT
HETATM    1  O   UNK N   1      35.008  11.809  12.151  0.00  0.00    -0.297 OA
HETATM    2  O   UNK N   1      37.035   8.430  22.149  0.00  0.00    -0.298 OA
HETATM    3  C   UNK N   1      34.118   9.291  19.200  0.00  0.00     0.016 C 
HETATM    4  C   UNK N   1      33.462  10.805  14.435  0.00  0.00     0.024 C 
HETATM    5  C   UNK N   1      35.445   9.744  18.574  0.00  0.00    -0.036 C 
HETATM    6  C   UNK N   1      34.880  11.374  14.491  0.00  0.00     0.021 C 
HETATM    7  C   UNK N   1      35.136  10.337  17.137  0.00  0.00    -0.002 C 
HETATM    8  C   UNK N   1      35.583  11.810  16.963  0.00  0.00    -0.004 C 
HETATM    9  C   UNK N   1      35.036  12.399  15.635  0.00  0.00     0.006 C 
HETATM   10  C   UNK N   1      36.147  10.789  19.484  0.00  0.00     0.001 C 
HETATM   11  C   UNK N   1      35.887  10.232  14.627  0.00  0.00     0.018 C 
HETATM   12  C   UNK N   1      35.735   9.487  15.975  0.00  0.00     0.007 C 
HETATM   13  C   UNK N   1      35.121  12.698  18.127  0.00  0.00     0.006 C 
HETATM   14  C   UNK N   1      35.378  12.108  19.518  0.00  0.00     0.006 C 
HETATM   15  C   UNK N   1      35.935  13.510  15.089  0.00  0.00     0.013 C 
HETATM   16  C   UNK N   1      36.394   8.531  18.519  0.00  0.00     0.017 C 
HETATM   17  C   UNK N   1      35.632  13.584  13.596  0.00  0.00     0.079 C 
HETATM   18  C   UNK N   1      36.327  10.300  20.921  0.00  0.00     0.083 C 
HETATM   19  C   UNK N   1      36.720   7.904  19.880  0.00  0.00     0.079 C 
HETATM   20  C   UNK N   1      35.147  12.215  13.295  0.00  0.00     0.135 C 
HETATM   21  C   UNK N   1      36.745   8.860  21.045  0.00  0.00     0.127 C 
ENDROOT
TORSDOF 0
ENDMDL
MODEL 3
REMARK VINA RESULT:      -7.2     15.998     17.632
REMARK  0 active torsions:
REMARK  status: ('A' for Active; 'I' for Inactive)
ROOT
HETATM    1  O   UNK N   1      25.237  16.471   3.921  0.00  0.00    -0.297 OA
HETATM    2  O   UNK N   1      22.911  11.417  13.115  0.00  0.00    -0.298 OA
HETATM    3  C   UNK N   1      23.254  11.170   8.900  0.00  0.00     0.016 C 
HETATM    4  C   UNK N   1      24.501  13.754   4.753  0.00  0.00     0.024 C 
HETATM    5  C   UNK N   1      23.487  12.654   9.220  0.00  0.00    -0.036 C 
HETATM    6  C   UNK N   1      24.285  15.031   5.566  0.00  0.00     0.021 C 
HETATM    7  C   UNK N   1      23.731  13.420   7.854  0.00  0.00    -0.002 C 
HETATM    8  C   UNK N   1      22.714  14.560   7.592  0.00  0.00    -0.004 C 
HETATM    9  C   UNK N   1      22.856  15.101   6.144  0.00  0.00     0.006 C 
HETATM   10  C   UNK N   1      22.276  13.240   9.996  0.00  0.00     0.001 C 
HETATM   11  C   UNK N   1      25.337  15.121   6.671  0.00  0.00     0.018 C 
HETATM   12  C   UNK N   1      25.175  13.990   7.714  0.00  0.00     0.007 C 
HETATM   13  C   UNK N   1      21.264  14.107   7.814  0.00  0.00     0.006 C 
HETATM   14  C   UNK N   1      21.034  13.326   9.112  0.00  0.00     0.006 C 
HETATM   15  C   UNK N   1      22.426  16.566   6.036  0.00  0.00     0.013 C 
HETATM   16  C   UNK N   1      24.690  12.759  10.178  0.00  0.00     0.017 C 
HETATM   17  C   UNK N   1      23.124  17.106   4.793  0.00  0.00     0.079 C 
HETATM   18  C   UNK N   1      21.923  12.431  11.245  0.00  0.00     0.083 C 
HETATM   19  C   UNK N   1      24.519  12.024  11.513  0.00  0.00     0.079 C 
HETATM   20  C   UNK N   1      24.308  16.220   4.674  0.00  0.00     0.135 C 
HETATM   21  C   UNK N   1      23.108  11.955  12.039  0.00  0.00     0.127 C 
ENDROOT
TORSDOF 0
ENDMDL
MODEL 4
REMARK VINA RESULT:      -7.1     20.031     24.332
REMARK  0 active torsions:
REMARK  status: ('A' for Active; 'I' for Inactive)
ROOT
HETATM    1  O   UNK N   1      35.099  10.333  19.021  0.00  0.00    -0.297 OA
HETATM    2  O   UNK N   1      34.301  12.519   8.530  0.00  0.00    -0.298 OA
HETATM    3  C   UNK N   1      36.741  11.147  11.709  0.00  0.00     0.016 C 
HETATM    4  C   UNK N   1      36.804  10.105  16.643  0.00  0.00     0.024 C 
HETATM    5  C   UNK N   1      35.440  11.600  12.388  0.00  0.00    -0.036 C 
HETATM    6  C   UNK N   1      35.563  10.990  16.777  0.00  0.00     0.021 C 
HETATM    7  C   UNK N   1      35.594  11.372  13.950  0.00  0.00    -0.002 C 
HETATM    8  C   UNK N   1      35.427  12.666  14.785  0.00  0.00    -0.004 C 
HETATM    9  C   UNK N   1      35.828  12.421  16.265  0.00  0.00     0.006 C 
HETATM   10  C   UNK N   1      35.140  13.087  12.055  0.00  0.00     0.001 C 
HETATM   11  C   UNK N   1      34.390  10.344  16.040  0.00  0.00     0.018 C 
HETATM   12  C   UNK N   1      34.634  10.280  14.513  0.00  0.00     0.007 C 
HETATM   13  C   UNK N   1      36.263  13.828  14.229  0.00  0.00     0.006 C 
HETATM   14  C   UNK N   1      36.152  14.022  12.714  0.00  0.00     0.006 C 
HETATM   15  C   UNK N   1      35.086  13.357  17.221  0.00  0.00     0.013 C 
HETATM   16  C   UNK N   1      34.273  10.792  11.787  0.00  0.00     0.017 C 
HETATM   17  C   UNK N   1      35.119  12.664  18.579  0.00  0.00     0.079 C 
HETATM   18  C   UNK N   1      35.133  13.369  10.552  0.00  0.00     0.083 C 
HETATM   19  C   UNK N   1      34.083  10.960  10.275  0.00  0.00     0.079 C 
HETATM   20  C   UNK N   1      35.256  11.234  18.210  0.00  0.00     0.135 C 
HETATM   21  C   UNK N   1      34.464  12.309   9.720  0.00  0.00     0.127 C 
ENDROOT
TORSDOF 0
ENDMDL
MODEL 5
REMARK VINA RESULT:      -6.9     11.235     13.239
REMARK  0 active torsions:
REMARK  status: ('A' for Active; 'I' for Inactive)
ROOT
HETATM    1  O   UNK N   1      26.423  15.691   1.889  0.00  0.00    -0.297 OA
HETATM    2  O   UNK N   1      34.436  18.327   8.547  0.00  0.00    -0.298 OA
HETATM    3  C   UNK N   1      31.773  15.327   7.187  0.00  0.00     0.016 C 
HETATM    4  C   UNK N   1      28.092  14.334   3.886  0.00  0.00     0.024 C 
HETATM    5  C   UNK N   1      31.324  16.601   6.457  0.00  0.00    -0.036 C 
HETATM    6  C   UNK N   1      27.883  15.844   3.767  0.00  0.00     0.021 C 
HETATM    7  C   UNK N   1      30.077  16.236   5.549  0.00  0.00    -0.002 C 
HETATM    8  C   UNK N   1      28.805  17.055   5.884  0.00  0.00    -0.004 C 
HETATM    9  C   UNK N   1      27.570  16.484   5.136  0.00  0.00     0.006 C 
HETATM   10  C   UNK N   1      30.980  17.721   7.477  0.00  0.00     0.001 C 
HETATM   11  C   UNK N   1      29.114  16.484   3.123  0.00  0.00     0.018 C 
HETATM   12  C   UNK N   1      30.367  16.355   4.022  0.00  0.00     0.007 C 
HETATM   13  C   UNK N   1      28.507  17.077   7.390  0.00  0.00     0.006 C 
HETATM   14  C   UNK N   1      29.721  17.385   8.273  0.00  0.00     0.006 C 
HETATM   15  C   UNK N   1      26.515  17.559   4.870  0.00  0.00     0.013 C 
HETATM   16  C   UNK N   1      32.515  17.133   5.635  0.00  0.00     0.017 C 
HETATM   17  C   UNK N   1      25.690  17.041   3.697  0.00  0.00     0.079 C 
HETATM   18  C   UNK N   1      32.115  17.994   8.464  0.00  0.00     0.083 C 
HETATM   19  C   UNK N   1      33.759  17.491   6.458  0.00  0.00     0.079 C 
HETATM   20  C   UNK N   1      26.640  16.135   3.007  0.00  0.00     0.135 C 
HETATM   21  C   UNK N   1      33.491  17.990   7.854  0.00  0.00     0.127 C 
ENDROOT
TORSDOF 0
ENDMDL
MODEL 6
REMARK VINA RESULT:      -6.9     11.352     14.880
REMARK  0 active torsions:
REMARK  status: ('A' for Active; 'I' for Inactive)
ROOT
HETATM    1  O   UNK N   1      34.359  16.311   9.485  0.00  0.00    -0.297 OA
HETATM    2  O   UNK N   1      25.753  20.301   4.435  0.00  0.00    -0.298 OA
HETATM    3  C   UNK N   1      27.443  17.064   6.582  0.00  0.00     0.016 C 
HETATM    4  C   UNK N   1      31.589  15.484   8.980  0.00  0.00     0.024 C 
HETATM    5  C   UNK N   1      28.609  18.043   6.379  0.00  0.00    -0.036 C 
HETATM    6  C   UNK N   1      32.362  16.553   8.206  0.00  0.00     0.021 C 
HETATM    7  C   UNK N   1      29.905  17.410   7.036  0.00  0.00    -0.002 C 
HETATM    8  C   UNK N   1      31.073  17.211   6.038  0.00  0.00    -0.004 C 
HETATM    9  C   UNK N   1      32.210  16.371   6.681  0.00  0.00     0.006 C 
HETATM   10  C   UNK N   1      28.818  18.333   4.867  0.00  0.00     0.001 C 
HETATM   11  C   UNK N   1      31.902  17.941   8.649  0.00  0.00     0.018 C 
HETATM   12  C   UNK N   1      30.426  18.208   8.270  0.00  0.00     0.007 C 
HETATM   13  C   UNK N   1      30.619  16.523   4.743  0.00  0.00     0.006 C 
HETATM   14  C   UNK N   1      29.341  17.103   4.129  0.00  0.00     0.006 C 
HETATM   15  C   UNK N   1      33.576  16.700   6.076  0.00  0.00     0.013 C 
HETATM   16  C   UNK N   1      28.225  19.393   7.016  0.00  0.00     0.017 C 
HETATM   17  C   UNK N   1      34.599  16.278   7.125  0.00  0.00     0.079 C 
HETATM   18  C   UNK N   1      27.542  18.806   4.171  0.00  0.00     0.083 C 
HETATM   19  C   UNK N   1      26.968  20.049   6.431  0.00  0.00     0.079 C 
HETATM   20  C   UNK N   1      33.825  16.364   8.388  0.00  0.00     0.135 C 
HETATM   21  C   UNK N   1      26.716  19.777   4.970  0.00  0.00     0.127 C 
ENDROOT
TORSDOF 0
ENDMDL
MODEL 7
REMARK VINA RESULT:      -6.9     15.949     17.859
REMARK  0 active torsions:
REMARK  status: ('A' for Active; 'I' for Inactive)
ROOT
HETATM    1  O   UNK N   1      22.991  10.988  10.710  0.00  0.00    -0.297 OA
HETATM    2  O   UNK N   1      20.748  17.328   2.328  0.00  0.00    -0.298 OA
HETATM    3  C   UNK N   1      23.278  16.556   5.637  0.00  0.00     0.016 C 
HETATM    4  C   UNK N   1      24.163  13.356   9.433  0.00  0.00     0.024 C 
HETATM    5  C   UNK N   1      22.156  15.514   5.758  0.00  0.00    -0.036 C 
HETATM    6  C   UNK N   1      22.724  12.865   9.266  0.00  0.00     0.021 C 
HETATM    7  C   UNK N   1      22.431  14.641   7.052  0.00  0.00    -0.002 C 
HETATM    8  C   UNK N   1      21.279  14.686   8.087  0.00  0.00    -0.004 C 
HETATM    9  C   UNK N   1      21.710  14.018   9.421  0.00  0.00     0.006 C 
HETATM   10  C   UNK N   1      20.770  16.211   5.823  0.00  0.00     0.001 C 
HETATM   11  C   UNK N   1      22.573  12.169   7.914  0.00  0.00     0.018 C 
HETATM   12  C   UNK N   1      22.766  13.152   6.734  0.00  0.00     0.007 C 
HETATM   13  C   UNK N   1      20.814  16.120   8.377  0.00  0.00     0.006 C 
HETATM   14  C   UNK N   1      20.592  16.981   7.129  0.00  0.00     0.006 C 
HETATM   15  C   UNK N   1      20.517  13.434  10.180  0.00  0.00     0.013 C 
HETATM   16  C   UNK N   1      22.140  14.668   4.469  0.00  0.00     0.017 C 
HETATM   17  C   UNK N   1      21.101  12.368  11.101  0.00  0.00     0.079 C 
HETATM   18  C   UNK N   1      20.536  17.177   4.660  0.00  0.00     0.083 C 
HETATM   19  C   UNK N   1      21.893  15.460   3.180  0.00  0.00     0.079 C 
HETATM   20  C   UNK N   1      22.347  11.978  10.397  0.00  0.00     0.135 C 
HETATM   21  C   UNK N   1      21.014  16.676   3.324  0.00  0.00     0.127 C 
ENDROOT
TORSDOF 0
ENDMDL
MODEL 8
REMARK VINA RESULT:      -6.9     11.408     13.420
REMARK  0 active torsions:
REMARK  status: ('A' for Active; 'I' for Inactive)
ROOT
HETATM    1  O   UNK N   1      25.346  19.995   4.394  0.00  0.00    -0.297 OA
HETATM    2  O   UNK N   1      35.048  16.062   6.825  0.00  0.00    -0.298 OA
HETATM    3  C   UNK N   1      30.882  15.347   6.532  0.00  0.00     0.016 C 
HETATM    4  C   UNK N   1      26.473  17.415   5.226  0.00  0.00     0.024 C 
HETATM    5  C   UNK N   1      31.038  16.846   6.239  0.00  0.00    -0.036 C 
HETATM    6  C   UNK N   1      27.143  18.781   5.385  0.00  0.00     0.021 C 
HETATM    7  C   UNK N   1      29.596  17.450   5.978  0.00  0.00    -0.002 C 
HETATM    8  C   UNK N   1      29.216  18.594   6.953  0.00  0.00    -0.004 C 
HETATM    9  C   UNK N   1      27.717  18.969   6.805  0.00  0.00     0.006 C 
HETATM   10  C   UNK N   1      31.752  17.561   7.419  0.00  0.00     0.001 C 
HETATM   11  C   UNK N   1      28.226  18.949   4.320  0.00  0.00     0.018 C 
HETATM   12  C   UNK N   1      29.387  17.945   4.515  0.00  0.00     0.007 C 
HETATM   13  C   UNK N   1      29.494  18.225   8.417  0.00  0.00     0.006 C 
HETATM   14  C   UNK N   1      30.871  17.599   8.665  0.00  0.00     0.006 C 
HETATM   15  C   UNK N   1      27.453  20.429   7.179  0.00  0.00     0.013 C 
HETATM   16  C   UNK N   1      31.973  17.008   5.024  0.00  0.00     0.017 C 
HETATM   17  C   UNK N   1      26.155  20.803   6.473  0.00  0.00     0.079 C 
HETATM   18  C   UNK N   1      33.083  16.906   7.791  0.00  0.00     0.083 C 
HETATM   19  C   UNK N   1      33.380  16.429   5.210  0.00  0.00     0.079 C 
HETATM   20  C   UNK N   1      26.127  19.863   5.325  0.00  0.00     0.135 C 
HETATM   21  C   UNK N   1      33.918  16.473   6.617  0.00  0.00     0.127 C 
ENDROOT
TORSDOF 0
ENDMDL
MODEL 9
REMARK VINA RESULT:      -6.8      1.282      6.516
REMARK  0 active torsions:
REMARK  status: ('A' for Active; 'I' for Inactive)
ROOT
HETATM    1  O   UNK N   1      33.943  20.069  -4.554  0.00  0.00    -0.297 OA
HETATM    2  O   UNK N   1      24.220  22.611  -8.361  0.00  0.00    -0.298 OA
HETATM    3  C   UNK N   1      28.391  23.350  -8.456  0.00  0.00     0.016 C 
HETATM    4  C   UNK N   1      32.835  21.884  -6.577  0.00  0.00     0.024 C 
HETATM    5  C   UNK N   1      28.204  22.334  -7.319  0.00  0.00    -0.036 C 
HETATM    6  C   UNK N   1      32.059  21.243  -5.425  0.00  0.00     0.021 C 
HETATM    7  C   UNK N   1      29.627  22.033  -6.689  0.00  0.00    -0.002 C 
HETATM    8  C   UNK N   1      29.718  22.360  -5.177  0.00  0.00    -0.004 C 
HETATM    9  C   UNK N   1      31.187  22.277  -4.682  0.00  0.00     0.006 C 
HETATM   10  C   UNK N   1      27.213  22.882  -6.257  0.00  0.00     0.001 C 
HETATM   11  C   UNK N   1      31.217  20.082  -5.955  0.00  0.00     0.018 C 
HETATM   12  C   UNK N   1      30.109  20.568  -6.918  0.00  0.00     0.007 C 
HETATM   13  C   UNK N   1      29.161  23.753  -4.849  0.00  0.00     0.006 C 
HETATM   14  C   UNK N   1      27.807  24.064  -5.495  0.00  0.00     0.006 C 
HETATM   15  C   UNK N   1      31.272  21.916  -3.198  0.00  0.00     0.013 C 
HETATM   16  C   UNK N   1      27.539  21.071  -7.902  0.00  0.00     0.017 C 
HETATM   17  C   UNK N   1      32.663  21.325  -3.000  0.00  0.00     0.079 C 
HETATM   18  C   UNK N   1      25.878  23.321  -6.860  0.00  0.00     0.083 C 
HETATM   19  C   UNK N   1      26.164  21.302  -8.540  0.00  0.00     0.079 C 
HETATM   20  C   UNK N   1      32.993  20.811  -4.352  0.00  0.00     0.135 C 
HETATM   21  C   UNK N   1      25.340  22.402  -7.924  0.00  0.00     0.127 C 
ENDROOT
TORSDOF 0
ENDMDL
