MODEL 1
REMARK VINA RESULT:      -6.1      0.000      0.000
REMARK  17 active torsions:
REMARK  status: ('A' for Active; 'I' for Inactive)
REMARK    1  A    between atoms: P_2  and  O_1 
REMARK    2  A    between atoms: P_2  and  O_28 
REMARK    3  A    between atoms: O_20  and  P_2 
REMARK    4  A    between atoms: C_4  and  C_3 
REMARK    5  A    between atoms: C_3  and  O_19 
REMARK    6  A    between atoms: C_7  and  C_8 
REMARK    7  A    between atoms: C_8  and  C_10 
REMARK    8  A    between atoms: C_9  and  C_10 
REMARK    9  A    between atoms: C_11  and  C_12 
REMARK   10  A    between atoms: C_12  and  C_13 
REMARK   11  A    between atoms: C_13  and  C_14 
REMARK   12  A    between atoms: C_15  and  C_16 
REMARK   13  A    between atoms: C_16  and  C_17 
REMARK   14  A    between atoms: C_17  and  C_18 
REMARK   15  A    between atoms: O_19  and  P_21 
REMARK   16  A    between atoms: P_21  and  O_20 
REMARK   17  A    between atoms: P_21  and  O_29 
ROOT
HETATM    1  C   UNK N   1      31.247  29.007  -3.162  0.00  0.00     0.037 C 
ENDROOT
BRANCH   1   2
HETATM    2  C   UNK N   1      30.657  29.995  -4.157  0.00  0.00     0.031 C 
BRANCH   2   3
HETATM    3  C   UNK N   1      29.207  30.186  -3.837  0.00  0.00    -0.024 C 
HETATM    4  C   UNK N   1      28.234  30.023  -4.748  0.00  0.00    -0.087 C 
HETATM    5  C   UNK N   1      28.534  29.622  -6.158  0.00  0.00     0.043 C 
BRANCH   4   6
HETATM    6  C   UNK N   1      26.820  30.312  -4.382  0.00  0.00     0.037 C 
BRANCH   6   7
HETATM    7  C   UNK N   1      26.224  29.185  -3.562  0.00  0.00     0.031 C 
BRANCH   7   8
HETATM    8  C   UNK N   1      25.514  28.247  -4.488  0.00  0.00    -0.024 C 
HETATM    9  C   UNK N   1      25.946  27.004  -4.743  0.00  0.00    -0.087 C 
HETATM   10  C   UNK N   1      27.177  26.447  -4.093  0.00  0.00     0.043 C 
BRANCH   9  11
HETATM   11  C   UNK N   1      25.177  26.167  -5.705  0.00  0.00     0.037 C 
BRANCH  11  12
HETATM   12  C   UNK N   1      26.043  25.799  -6.893  0.00  0.00     0.031 C 
BRANCH  12  13
HETATM   13  C   UNK N   1      25.663  24.433  -7.361  0.00  0.00    -0.024 C 
HETATM   14  C   UNK N   1      26.338  23.333  -7.016  0.00  0.00    -0.091 C 
HETATM   15  C   UNK N   1      25.883  22.014  -7.534  0.00  0.00     0.042 C 
HETATM   16  C   UNK N   1      27.532  23.391  -6.118  0.00  0.00     0.042 C 
ENDBRANCH  12  13
ENDBRANCH  11  12
ENDBRANCH   9  11
ENDBRANCH   7   8
ENDBRANCH   6   7
ENDBRANCH   4   6
ENDBRANCH   2   3
ENDBRANCH   1   2
BRANCH   1  17
HETATM   17  C   UNK N   1      31.428  27.656  -3.758  0.00  0.00    -0.085 C 
HETATM   18  C   UNK N   1      30.679  26.653  -3.295  0.00  0.00     0.002 C 
HETATM   19  C   UNK N   1      32.473  27.439  -4.811  0.00  0.00     0.043 C 
BRANCH  18  20
HETATM   20  C   UNK N   1      30.813  25.257  -3.804  0.00  0.00     0.208 C 
BRANCH  20  21
HETATM   21  O   UNK N   1      31.135  24.415  -2.740  0.00  0.00    -0.293 OA
BRANCH  21  22
HETATM   22  P   UNK N   1      30.175  22.989  -2.980  0.00  0.00     0.402 P 
HETATM   23  O   UNK N   1      30.433  23.013  -1.450  0.00  0.00    -0.631 OA
BRANCH  22  24
HETATM   24  O   UNK N   1      30.899  21.437  -2.675  0.00  0.00    -0.195 OA
BRANCH  24  25
HETATM   25  P   UNK N   1      32.361  21.417  -3.620  0.00  0.00     0.399 P 
HETATM   26  O   UNK N   1      31.606  20.169  -4.151  0.00  0.00    -0.631 OA
BRANCH  25  27
HETATM   27  O   UNK N   1      33.514  20.139  -3.405  0.00  0.00    -0.307 OA
HETATM   28  H   UNK N   1      33.279  19.200  -3.473  0.00  0.00     0.222 HD
ENDBRANCH  25  27
BRANCH  25  29
HETATM   29  O   UNK N   1      32.740  21.215  -1.939  0.00  0.00    -0.307 OA
HETATM   30  H   UNK N   1      33.280  20.504  -1.559  0.00  0.00     0.222 HD
ENDBRANCH  25  29
ENDBRANCH  24  25
ENDBRANCH  22  24
BRANCH  22  31
HETATM   31  O   UNK N   1      31.656  22.856  -3.878  0.00  0.00    -0.307 OA
HETATM   32  H   UNK N   1      32.547  23.069  -3.559  0.00  0.00     0.222 HD
ENDBRANCH  22  31
ENDBRANCH  21  22
ENDBRANCH  20  21
ENDBRANCH  18  20
ENDBRANCH   1  17
TORSDOF 17
ENDMDL
MODEL 2
REMARK VINA RESULT:      -6.0      1.569      3.010
REMARK  17 active torsions:
REMARK  status: ('A' for Active; 'I' for Inactive)
REMARK    1  A    between atoms: P_2  and  O_1 
REMARK    2  A    between atoms: P_2  and  O_28 
REMARK    3  A    between atoms: O_20  and  P_2 
REMARK    4  A    between atoms: C_4  and  C_3 
REMARK    5  A    between atoms: C_3  and  O_19 
REMARK    6  A    between atoms: C_7  and  C_8 
REMARK    7  A    between atoms: C_8  and  C_10 
REMARK    8  A    between atoms: C_9  and  C_10 
REMARK    9  A    between atoms: C_11  and  C_12 
REMARK   10  A    between atoms: C_12  and  C_13 
REMARK   11  A    between atoms: C_13  and  C_14 
REMARK   12  A    between atoms: C_15  and  C_16 
REMARK   13  A    between atoms: C_16  and  C_17 
REMARK   14  A    between atoms: C_17  and  C_18 
REMARK   15  A    between atoms: O_19  and  P_21 
REMARK   16  A    between atoms: P_21  and  O_20 
REMARK   17  A    between atoms: P_21  and  O_29 
ROOT
HETATM    1  C   UNK N   1      29.278  28.558  -4.496  0.00  0.00     0.037 C 
ENDROOT
BRANCH   1   2
HETATM    2  C   UNK N   1      27.927  28.556  -3.796  0.00  0.00     0.031 C 
BRANCH   2   3
HETATM    3  C   UNK N   1      26.874  28.182  -4.793  0.00  0.00    -0.024 C 
HETATM    4  C   UNK N   1      26.175  27.039  -4.718  0.00  0.00    -0.087 C 
HETATM    5  C   UNK N   1      26.392  26.054  -3.612  0.00  0.00     0.043 C 
BRANCH   4   6
HETATM    6  C   UNK N   1      25.203  26.692  -5.791  0.00  0.00     0.037 C 
BRANCH   6   7
HETATM    7  C   UNK N   1      25.917  26.283  -7.065  0.00  0.00     0.031 C 
BRANCH   7   8
HETATM    8  C   UNK N   1      25.688  24.822  -7.291  0.00  0.00    -0.024 C 
HETATM    9  C   UNK N   1      26.596  23.884  -6.987  0.00  0.00    -0.087 C 
HETATM   10  C   UNK N   1      27.916  24.233  -6.369  0.00  0.00     0.043 C 
BRANCH   9  11
HETATM   11  C   UNK N   1      26.274  22.460  -7.283  0.00  0.00     0.037 C 
BRANCH  11  12
HETATM   12  C   UNK N   1      27.051  21.985  -8.494  0.00  0.00     0.031 C 
BRANCH  12  13
HETATM   13  C   UNK N   1      27.540  20.597  -8.238  0.00  0.00    -0.024 C 
HETATM   14  C   UNK N   1      28.809  20.321  -7.927  0.00  0.00    -0.091 C 
HETATM   15  C   UNK N   1      29.203  18.905  -7.690  0.00  0.00     0.042 C 
HETATM   16  C   UNK N   1      29.842  21.395  -7.803  0.00  0.00     0.042 C 
ENDBRANCH  12  13
ENDBRANCH  11  12
ENDBRANCH   9  11
ENDBRANCH   7   8
ENDBRANCH   6   7
ENDBRANCH   4   6
ENDBRANCH   2   3
ENDBRANCH   1   2
BRANCH   1  17
HETATM   17  C   UNK N   1      30.196  27.527  -3.941  0.00  0.00    -0.085 C 
HETATM   18  C   UNK N   1      30.042  26.261  -4.336  0.00  0.00     0.002 C 
HETATM   19  C   UNK N   1      31.226  27.915  -2.923  0.00  0.00     0.043 C 
BRANCH  18  20
HETATM   20  C   UNK N   1      30.889  25.153  -3.810  0.00  0.00     0.208 C 
BRANCH  20  21
HETATM   21  O   UNK N   1      30.314  24.655  -2.641  0.00  0.00    -0.293 OA
BRANCH  21  22
HETATM   22  P   UNK N   1      30.233  22.936  -2.868  0.00  0.00     0.402 P 
HETATM   23  O   UNK N   1      30.078  23.119  -1.335  0.00  0.00    -0.631 OA
BRANCH  22  24
HETATM   24  O   UNK N   1      31.511  21.950  -2.219  0.00  0.00    -0.195 OA
BRANCH  24  25
HETATM   25  P   UNK N   1      32.436  21.430  -3.598  0.00  0.00     0.399 P 
HETATM   26  O   UNK N   1      31.115  20.635  -3.767  0.00  0.00    -0.631 OA
BRANCH  25  27
HETATM   27  O   UNK N   1      32.978  19.785  -3.708  0.00  0.00    -0.307 OA
HETATM   28  H   UNK N   1      32.700  19.185  -4.418  0.00  0.00     0.222 HD
ENDBRANCH  25  27
BRANCH  25  29
HETATM   29  O   UNK N   1      33.237  20.953  -2.134  0.00  0.00    -0.307 OA
HETATM   30  H   UNK N   1      32.869  21.016  -1.239  0.00  0.00     0.222 HD
ENDBRANCH  25  29
ENDBRANCH  24  25
ENDBRANCH  22  24
BRANCH  22  31
HETATM   31  O   UNK N   1      31.765  23.530  -3.432  0.00  0.00    -0.307 OA
HETATM   32  H   UNK N   1      32.084  24.445  -3.385  0.00  0.00     0.222 HD
ENDBRANCH  22  31
ENDBRANCH  21  22
ENDBRANCH  20  21
ENDBRANCH  18  20
ENDBRANCH   1  17
TORSDOF 17
ENDMDL
MODEL 3
REMARK VINA RESULT:      -6.0     23.907     26.149
REMARK  17 active torsions:
REMARK  status: ('A' for Active; 'I' for Inactive)
REMARK    1  A    between atoms: P_2  and  O_1 
REMARK    2  A    between atoms: P_2  and  O_28 
REMARK    3  A    between atoms: O_20  and  P_2 
REMARK    4  A    between atoms: C_4  and  C_3 
REMARK    5  A    between atoms: C_3  and  O_19 
REMARK    6  A    between atoms: C_7  and  C_8 
REMARK    7  A    between atoms: C_8  and  C_10 
REMARK    8  A    between atoms: C_9  and  C_10 
REMARK    9  A    between atoms: C_11  and  C_12 
REMARK   10  A    between atoms: C_12  and  C_13 
REMARK   11  A    between atoms: C_13  and  C_14 
REMARK   12  A    between atoms: C_15  and  C_16 
REMARK   13  A    between atoms: C_16  and  C_17 
REMARK   14  A    between atoms: C_17  and  C_18 
REMARK   15  A    between atoms: O_19  and  P_21 
REMARK   16  A    between atoms: P_21  and  O_20 
REMARK   17  A    between atoms: P_21  and  O_29 
ROOT
HETATM    1  C   UNK N   1      36.315  12.408  15.273  0.00  0.00     0.037 C 
ENDROOT
BRANCH   1   2
HETATM    2  C   UNK N   1      34.943  12.391  15.929  0.00  0.00     0.031 C 
BRANCH   2   3
HETATM    3  C   UNK N   1      35.103  11.990  17.363  0.00  0.00    -0.024 C 
HETATM    4  C   UNK N   1      35.244  12.883  18.355  0.00  0.00    -0.087 C 
HETATM    5  C   UNK N   1      35.237  14.357  18.097  0.00  0.00     0.043 C 
BRANCH   4   6
HETATM    6  C   UNK N   1      35.486  12.412  19.747  0.00  0.00     0.037 C 
BRANCH   6   7
HETATM    7  C   UNK N   1      35.641  10.904  19.796  0.00  0.00     0.031 C 
BRANCH   7   8
HETATM    8  C   UNK N   1      34.538  10.339  20.635  0.00  0.00    -0.024 C 
HETATM    9  C   UNK N   1      33.691   9.399  20.192  0.00  0.00    -0.087 C 
HETATM   10  C   UNK N   1      33.803   8.820  18.814  0.00  0.00     0.043 C 
BRANCH   9  11
HETATM   11  C   UNK N   1      32.609   8.930  21.103  0.00  0.00     0.037 C 
BRANCH  11  12
HETATM   12  C   UNK N   1      32.818   9.483  22.498  0.00  0.00     0.031 C 
BRANCH  12  13
HETATM   13  C   UNK N   1      32.160   8.572  23.480  0.00  0.00    -0.024 C 
HETATM   14  C   UNK N   1      31.756   8.976  24.688  0.00  0.00    -0.091 C 
HETATM   15  C   UNK N   1      31.110   7.992  25.600  0.00  0.00     0.042 C 
HETATM   16  C   UNK N   1      31.929  10.389  25.144  0.00  0.00     0.042 C 
ENDBRANCH  12  13
ENDBRANCH  11  12
ENDBRANCH   9  11
ENDBRANCH   7   8
ENDBRANCH   6   7
ENDBRANCH   4   6
ENDBRANCH   2   3
ENDBRANCH   1   2
BRANCH   1  17
HETATM   17  C   UNK N   1      36.425  13.465  14.232  0.00  0.00    -0.085 C 
HETATM   18  C   UNK N   1      36.279  13.113  12.953  0.00  0.00     0.002 C 
HETATM   19  C   UNK N   1      36.746  14.874  14.631  0.00  0.00     0.043 C 
BRANCH  18  20
HETATM   20  C   UNK N   1      36.407  14.094  11.837  0.00  0.00     0.208 C 
BRANCH  20  21
HETATM   21  O   UNK N   1      35.164  14.254  11.227  0.00  0.00    -0.293 OA
BRANCH  21  22
HETATM   22  P   UNK N   1      35.180  15.861  10.570  0.00  0.00     0.402 P 
HETATM   23  O   UNK N   1      33.750  15.344  10.260  0.00  0.00    -0.631 OA
BRANCH  22  24
HETATM   24  O   UNK N   1      35.053  16.056   8.846  0.00  0.00    -0.195 OA
BRANCH  24  25
HETATM   25  P   UNK N   1      34.157  17.531   8.615  0.00  0.00     0.399 P 
HETATM   26  O   UNK N   1      34.777  17.296   7.212  0.00  0.00    -0.631 OA
BRANCH  25  27
HETATM   27  O   UNK N   1      34.998  19.016   8.304  0.00  0.00    -0.307 OA
HETATM   28  H   UNK N   1      35.679  19.102   7.618  0.00  0.00     0.222 HD
ENDBRANCH  25  27
BRANCH  25  29
HETATM   29  O   UNK N   1      35.411  17.778   9.789  0.00  0.00    -0.307 OA
HETATM   30  H   UNK N   1      35.491  18.541  10.382  0.00  0.00     0.222 HD
ENDBRANCH  25  29
ENDBRANCH  24  25
ENDBRANCH  22  24
BRANCH  22  31
HETATM   31  O   UNK N   1      36.394  14.895   9.787  0.00  0.00    -0.307 OA
HETATM   32  H   UNK N   1      36.561  13.950   9.929  0.00  0.00     0.222 HD
ENDBRANCH  22  31
ENDBRANCH  21  22
ENDBRANCH  20  21
ENDBRANCH  18  20
ENDBRANCH   1  17
TORSDOF 17
ENDMDL
MODEL 4
REMARK VINA RESULT:      -5.8     12.956     14.427
REMARK  17 active torsions:
REMARK  status: ('A' for Active; 'I' for Inactive)
REMARK    1  A    between atoms: P_2  and  O_1 
REMARK    2  A    between atoms: P_2  and  O_28 
REMARK    3  A    between atoms: O_20  and  P_2 
REMARK    4  A    between atoms: C_4  and  C_3 
REMARK    5  A    between atoms: C_3  and  O_19 
REMARK    6  A    between atoms: C_7  and  C_8 
REMARK    7  A    between atoms: C_8  and  C_10 
REMARK    8  A    between atoms: C_9  and  C_10 
REMARK    9  A    between atoms: C_11  and  C_12 
REMARK   10  A    between atoms: C_12  and  C_13 
REMARK   11  A    between atoms: C_13  and  C_14 
REMARK   12  A    between atoms: C_15  and  C_16 
REMARK   13  A    between atoms: C_16  and  C_17 
REMARK   14  A    between atoms: C_17  and  C_18 
REMARK   15  A    between atoms: O_19  and  P_21 
REMARK   16  A    between atoms: P_21  and  O_20 
REMARK   17  A    between atoms: P_21  and  O_29 
ROOT
HETATM    1  C   UNK N   1      28.632  17.638   7.381  0.00  0.00     0.037 C 
ENDROOT
BRANCH   1   2
HETATM    2  C   UNK N   1      28.043  19.028   7.193  0.00  0.00     0.031 C 
BRANCH   2   3
HETATM    3  C   UNK N   1      27.859  19.274   5.727  0.00  0.00    -0.024 C 
HETATM    4  C   UNK N   1      27.173  20.324   5.247  0.00  0.00    -0.087 C 
HETATM    5  C   UNK N   1      26.550  21.339   6.154  0.00  0.00     0.043 C 
BRANCH   4   6
HETATM    6  C   UNK N   1      26.957  20.460   3.781  0.00  0.00     0.037 C 
BRANCH   6   7
HETATM    7  C   UNK N   1      25.550  20.044   3.394  0.00  0.00     0.031 C 
BRANCH   7   8
HETATM    8  C   UNK N   1      25.514  18.553   3.265  0.00  0.00    -0.024 C 
HETATM    9  C   UNK N   1      24.696  17.777   3.989  0.00  0.00    -0.087 C 
HETATM   10  C   UNK N   1      23.729  18.354   4.978  0.00  0.00     0.043 C 
BRANCH   9  11
HETATM   11  C   UNK N   1      24.765  16.300   3.801  0.00  0.00     0.037 C 
BRANCH  11  12
HETATM   12  C   UNK N   1      26.029  15.923   3.057  0.00  0.00     0.031 C 
BRANCH  12  13
HETATM   13  C   UNK N   1      26.931  15.181   3.987  0.00  0.00    -0.024 C 
HETATM   14  C   UNK N   1      28.215  15.506   4.167  0.00  0.00    -0.091 C 
HETATM   15  C   UNK N   1      29.037  14.706   5.116  0.00  0.00     0.042 C 
HETATM   16  C   UNK N   1      28.845  16.655   3.446  0.00  0.00     0.042 C 
ENDBRANCH  12  13
ENDBRANCH  11  12
ENDBRANCH   9  11
ENDBRANCH   7   8
ENDBRANCH   6   7
ENDBRANCH   4   6
ENDBRANCH   2   3
ENDBRANCH   1   2
BRANCH   1  17
HETATM   17  C   UNK N   1      30.017  17.685   7.922  0.00  0.00    -0.085 C 
HETATM   18  C   UNK N   1      30.981  17.049   7.254  0.00  0.00     0.002 C 
HETATM   19  C   UNK N   1      30.287  18.390   9.217  0.00  0.00     0.043 C 
BRANCH  18  20
HETATM   20  C   UNK N   1      32.392  17.009   7.736  0.00  0.00     0.208 C 
BRANCH  20  21
HETATM   21  O   UNK N   1      32.667  15.737   8.237  0.00  0.00    -0.293 OA
BRANCH  21  22
HETATM   22  P   UNK N   1      33.971  15.959   9.360  0.00  0.00     0.402 P 
HETATM   23  O   UNK N   1      34.530  14.936   8.336  0.00  0.00    -0.631 OA
BRANCH  22  24
HETATM   24  O   UNK N   1      34.446  14.618  10.359  0.00  0.00    -0.195 OA
BRANCH  24  25
HETATM   25  P   UNK N   1      35.595  15.271  11.492  0.00  0.00     0.399 P 
HETATM   26  O   UNK N   1      35.044  16.549  10.805  0.00  0.00    -0.631 OA
BRANCH  25  27
HETATM   27  O   UNK N   1      37.030  16.057  10.915  0.00  0.00    -0.307 OA
HETATM   28  H   UNK N   1      37.426  16.823  11.359  0.00  0.00     0.222 HD
ENDBRANCH  25  27
BRANCH  25  29
HETATM   29  O   UNK N   1      36.411  14.273  10.331  0.00  0.00    -0.307 OA
HETATM   30  H   UNK N   1      36.189  13.354  10.115  0.00  0.00     0.222 HD
ENDBRANCH  25  29
ENDBRANCH  24  25
ENDBRANCH  22  24
BRANCH  22  31
HETATM   31  O   UNK N   1      32.579  15.337  10.193  0.00  0.00    -0.307 OA
HETATM   32  H   UNK N   1      31.742  15.802  10.348  0.00  0.00     0.222 HD
ENDBRANCH  22  31
ENDBRANCH  21  22
ENDBRANCH  20  21
ENDBRANCH  18  20
ENDBRANCH   1  17
TORSDOF 17
ENDMDL
MODEL 5
REMARK VINA RESULT:      -5.8     25.212     27.364
REMARK  17 active torsions:
REMARK  status: ('A' for Active; 'I' for Inactive)
REMARK    1  A    between atoms: P_2  and  O_1 
REMARK    2  A    between atoms: P_2  and  O_28 
REMARK    3  A    between atoms: O_20  and  P_2 
REMARK    4  A    between atoms: C_4  and  C_3 
REMARK    5  A    between atoms: C_3  and  O_19 
REMARK    6  A    between atoms: C_7  and  C_8 
REMARK    7  A    between atoms: C_8  and  C_10 
REMARK    8  A    between atoms: C_9  and  C_10 
REMARK    9  A    between atoms: C_11  and  C_12 
REMARK   10  A    between atoms: C_12  and  C_13 
REMARK   11  A    between atoms: C_13  and  C_14 
REMARK   12  A    between atoms: C_15  and  C_16 
REMARK   13  A    between atoms: C_16  and  C_17 
REMARK   14  A    between atoms: C_17  and  C_18 
REMARK   15  A    between atoms: O_19  and  P_21 
REMARK   16  A    between atoms: P_21  and  O_20 
REMARK   17  A    between atoms: P_21  and  O_29 
ROOT
HETATM    1  C   UNK N   1      34.849   9.708  16.813  0.00  0.00     0.037 C 
ENDROOT
BRANCH   1   2
HETATM    2  C   UNK N   1      35.955   9.916  17.836  0.00  0.00     0.031 C 
BRANCH   2   3
HETATM    3  C   UNK N   1      35.448   9.495  19.180  0.00  0.00    -0.024 C 
HETATM    4  C   UNK N   1      35.095  10.373  20.132  0.00  0.00    -0.087 C 
HETATM    5  C   UNK N   1      35.172  11.851  19.909  0.00  0.00     0.043 C 
BRANCH   4   6
HETATM    6  C   UNK N   1      34.680   9.883  21.476  0.00  0.00     0.037 C 
BRANCH   6   7
HETATM    7  C   UNK N   1      33.261  10.309  21.800  0.00  0.00     0.031 C 
BRANCH   7   8
HETATM    8  C   UNK N   1      32.323   9.559  20.907  0.00  0.00    -0.024 C 
HETATM    9  C   UNK N   1      31.691   8.440  21.286  0.00  0.00    -0.087 C 
HETATM   10  C   UNK N   1      31.862   7.862  22.658  0.00  0.00     0.043 C 
BRANCH   9  11
HETATM   11  C   UNK N   1      30.802   7.758  20.304  0.00  0.00     0.037 C 
BRANCH  11  12
HETATM   12  C   UNK N   1      31.371   6.405  19.930  0.00  0.00     0.031 C 
BRANCH  12  13
HETATM   13  C   UNK N   1      32.764   6.592  19.424  0.00  0.00    -0.024 C 
HETATM   14  C   UNK N   1      33.389   5.686  18.667  0.00  0.00    -0.091 C 
HETATM   15  C   UNK N   1      34.779   5.961  18.211  0.00  0.00     0.042 C 
HETATM   16  C   UNK N   1      32.726   4.409  18.258  0.00  0.00     0.042 C 
ENDBRANCH  12  13
ENDBRANCH  11  12
ENDBRANCH   9  11
ENDBRANCH   7   8
ENDBRANCH   6   7
ENDBRANCH   4   6
ENDBRANCH   2   3
ENDBRANCH   1   2
BRANCH   1  17
HETATM   17  C   UNK N   1      34.711  10.869  15.893  0.00  0.00    -0.085 C 
HETATM   18  C   UNK N   1      35.404  11.978  16.163  0.00  0.00     0.002 C 
HETATM   19  C   UNK N   1      33.769  10.792  14.730  0.00  0.00     0.043 C 
BRANCH  18  20
HETATM   20  C   UNK N   1      35.306  13.205  15.321  0.00  0.00     0.208 C 
BRANCH  20  21
HETATM   21  O   UNK N   1      36.330  13.191  14.375  0.00  0.00    -0.293 OA
BRANCH  21  22
HETATM   22  P   UNK N   1      35.609  13.787  12.913  0.00  0.00     0.402 P 
HETATM   23  O   UNK N   1      36.281  12.457  12.482  0.00  0.00    -0.631 OA
BRANCH  22  24
HETATM   24  O   UNK N   1      36.652  14.273  11.609  0.00  0.00    -0.195 OA
BRANCH  24  25
HETATM   25  P   UNK N   1      35.610  15.044  10.447  0.00  0.00     0.399 P 
HETATM   26  O   UNK N   1      36.582  16.190  10.831  0.00  0.00    -0.631 OA
BRANCH  25  27
HETATM   27  O   UNK N   1      34.541  16.314  10.950  0.00  0.00    -0.307 OA
HETATM   28  H   UNK N   1      33.836  16.664  10.384  0.00  0.00     0.222 HD
ENDBRANCH  25  27
BRANCH  25  29
HETATM   29  O   UNK N   1      34.689  14.552  11.833  0.00  0.00    -0.307 OA
HETATM   30  H   UNK N   1      34.462  15.111  12.593  0.00  0.00     0.222 HD
ENDBRANCH  25  29
ENDBRANCH  24  25
ENDBRANCH  22  24
BRANCH  22  31
HETATM   31  O   UNK N   1      36.775  14.933  13.501  0.00  0.00    -0.307 OA
HETATM   32  H   UNK N   1      36.719  15.899  13.438  0.00  0.00     0.222 HD
ENDBRANCH  22  31
ENDBRANCH  21  22
ENDBRANCH  20  21
ENDBRANCH  18  20
ENDBRANCH   1  17
TORSDOF 17
ENDMDL
MODEL 6
REMARK VINA RESULT:      -5.7     23.435     25.653
REMARK  17 active torsions:
REMARK  status: ('A' for Active; 'I' for Inactive)
REMARK    1  A    between atoms: P_2  and  O_1 
REMARK    2  A    between atoms: P_2  and  O_28 
REMARK    3  A    between atoms: O_20  and  P_2 
REMARK    4  A    between atoms: C_4  and  C_3 
REMARK    5  A    between atoms: C_3  and  O_19 
REMARK    6  A    between atoms: C_7  and  C_8 
REMARK    7  A    between atoms: C_8  and  C_10 
REMARK    8  A    between atoms: C_9  and  C_10 
REMARK    9  A    between atoms: C_11  and  C_12 
REMARK   10  A    between atoms: C_12  and  C_13 
REMARK   11  A    between atoms: C_13  and  C_14 
REMARK   12  A    between atoms: C_15  and  C_16 
REMARK   13  A    between atoms: C_16  and  C_17 
REMARK   14  A    between atoms: C_17  and  C_18 
REMARK   15  A    between atoms: O_19  and  P_21 
REMARK   16  A    between atoms: P_21  and  O_20 
REMARK   17  A    between atoms: P_21  and  O_29 
ROOT
HETATM    1  C   UNK N   1      36.046  13.445  15.390  0.00  0.00     0.037 C 
ENDROOT
BRANCH   1   2
HETATM    2  C   UNK N   1      34.871  13.012  16.254  0.00  0.00     0.031 C 
BRANCH   2   3
HETATM    3  C   UNK N   1      35.397  12.226  17.415  0.00  0.00    -0.024 C 
HETATM    4  C   UNK N   1      35.322  10.888  17.481  0.00  0.00    -0.087 C 
HETATM    5  C   UNK N   1      34.711  10.077  16.380  0.00  0.00     0.043 C 
BRANCH   4   6
HETATM    6  C   UNK N   1      35.787  10.178  18.704  0.00  0.00     0.037 C 
BRANCH   6   7
HETATM    7  C   UNK N   1      35.659  11.060  19.932  0.00  0.00     0.031 C 
BRANCH   7   8
HETATM    8  C   UNK N   1      34.290  10.879  20.507  0.00  0.00    -0.024 C 
HETATM    9  C   UNK N   1      34.040  10.096  21.566  0.00  0.00    -0.087 C 
HETATM   10  C   UNK N   1      35.131   9.352  22.274  0.00  0.00     0.043 C 
BRANCH   9  11
HETATM   11  C   UNK N   1      32.632   9.965  22.037  0.00  0.00     0.037 C 
BRANCH  11  12
HETATM   12  C   UNK N   1      31.768   9.358  20.951  0.00  0.00     0.031 C 
BRANCH  12  13
HETATM   13  C   UNK N   1      31.672   7.885  21.179  0.00  0.00    -0.024 C 
HETATM   14  C   UNK N   1      32.342   6.992  20.446  0.00  0.00    -0.091 C 
HETATM   15  C   UNK N   1      32.181   5.543  20.749  0.00  0.00     0.042 C 
HETATM   16  C   UNK N   1      33.254   7.408  19.337  0.00  0.00     0.042 C 
ENDBRANCH  12  13
ENDBRANCH  11  12
ENDBRANCH   9  11
ENDBRANCH   7   8
ENDBRANCH   6   7
ENDBRANCH   4   6
ENDBRANCH   2   3
ENDBRANCH   1   2
BRANCH   1  17
HETATM   17  C   UNK N   1      35.690  13.492  13.946  0.00  0.00    -0.085 C 
HETATM   18  C   UNK N   1      36.055  14.562  13.237  0.00  0.00     0.002 C 
HETATM   19  C   UNK N   1      34.894  12.377  13.338  0.00  0.00     0.043 C 
BRANCH  18  20
HETATM   20  C   UNK N   1      35.714  14.717  11.793  0.00  0.00     0.208 C 
BRANCH  20  21
HETATM   21  O   UNK N   1      35.451  16.060  11.529  0.00  0.00    -0.293 OA
BRANCH  21  22
HETATM   22  P   UNK N   1      35.141  16.138   9.823  0.00  0.00     0.402 P 
HETATM   23  O   UNK N   1      35.627  17.567  10.180  0.00  0.00    -0.631 OA
BRANCH  22  24
HETATM   24  O   UNK N   1      33.845  17.151   9.258  0.00  0.00    -0.195 OA
BRANCH  24  25
HETATM   25  P   UNK N   1      33.574  16.675   7.606  0.00  0.00     0.399 P 
HETATM   26  O   UNK N   1      34.560  15.586   8.107  0.00  0.00    -0.631 OA
BRANCH  25  27
HETATM   27  O   UNK N   1      34.871  16.758   6.456  0.00  0.00    -0.307 OA
HETATM   28  H   UNK N   1      34.786  16.445   5.543  0.00  0.00     0.222 HD
ENDBRANCH  25  27
BRANCH  25  29
HETATM   29  O   UNK N   1      34.332  18.235   7.655  0.00  0.00    -0.307 OA
HETATM   30  H   UNK N   1      34.571  18.726   8.457  0.00  0.00     0.222 HD
ENDBRANCH  25  29
ENDBRANCH  24  25
ENDBRANCH  22  24
BRANCH  22  31
HETATM   31  O   UNK N   1      33.678  15.730  10.667  0.00  0.00    -0.307 OA
HETATM   32  H   UNK N   1      32.925  16.317  10.837  0.00  0.00     0.222 HD
ENDBRANCH  22  31
ENDBRANCH  21  22
ENDBRANCH  20  21
ENDBRANCH  18  20
ENDBRANCH   1  17
TORSDOF 17
ENDMDL
MODEL 7
REMARK VINA RESULT:      -5.6     12.633     14.802
REMARK  17 active torsions:
REMARK  status: ('A' for Active; 'I' for Inactive)
REMARK    1  A    between atoms: P_2  and  O_1 
REMARK    2  A    between atoms: P_2  and  O_28 
REMARK    3  A    between atoms: O_20  and  P_2 
REMARK    4  A    between atoms: C_4  and  C_3 
REMARK    5  A    between atoms: C_3  and  O_19 
REMARK    6  A    between atoms: C_7  and  C_8 
REMARK    7  A    between atoms: C_8  and  C_10 
REMARK    8  A    between atoms: C_9  and  C_10 
REMARK    9  A    between atoms: C_11  and  C_12 
REMARK   10  A    between atoms: C_12  and  C_13 
REMARK   11  A    between atoms: C_13  and  C_14 
REMARK   12  A    between atoms: C_15  and  C_16 
REMARK   13  A    between atoms: C_16  and  C_17 
REMARK   14  A    between atoms: C_17  and  C_18 
REMARK   15  A    between atoms: O_19  and  P_21 
REMARK   16  A    between atoms: P_21  and  O_20 
REMARK   17  A    between atoms: P_21  and  O_29 
ROOT
HETATM    1  C   UNK N   1      27.970  16.014   4.207  0.00  0.00     0.037 C 
ENDROOT
BRANCH   1   2
HETATM    2  C   UNK N   1      28.315  17.413   3.720  0.00  0.00     0.031 C 
BRANCH   2   3
HETATM    3  C   UNK N   1      28.262  18.351   4.887  0.00  0.00    -0.024 C 
HETATM    4  C   UNK N   1      27.600  19.518   4.852  0.00  0.00    -0.087 C 
HETATM    5  C   UNK N   1      26.849  19.962   3.635  0.00  0.00     0.043 C 
BRANCH   4   6
HETATM    6  C   UNK N   1      27.662  20.441   6.018  0.00  0.00     0.037 C 
BRANCH   6   7
HETATM    7  C   UNK N   1      27.427  19.696   7.319  0.00  0.00     0.031 C 
BRANCH   7   8
HETATM    8  C   UNK N   1      28.755  19.375   7.929  0.00  0.00    -0.024 C 
HETATM    9  C   UNK N   1      28.943  18.354   8.776  0.00  0.00    -0.087 C 
HETATM   10  C   UNK N   1      27.825  17.432   9.162  0.00  0.00     0.043 C 
BRANCH   9  11
HETATM   11  C   UNK N   1      30.302  18.143   9.348  0.00  0.00     0.037 C 
BRANCH  11  12
HETATM   12  C   UNK N   1      31.300  17.861   8.244  0.00  0.00     0.031 C 
BRANCH  12  13
HETATM   13  C   UNK N   1      31.012  16.514   7.668  0.00  0.00    -0.024 C 
HETATM   14  C   UNK N   1      31.192  16.223   6.376  0.00  0.00    -0.091 C 
HETATM   15  C   UNK N   1      30.875  14.850   5.894  0.00  0.00     0.042 C 
HETATM   16  C   UNK N   1      31.711  17.235   5.406  0.00  0.00     0.042 C 
ENDBRANCH  12  13
ENDBRANCH  11  12
ENDBRANCH   9  11
ENDBRANCH   7   8
ENDBRANCH   6   7
ENDBRANCH   4   6
ENDBRANCH   2   3
ENDBRANCH   1   2
BRANCH   1  17
HETATM   17  C   UNK N   1      26.673  15.979   4.934  0.00  0.00    -0.085 C 
HETATM   18  C   UNK N   1      25.571  16.364   4.286  0.00  0.00     0.002 C 
HETATM   19  C   UNK N   1      26.637  15.570   6.376  0.00  0.00     0.043 C 
BRANCH  18  20
HETATM   20  C   UNK N   1      24.232  16.397   4.940  0.00  0.00     0.208 C 
BRANCH  20  21
HETATM   21  O   UNK N   1      23.872  17.724   5.174  0.00  0.00    -0.293 OA
BRANCH  21  22
HETATM   22  P   UNK N   1      22.475  18.001   4.183  0.00  0.00     0.402 P 
HETATM   23  O   UNK N   1      23.475  19.100   3.735  0.00  0.00    -0.631 OA
BRANCH  22  24
HETATM   24  O   UNK N   1      21.574  19.472   4.406  0.00  0.00    -0.195 OA
BRANCH  24  25
HETATM   25  P   UNK N   1      20.945  19.871   2.833  0.00  0.00     0.399 P 
HETATM   26  O   UNK N   1      20.111  20.788   3.766  0.00  0.00    -0.631 OA
BRANCH  25  27
HETATM   27  O   UNK N   1      19.309  19.464   2.424  0.00  0.00    -0.307 OA
HETATM   28  H   UNK N   1      18.547  19.757   2.947  0.00  0.00     0.222 HD
ENDBRANCH  25  27
BRANCH  25  29
HETATM   29  O   UNK N   1      20.625  18.204   3.192  0.00  0.00    -0.307 OA
HETATM   30  H   UNK N   1      19.802  17.729   2.999  0.00  0.00     0.222 HD
ENDBRANCH  25  29
ENDBRANCH  24  25
ENDBRANCH  22  24
BRANCH  22  31
HETATM   31  O   UNK N   1      22.047  18.167   5.858  0.00  0.00    -0.307 OA
HETATM   32  H   UNK N   1      22.653  18.143   6.615  0.00  0.00     0.222 HD
ENDBRANCH  22  31
ENDBRANCH  21  22
ENDBRANCH  20  21
ENDBRANCH  18  20
ENDBRANCH   1  17
TORSDOF 17
ENDMDL
MODEL 8
REMARK VINA RESULT:      -5.6     11.657     13.764
REMARK  17 active torsions:
REMARK  status: ('A' for Active; 'I' for Inactive)
REMARK    1  A    between atoms: P_2  and  O_1 
REMARK    2  A    between atoms: P_2  and  O_28 
REMARK    3  A    between atoms: O_20  and  P_2 
REMARK    4  A    between atoms: C_4  and  C_3 
REMARK    5  A    between atoms: C_3  and  O_19 
REMARK    6  A    between atoms: C_7  and  C_8 
REMARK    7  A    between atoms: C_8  and  C_10 
REMARK    8  A    between atoms: C_9  and  C_10 
REMARK    9  A    between atoms: C_11  and  C_12 
REMARK   10  A    between atoms: C_12  and  C_13 
REMARK   11  A    between atoms: C_13  and  C_14 
REMARK   12  A    between atoms: C_15  and  C_16 
REMARK   13  A    between atoms: C_16  and  C_17 
REMARK   14  A    between atoms: C_17  and  C_18 
REMARK   15  A    between atoms: O_19  and  P_21 
REMARK   16  A    between atoms: P_21  and  O_20 
REMARK   17  A    between atoms: P_21  and  O_29 
ROOT
HETATM    1  C   UNK N   1      24.769  16.966   4.426  0.00  0.00     0.037 C 
ENDROOT
BRANCH   1   2
HETATM    2  C   UNK N   1      24.555  18.423   4.045  0.00  0.00     0.031 C 
BRANCH   2   3
HETATM    3  C   UNK N   1      25.316  19.285   5.005  0.00  0.00    -0.024 C 
HETATM    4  C   UNK N   1      26.127  20.277   4.605  0.00  0.00    -0.087 C 
HETATM    5  C   UNK N   1      26.317  20.605   3.156  0.00  0.00     0.043 C 
BRANCH   4   6
HETATM    6  C   UNK N   1      26.920  21.037   5.610  0.00  0.00     0.037 C 
BRANCH   6   7
HETATM    7  C   UNK N   1      27.150  20.214   6.863  0.00  0.00     0.031 C 
BRANCH   7   8
HETATM    8  C   UNK N   1      28.246  19.232   6.592  0.00  0.00    -0.024 C 
HETATM    9  C   UNK N   1      28.718  18.389   7.521  0.00  0.00    -0.087 C 
HETATM   10  C   UNK N   1      28.158  18.351   8.911  0.00  0.00     0.043 C 
BRANCH   9  11
HETATM   11  C   UNK N   1      29.833  17.473   7.150  0.00  0.00     0.037 C 
BRANCH  11  12
HETATM   12  C   UNK N   1      30.659  17.127   8.372  0.00  0.00     0.031 C 
BRANCH  12  13
HETATM   13  C   UNK N   1      31.904  17.952   8.360  0.00  0.00    -0.024 C 
HETATM   14  C   UNK N   1      33.114  17.436   8.125  0.00  0.00    -0.091 C 
HETATM   15  C   UNK N   1      34.298  18.338   8.135  0.00  0.00     0.042 C 
HETATM   16  C   UNK N   1      33.309  15.980   7.846  0.00  0.00     0.042 C 
ENDBRANCH  12  13
ENDBRANCH  11  12
ENDBRANCH   9  11
ENDBRANCH   7   8
ENDBRANCH   6   7
ENDBRANCH   4   6
ENDBRANCH   2   3
ENDBRANCH   1   2
BRANCH   1  17
HETATM   17  C   UNK N   1      26.209  16.643   4.614  0.00  0.00    -0.085 C 
HETATM   18  C   UNK N   1      27.061  16.946   3.633  0.00  0.00     0.002 C 
HETATM   19  C   UNK N   1      26.659  15.944   5.861  0.00  0.00     0.043 C 
BRANCH  18  20
HETATM   20  C   UNK N   1      28.516  16.630   3.713  0.00  0.00     0.208 C 
BRANCH  20  21
HETATM   21  O   UNK N   1      28.770  15.470   2.983  0.00  0.00    -0.293 OA
BRANCH  21  22
HETATM   22  P   UNK N   1      30.461  15.149   3.209  0.00  0.00     0.402 P 
HETATM   23  O   UNK N   1      29.855  14.979   4.627  0.00  0.00    -0.631 OA
BRANCH  22  24
HETATM   24  O   UNK N   1      31.396  16.252   4.175  0.00  0.00    -0.195 OA
BRANCH  24  25
HETATM   25  P   UNK N   1      33.056  15.804   3.910  0.00  0.00     0.399 P 
HETATM   26  O   UNK N   1      33.003  17.240   3.324  0.00  0.00    -0.631 OA
BRANCH  25  27
HETATM   27  O   UNK N   1      33.649  15.592   2.293  0.00  0.00    -0.307 OA
HETATM   28  H   UNK N   1      33.118  15.793   1.507  0.00  0.00     0.222 HD
ENDBRANCH  25  27
BRANCH  25  29
HETATM   29  O   UNK N   1      32.009  14.753   3.011  0.00  0.00    -0.307 OA
HETATM   30  H   UNK N   1      31.082  14.930   2.786  0.00  0.00     0.222 HD
ENDBRANCH  25  29
ENDBRANCH  24  25
ENDBRANCH  22  24
BRANCH  22  31
HETATM   31  O   UNK N   1      30.246  16.765   2.610  0.00  0.00    -0.307 OA
HETATM   32  H   UNK N   1      30.943  17.422   2.456  0.00  0.00     0.222 HD
ENDBRANCH  22  31
ENDBRANCH  21  22
ENDBRANCH  20  21
ENDBRANCH  18  20
ENDBRANCH   1  17
TORSDOF 17
ENDMDL
MODEL 9
REMARK VINA RESULT:      -5.5     15.877     17.943
REMARK  17 active torsions:
REMARK  status: ('A' for Active; 'I' for Inactive)
REMARK    1  A    between atoms: P_2  and  O_1 
REMARK    2  A    between atoms: P_2  and  O_28 
REMARK    3  A    between atoms: O_20  and  P_2 
REMARK    4  A    between atoms: C_4  and  C_3 
REMARK    5  A    between atoms: C_3  and  O_19 
REMARK    6  A    between atoms: C_7  and  C_8 
REMARK    7  A    between atoms: C_8  and  C_10 
REMARK    8  A    between atoms: C_9  and  C_10 
REMARK    9  A    between atoms: C_11  and  C_12 
REMARK   10  A    between atoms: C_12  and  C_13 
REMARK   11  A    between atoms: C_13  and  C_14 
REMARK   12  A    between atoms: C_15  and  C_16 
REMARK   13  A    between atoms: C_16  and  C_17 
REMARK   14  A    between atoms: C_17  and  C_18 
REMARK   15  A    between atoms: O_19  and  P_21 
REMARK   16  A    between atoms: P_21  and  O_20 
REMARK   17  A    between atoms: P_21  and  O_29 
ROOT
HETATM    1  C   UNK N   1      23.546  12.466  10.312  0.00  0.00     0.037 C 
ENDROOT
BRANCH   1   2
HETATM    2  C   UNK N   1      23.839  11.903   8.930  0.00  0.00     0.031 C 
BRANCH   2   3
HETATM    3  C   UNK N   1      24.920  12.725   8.298  0.00  0.00    -0.024 C 
HETATM    4  C   UNK N   1      24.782  13.308   7.097  0.00  0.00    -0.087 C 
HETATM    5  C   UNK N   1      23.519  13.187   6.303  0.00  0.00     0.043 C 
BRANCH   4   6
HETATM    6  C   UNK N   1      25.929  14.039   6.492  0.00  0.00     0.037 C 
BRANCH   6   7
HETATM    7  C   UNK N   1      25.647  15.527   6.409  0.00  0.00     0.031 C 
BRANCH   7   8
HETATM    8  C   UNK N   1      26.706  16.165   5.565  0.00  0.00    -0.024 C 
HETATM    9  C   UNK N   1      27.731  16.858   6.079  0.00  0.00    -0.087 C 
HETATM   10  C   UNK N   1      27.907  17.028   7.558  0.00  0.00     0.043 C 
BRANCH   9  11
HETATM   11  C   UNK N   1      28.711  17.478   5.144  0.00  0.00     0.037 C 
BRANCH  11  12
HETATM   12  C   UNK N   1      28.035  18.534   4.295  0.00  0.00     0.031 C 
BRANCH  12  13
HETATM   13  C   UNK N   1      27.981  19.810   5.068  0.00  0.00    -0.024 C 
HETATM   14  C   UNK N   1      26.834  20.386   5.441  0.00  0.00    -0.091 C 
HETATM   15  C   UNK N   1      26.881  21.660   6.209  0.00  0.00     0.042 C 
HETATM   16  C   UNK N   1      25.506  19.780   5.114  0.00  0.00     0.042 C 
ENDBRANCH  12  13
ENDBRANCH  11  12
ENDBRANCH   9  11
ENDBRANCH   7   8
ENDBRANCH   6   7
ENDBRANCH   4   6
ENDBRANCH   2   3
ENDBRANCH   1   2
BRANCH   1  17
HETATM   17  C   UNK N   1      22.116  12.848  10.469  0.00  0.00    -0.085 C 
HETATM   18  C   UNK N   1      21.629  13.816   9.691  0.00  0.00     0.002 C 
HETATM   19  C   UNK N   1      21.279  12.185  11.521  0.00  0.00     0.043 C 
BRANCH  18  20
HETATM   20  C   UNK N   1      20.219  14.291   9.798  0.00  0.00     0.208 C 
BRANCH  20  21
HETATM   21  O   UNK N   1      19.683  14.420   8.518  0.00  0.00    -0.293 OA
BRANCH  21  22
HETATM   22  P   UNK N   1      20.339  15.902   7.894  0.00  0.00     0.402 P 
HETATM   23  O   UNK N   1      18.897  16.282   8.324  0.00  0.00    -0.631 OA
BRANCH  22  24
HETATM   24  O   UNK N   1      19.654  16.569   6.441  0.00  0.00    -0.195 OA
BRANCH  24  25
HETATM   25  P   UNK N   1      19.645  15.260   5.294  0.00  0.00     0.399 P 
HETATM   26  O   UNK N   1      20.418  16.367   4.528  0.00  0.00    -0.631 OA
BRANCH  25  27
HETATM   27  O   UNK N   1      18.752  15.412   3.814  0.00  0.00    -0.307 OA
HETATM   28  H   UNK N   1      18.623  14.673   3.198  0.00  0.00     0.222 HD
ENDBRANCH  25  27
BRANCH  25  29
HETATM   29  O   UNK N   1      18.020  15.778   5.613  0.00  0.00    -0.307 OA
HETATM   30  H   UNK N   1      17.736  16.332   6.357  0.00  0.00     0.222 HD
ENDBRANCH  25  29
ENDBRANCH  24  25
ENDBRANCH  22  24
BRANCH  22  31
HETATM   31  O   UNK N   1      20.337  14.691   6.648  0.00  0.00    -0.307 OA
HETATM   32  H   UNK N   1      20.905  14.670   5.862  0.00  0.00     0.222 HD
ENDBRANCH  22  31
ENDBRANCH  21  22
ENDBRANCH  20  21
ENDBRANCH  18  20
ENDBRANCH   1  17
TORSDOF 17
ENDMDL
