REMARK  11 active torsions:
REMARK  status: ('A' for Active; 'I' for Inactive)
REMARK    1  A    between atoms: C_9  and  C_8 
REMARK    2  A    between atoms: N_25  and  C_8 
REMARK    3  A    between atoms: N_32  and  C_9 
REMARK    4  A    between atoms: C_14  and  C_10 
REMARK    5  A    between atoms: N_25  and  C_10 
REMARK    6  A    between atoms: C_20  and  C_12 
REMARK    7  A    between atoms: N_30  and  C_12 
REMARK    8  A    between atoms: C_20  and  C_15 
REMARK    9  A    between atoms: C_17  and  N_24 
REMARK   10  A    between atoms: N_30  and  C_18 
REMARK   11  A    between atoms: O_33  and  C_19 
ROOT
HETATM    1  C   UNK N   1      -0.187  -3.689   0.542  0.00  0.00     0.131 A 
HETATM    2  C   UNK N   1       0.643  -3.172  -0.361  0.00  0.00     0.119 A 
HETATM    3  C   UNK N   1      -1.324  -1.637   0.929  0.00  0.00     0.127 A 
HETATM    4  C   UNK N   1      -0.402  -0.903  -0.040  0.00  0.00     0.289 A 
HETATM    5 Cl   UNK N   1       1.772  -4.269  -1.156  0.00  0.00    -0.063 Cl
HETATM    6  N   UNK N   1      -1.170  -2.889   1.178  0.00  0.00    -0.349 N 
ATOM      7  HN  UNK N   1      -1.783  -3.327   1.866  1.00  0.00     0.166 HD
HETATM    8  N   UNK N   1       0.589  -1.774  -0.671  0.00  0.00    -0.336 N 
ENDROOT
BRANCH   8   9
HETATM    9  C   UNK N   1       1.456  -1.194  -1.687  0.00  0.00     0.146 C 
BRANCH   9  10
HETATM   10  C   UNK N   1       2.946  -1.478  -1.476  0.00  0.00     0.133 C 
BRANCH  10  11
HETATM   11  N   UNK N   1       3.302  -1.420  -0.070  0.00  0.00    -0.419 N 
HETATM   12  H   UNK N   1       2.772  -0.946   0.661  0.00  0.00     0.153 HD
BRANCH  11  13
HETATM   13  C   UNK N   1       4.548  -2.156   0.115  0.00  0.00     0.120 C 
BRANCH  13  14
HETATM   14  C   UNK N   1       5.808  -1.281  -0.022  0.00  0.00     0.025 C 
HETATM   15  C   UNK N   1       6.787  -1.699   1.079  0.00  0.00     0.012 C 
HETATM   16  C   UNK N   1       7.943  -0.711   1.269  0.00  0.00     0.046 C 
HETATM   17  C   UNK N   1       8.049   0.297   0.124  0.00  0.00     0.169 C 
HETATM   18  N   UNK N   1       6.798   1.050  -0.052  0.00  0.00    -0.398 N 
HETATM   19  C   UNK N   1       5.560   0.253   0.038  0.00  0.00     0.080 C 
HETATM   20  H   UNK N   1       6.787   2.055  -0.225  0.00  0.00     0.155 HD
HETATM   21  C   UNK N   1       4.831   0.656   1.313  0.00  0.00     0.032 C 
BRANCH  17  22
HETATM   22  N   UNK N   1       9.123   1.227   0.414  0.00  0.00    -0.411 N 
HETATM   23  H   UNK N   1      10.068   0.900   0.618  0.00  0.00     0.151 HD
HETATM   24  H   UNK N   1       8.931   2.229   0.414  0.00  0.00     0.151 HD
ENDBRANCH  17  22
ENDBRANCH  13  14
ENDBRANCH  11  13
ENDBRANCH  10  11
ENDBRANCH   9  10
ENDBRANCH   8   9
BRANCH   4  25
HETATM   25  O   UNK N   1       0.248   0.123   0.649  0.00  0.00    -0.369 OA
HETATM   26  H   UNK N   1       1.091   0.088   1.127  0.00  0.00     0.212 HD
ENDBRANCH   4  25
BRANCH   3  27
HETATM   27  N   UNK N   1      -2.409  -0.959   1.551  0.00  0.00    -0.370 N 
HETATM   28  H   UNK N   1      -2.736  -1.296   2.416  0.00  0.00     0.161 HD
BRANCH  27  29
HETATM   29  C   UNK N   1      -3.055   0.200   0.977  0.00  0.00     0.207 C 
BRANCH  29  30
HETATM   30  C   UNK N   1      -3.916  -0.181  -0.244  0.00  0.00     0.301 C 
HETATM   31  F   UNK N   1      -4.062  -1.560  -0.333  0.00  0.00    -0.197 F 
HETATM   32  F   UNK N   1      -3.301   0.265  -1.399  0.00  0.00    -0.197 F 
BRANCH  30  33
HETATM   33  C   UNK N   1      -5.276   0.448  -0.143  0.00  0.00     0.083 A 
HETATM   34  C   UNK N   1      -5.413   1.842  -0.104  0.00  0.00     0.031 A 
HETATM   35  C   UNK N   1      -6.688   2.404  -0.019  0.00  0.00     0.003 A 
HETATM   36  C   UNK N   1      -7.810   1.576   0.026  0.00  0.00     0.017 A 
HETATM   37  C   UNK N   1      -7.639   0.192  -0.017  0.00  0.00     0.088 A 
HETATM   38  N   UNK N   1      -6.390  -0.339  -0.101  0.00  0.00    -0.364 N 
ATOM     39  HN  UNK N   1      -6.282  -1.353  -0.134  1.00  0.00     0.165 HD
ENDBRANCH  30  33
ENDBRANCH  29  30
ENDBRANCH  27  29
ENDBRANCH   3  27
TORSDOF 11
