MODEL 1
REMARK VINA RESULT:      -5.6      0.000      0.000
REMARK  3 active torsions:
REMARK  status: ('A' for Active; 'I' for Inactive)
REMARK    1  A    between atoms: C_10  and  C_7 
REMARK    2  A    between atoms: C_11  and  C_10 
REMARK    3  A    between atoms: O_12  and  C_11 
ROOT
HETATM    1  C   UNK N   1      24.786  12.795  10.050  0.00  0.00     0.001 A 
HETATM    2  C   UNK N   1      24.663  11.971  11.188  0.00  0.00     0.002 A 
HETATM    3  C   UNK N   1      23.644  13.362   9.463  0.00  0.00     0.014 A 
HETATM    4  C   UNK N   1      23.396  11.710  11.740  0.00  0.00     0.030 A 
HETATM    5  C   UNK N   1      22.397  13.088  10.024  0.00  0.00    -0.001 A 
HETATM    6  C   UNK N   1      22.288  12.287  11.128  0.00  0.00     0.042 A 
HETATM    7  C   UNK N   1      21.114  13.486   9.691  0.00  0.00    -0.020 A 
HETATM    8  C   UNK N   1      20.277  12.892  10.633  0.00  0.00     0.097 A 
HETATM    9  N   UNK N   1      21.005  12.158  11.509  0.00  0.00    -0.365 N 
HETATM   10  H   UNK N   1      20.664  11.636  12.271  0.00  0.00     0.165 HD
ENDROOT
BRANCH   7  11
HETATM   11  C   UNK N   1      20.578  14.384   8.596  0.00  0.00     0.150 C 
BRANCH  11  12
HETATM   12  C   UNK N   1      19.982  15.741   8.883  0.00  0.00     0.143 C 
HETATM   13  O   UNK N   1      20.619  16.769   8.758  0.00  0.00    -0.650 OA
BRANCH  12  14
HETATM   14  O   UNK N   1      18.696  15.813   9.271  0.00  0.00    -0.776 OA
HETATM   15  H   UNK N   1      18.305  15.109   9.751  0.00  0.00     0.167 HD
ENDBRANCH  12  14
ENDBRANCH  11  12
ENDBRANCH   7  11
TORSDOF 3
ENDMDL
MODEL 2
REMARK VINA RESULT:      -5.6      8.485      9.630
REMARK  3 active torsions:
REMARK  status: ('A' for Active; 'I' for Inactive)
REMARK    1  A    between atoms: C_10  and  C_7 
REMARK    2  A    between atoms: C_11  and  C_10 
REMARK    3  A    between atoms: O_12  and  C_11 
ROOT
HETATM    1  C   UNK N   1      25.842  20.472   2.988  0.00  0.00     0.001 A 
HETATM    2  C   UNK N   1      26.220  19.541   3.977  0.00  0.00     0.002 A 
HETATM    3  C   UNK N   1      24.489  20.637   2.655  0.00  0.00     0.014 A 
HETATM    4  C   UNK N   1      25.244  18.771   4.635  0.00  0.00     0.030 A 
HETATM    5  C   UNK N   1      23.537  19.862   3.316  0.00  0.00    -0.001 A 
HETATM    6  C   UNK N   1      23.913  18.960   4.275  0.00  0.00     0.042 A 
HETATM    7  C   UNK N   1      22.159  19.791   3.221  0.00  0.00    -0.020 A 
HETATM    8  C   UNK N   1      21.763  18.830   4.149  0.00  0.00     0.097 A 
HETATM    9  N   UNK N   1      22.846  18.326   4.789  0.00  0.00    -0.365 N 
HETATM   10  H   UNK N   1      22.850  17.634   5.489  0.00  0.00     0.165 HD
ENDROOT
BRANCH   7  11
HETATM   11  C   UNK N   1      21.157  20.542   2.369  0.00  0.00     0.150 C 
BRANCH  11  12
HETATM   12  C   UNK N   1      20.935  20.222   0.910  0.00  0.00     0.143 C 
HETATM   13  O   UNK N   1      21.223  21.002   0.023  0.00  0.00    -0.650 OA
BRANCH  12  14
HETATM   14  O   UNK N   1      20.419  19.024   0.583  0.00  0.00    -0.776 OA
HETATM   15  H   UNK N   1      19.495  18.874   0.637  0.00  0.00     0.167 HD
ENDBRANCH  12  14
ENDBRANCH  11  12
ENDBRANCH   7  11
TORSDOF 3
ENDMDL
MODEL 3
REMARK VINA RESULT:      -5.4      9.832     11.619
REMARK  3 active torsions:
REMARK  status: ('A' for Active; 'I' for Inactive)
REMARK    1  A    between atoms: C_10  and  C_7 
REMARK    2  A    between atoms: C_11  and  C_10 
REMARK    3  A    between atoms: O_12  and  C_11 
ROOT
HETATM    1  C   UNK N   1      29.740  18.688   9.583  0.00  0.00     0.001 A 
HETATM    2  C   UNK N   1      28.602  18.048   9.050  0.00  0.00     0.002 A 
HETATM    3  C   UNK N   1      30.996  18.508   8.984  0.00  0.00     0.014 A 
HETATM    4  C   UNK N   1      28.718  17.226   7.915  0.00  0.00     0.030 A 
HETATM    5  C   UNK N   1      31.091  17.686   7.862  0.00  0.00    -0.001 A 
HETATM    6  C   UNK N   1      29.980  17.069   7.351  0.00  0.00     0.042 A 
HETATM    7  C   UNK N   1      32.156  17.317   7.060  0.00  0.00    -0.020 A 
HETATM    8  C   UNK N   1      31.623  16.479   6.083  0.00  0.00     0.097 A 
HETATM    9  N   UNK N   1      30.289  16.333   6.270  0.00  0.00    -0.365 N 
HETATM   10  H   UNK N   1      29.671  15.795   5.725  0.00  0.00     0.165 HD
ENDROOT
BRANCH   7  11
HETATM   11  C   UNK N   1      33.626  17.679   7.089  0.00  0.00     0.150 C 
BRANCH  11  12
HETATM   12  C   UNK N   1      34.325  18.121   8.353  0.00  0.00     0.143 C 
HETATM   13  O   UNK N   1      34.997  19.133   8.404  0.00  0.00    -0.650 OA
BRANCH  12  14
HETATM   14  O   UNK N   1      34.182  17.377   9.464  0.00  0.00    -0.776 OA
HETATM   15  H   UNK N   1      34.922  16.947   9.847  0.00  0.00     0.167 HD
ENDBRANCH  12  14
ENDBRANCH  11  12
ENDBRANCH   7  11
TORSDOF 3
ENDMDL
MODEL 4
REMARK VINA RESULT:      -5.3      8.773      9.973
REMARK  3 active torsions:
REMARK  status: ('A' for Active; 'I' for Inactive)
REMARK    1  A    between atoms: C_10  and  C_7 
REMARK    2  A    between atoms: C_11  and  C_10 
REMARK    3  A    between atoms: O_12  and  C_11 
ROOT
HETATM    1  C   UNK N   1      26.915  21.060   5.821  0.00  0.00     0.001 A 
HETATM    2  C   UNK N   1      26.624  20.699   4.489  0.00  0.00     0.002 A 
HETATM    3  C   UNK N   1      27.661  20.198   6.639  0.00  0.00     0.014 A 
HETATM    4  C   UNK N   1      27.078  19.472   3.972  0.00  0.00     0.030 A 
HETATM    5  C   UNK N   1      28.100  18.985   6.109  0.00  0.00    -0.001 A 
HETATM    6  C   UNK N   1      27.812  18.642   4.815  0.00  0.00     0.042 A 
HETATM    7  C   UNK N   1      28.838  17.944   6.642  0.00  0.00    -0.020 A 
HETATM    8  C   UNK N   1      28.964  17.005   5.619  0.00  0.00     0.097 A 
HETATM    9  N   UNK N   1      28.331  17.442   4.504  0.00  0.00    -0.365 N 
HETATM   10  H   UNK N   1      28.264  16.975   3.640  0.00  0.00     0.165 HD
ENDROOT
BRANCH   7  11
HETATM   11  C   UNK N   1      29.466  17.733   8.003  0.00  0.00     0.150 C 
BRANCH  11  12
HETATM   12  C   UNK N   1      28.824  18.232   9.276  0.00  0.00     0.143 C 
HETATM   13  O   UNK N   1      29.463  18.773  10.157  0.00  0.00    -0.650 OA
BRANCH  12  14
HETATM   14  O   UNK N   1      27.495  18.089   9.427  0.00  0.00    -0.776 OA
HETATM   15  H   UNK N   1      26.937  18.009   8.678  0.00  0.00     0.167 HD
ENDBRANCH  12  14
ENDBRANCH  11  12
ENDBRANCH   7  11
TORSDOF 3
ENDMDL
MODEL 5
REMARK VINA RESULT:      -5.3     20.106     21.786
REMARK  3 active torsions:
REMARK  status: ('A' for Active; 'I' for Inactive)
REMARK    1  A    between atoms: C_10  and  C_7 
REMARK    2  A    between atoms: C_11  and  C_10 
REMARK    3  A    between atoms: O_12  and  C_11 
ROOT
HETATM    1  C   UNK N   1      28.537  29.094  -7.159  0.00  0.00     0.001 A 
HETATM    2  C   UNK N   1      28.701  30.185  -6.280  0.00  0.00     0.002 A 
HETATM    3  C   UNK N   1      27.579  28.106  -6.886  0.00  0.00     0.014 A 
HETATM    4  C   UNK N   1      27.907  30.288  -5.124  0.00  0.00     0.030 A 
HETATM    5  C   UNK N   1      26.804  28.225  -5.733  0.00  0.00    -0.001 A 
HETATM    6  C   UNK N   1      26.971  29.287  -4.885  0.00  0.00     0.042 A 
HETATM    7  C   UNK N   1      25.800  27.440  -5.195  0.00  0.00    -0.020 A 
HETATM    8  C   UNK N   1      25.400  28.083  -4.026  0.00  0.00     0.097 A 
HETATM    9  N   UNK N   1      26.125  29.214  -3.844  0.00  0.00    -0.365 N 
HETATM   10  H   UNK N   1      26.047  29.852  -3.099  0.00  0.00     0.165 HD
ENDROOT
BRANCH   7  11
HETATM   11  C   UNK N   1      25.148  26.157  -5.666  0.00  0.00     0.150 C 
BRANCH  11  12
HETATM   12  C   UNK N   1      25.555  24.802  -5.137  0.00  0.00     0.143 C 
HETATM   13  O   UNK N   1      25.475  23.792  -5.809  0.00  0.00    -0.650 OA
BRANCH  12  14
HETATM   14  O   UNK N   1      26.040  24.717  -3.886  0.00  0.00    -0.776 OA
HETATM   15  H   UNK N   1      25.565  25.084  -3.166  0.00  0.00     0.167 HD
ENDBRANCH  12  14
ENDBRANCH  11  12
ENDBRANCH   7  11
TORSDOF 3
ENDMDL
MODEL 6
REMARK VINA RESULT:      -5.3      8.993     10.561
REMARK  3 active torsions:
REMARK  status: ('A' for Active; 'I' for Inactive)
REMARK    1  A    between atoms: C_10  and  C_7 
REMARK    2  A    between atoms: C_11  and  C_10 
REMARK    3  A    between atoms: O_12  and  C_11 
ROOT
HETATM    1  C   UNK N   1      31.959  17.325   4.121  0.00  0.00     0.001 A 
HETATM    2  C   UNK N   1      33.264  17.417   4.647  0.00  0.00     0.002 A 
HETATM    3  C   UNK N   1      30.853  17.260   4.983  0.00  0.00     0.014 A 
HETATM    4  C   UNK N   1      33.466  17.444   6.038  0.00  0.00     0.030 A 
HETATM    5  C   UNK N   1      31.075  17.285   6.359  0.00  0.00    -0.001 A 
HETATM    6  C   UNK N   1      32.346  17.374   6.861  0.00  0.00     0.042 A 
HETATM    7  C   UNK N   1      30.220  17.240   7.446  0.00  0.00    -0.020 A 
HETATM    8  C   UNK N   1      31.036  17.309   8.574  0.00  0.00     0.097 A 
HETATM    9  N   UNK N   1      32.337  17.390   8.205  0.00  0.00    -0.365 N 
HETATM   10  H   UNK N   1      33.119  17.448   8.801  0.00  0.00     0.165 HD
ENDROOT
BRANCH   7  11
HETATM   11  C   UNK N   1      28.712  17.163   7.552  0.00  0.00     0.150 C 
BRANCH  11  12
HETATM   12  C   UNK N   1      27.962  17.635   8.776  0.00  0.00     0.143 C 
HETATM   13  O   UNK N   1      27.662  16.883   9.683  0.00  0.00    -0.650 OA
BRANCH  12  14
HETATM   14  O   UNK N   1      27.635  18.936   8.871  0.00  0.00    -0.776 OA
HETATM   15  H   UNK N   1      28.126  19.584   8.405  0.00  0.00     0.167 HD
ENDBRANCH  12  14
ENDBRANCH  11  12
ENDBRANCH   7  11
TORSDOF 3
ENDMDL
MODEL 7
REMARK VINA RESULT:      -5.3     15.102     16.031
REMARK  3 active torsions:
REMARK  status: ('A' for Active; 'I' for Inactive)
REMARK    1  A    between atoms: C_10  and  C_7 
REMARK    2  A    between atoms: C_11  and  C_10 
REMARK    3  A    between atoms: O_12  and  C_11 
ROOT
HETATM    1  C   UNK N   1      35.338   9.516  18.294  0.00  0.00     0.001 A 
HETATM    2  C   UNK N   1      35.314   9.834  19.668  0.00  0.00     0.002 A 
HETATM    3  C   UNK N   1      35.332  10.539  17.333  0.00  0.00     0.014 A 
HETATM    4  C   UNK N   1      35.284  11.177  20.083  0.00  0.00     0.030 A 
HETATM    5  C   UNK N   1      35.298  11.864  17.765  0.00  0.00    -0.001 A 
HETATM    6  C   UNK N   1      35.275  12.163  19.101  0.00  0.00     0.042 A 
HETATM    7  C   UNK N   1      35.286  13.069  17.087  0.00  0.00    -0.020 A 
HETATM    8  C   UNK N   1      35.259  14.058  18.069  0.00  0.00     0.097 A 
HETATM    9  N   UNK N   1      35.251  13.492  19.301  0.00  0.00    -0.365 N 
HETATM   10  H   UNK N   1      35.231  13.960  20.166  0.00  0.00     0.165 HD
ENDROOT
BRANCH   7  11
HETATM   11  C   UNK N   1      35.322  13.408  15.611  0.00  0.00     0.150 C 
BRANCH  11  12
HETATM   12  C   UNK N   1      36.614  13.630  14.863  0.00  0.00     0.143 C 
HETATM   13  O   UNK N   1      36.819  13.152  13.765  0.00  0.00    -0.650 OA
BRANCH  12  14
HETATM   14  O   UNK N   1      37.562  14.400  15.427  0.00  0.00    -0.776 OA
HETATM   15  H   UNK N   1      37.680  15.288  15.148  0.00  0.00     0.167 HD
ENDBRANCH  12  14
ENDBRANCH  11  12
ENDBRANCH   7  11
TORSDOF 3
ENDMDL
MODEL 8
REMARK VINA RESULT:      -5.2      9.069     10.586
REMARK  3 active torsions:
REMARK  status: ('A' for Active; 'I' for Inactive)
REMARK    1  A    between atoms: C_10  and  C_7 
REMARK    2  A    between atoms: C_11  and  C_10 
REMARK    3  A    between atoms: O_12  and  C_11 
ROOT
HETATM    1  C   UNK N   1      33.307  17.877   8.362  0.00  0.00     0.001 A 
HETATM    2  C   UNK N   1      34.078  17.717   7.193  0.00  0.00     0.002 A 
HETATM    3  C   UNK N   1      31.916  17.697   8.320  0.00  0.00     0.014 A 
HETATM    4  C   UNK N   1      33.458  17.377   5.977  0.00  0.00     0.030 A 
HETATM    5  C   UNK N   1      31.320  17.364   7.105  0.00  0.00    -0.001 A 
HETATM    6  C   UNK N   1      32.077  17.211   5.974  0.00  0.00     0.042 A 
HETATM    7  C   UNK N   1      30.007  17.123   6.741  0.00  0.00    -0.020 A 
HETATM    8  C   UNK N   1      30.038  16.827   5.380  0.00  0.00     0.097 A 
HETATM    9  N   UNK N   1      31.311  16.885   4.919  0.00  0.00    -0.365 N 
HETATM   10  H   UNK N   1      31.614  16.722   3.996  0.00  0.00     0.165 HD
ENDROOT
BRANCH   7  11
HETATM   11  C   UNK N   1      28.716  17.114   7.533  0.00  0.00     0.150 C 
BRANCH  11  12
HETATM   12  C   UNK N   1      28.133  18.367   8.142  0.00  0.00     0.143 C 
HETATM   13  O   UNK N   1      28.193  19.447   7.588  0.00  0.00    -0.650 OA
BRANCH  12  14
HETATM   14  O   UNK N   1      27.507  18.277   9.329  0.00  0.00    -0.776 OA
HETATM   15  H   UNK N   1      27.324  19.048   9.829  0.00  0.00     0.167 HD
ENDBRANCH  12  14
ENDBRANCH  11  12
ENDBRANCH   7  11
TORSDOF 3
ENDMDL
MODEL 9
REMARK VINA RESULT:      -5.1     13.011     14.042
REMARK  3 active torsions:
REMARK  status: ('A' for Active; 'I' for Inactive)
REMARK    1  A    between atoms: C_10  and  C_7 
REMARK    2  A    between atoms: C_11  and  C_10 
REMARK    3  A    between atoms: O_12  and  C_11 
ROOT
HETATM    1  C   UNK N   1      34.146  10.564  15.237  0.00  0.00     0.001 A 
HETATM    2  C   UNK N   1      34.849  10.871  16.421  0.00  0.00     0.002 A 
HETATM    3  C   UNK N   1      34.289  11.377  14.101  0.00  0.00     0.014 A 
HETATM    4  C   UNK N   1      35.696  11.992  16.472  0.00  0.00     0.030 A 
HETATM    5  C   UNK N   1      35.131  12.485  14.173  0.00  0.00    -0.001 A 
HETATM    6  C   UNK N   1      35.809  12.775  15.327  0.00  0.00     0.042 A 
HETATM    7  C   UNK N   1      35.480  13.457  13.252  0.00  0.00    -0.020 A 
HETATM    8  C   UNK N   1      36.372  14.301  13.909  0.00  0.00     0.097 A 
HETATM    9  N   UNK N   1      36.566  13.876  15.182  0.00  0.00    -0.365 N 
HETATM   10  H   UNK N   1      37.145  14.290  15.862  0.00  0.00     0.165 HD
ENDROOT
BRANCH   7  11
HETATM   11  C   UNK N   1      35.089  13.675  11.805  0.00  0.00     0.150 C 
BRANCH  11  12
HETATM   12  C   UNK N   1      34.485  14.971  11.318  0.00  0.00     0.143 C 
HETATM   13  O   UNK N   1      35.155  15.966  11.122  0.00  0.00    -0.650 OA
BRANCH  12  14
HETATM   14  O   UNK N   1      33.163  15.016  11.075  0.00  0.00    -0.776 OA
HETATM   15  H   UNK N   1      32.575  14.454  11.542  0.00  0.00     0.167 HD
ENDBRANCH  12  14
ENDBRANCH  11  12
ENDBRANCH   7  11
TORSDOF 3
ENDMDL
