REMARK  4 active torsions:
REMARK  status: ('A' for Active; 'I' for Inactive)
REMARK    1  A    between atoms: C_13  and  C_10 
REMARK    2  A    between atoms: O_22  and  C_10 
REMARK    3  A    between atoms: C_17  and  C_12 
REMARK    4  A    between atoms: N_21  and  C_14 
ROOT
HETATM    1  C   UNK N   1       0.608  -1.162  -0.303  0.00  0.00     0.156 C 
HETATM    2  C   UNK N   1       4.803   0.675  -0.098  0.00  0.00     0.085 A 
HETATM    3  C   UNK N   1       0.970   2.479   0.007  0.00  0.00     0.010 A 
HETATM    4  C   UNK N   1       4.835   2.028   0.018  0.00  0.00     0.066 A 
HETATM    5  C   UNK N   1       3.521  -0.077  -0.174  0.00  0.00     0.201 A 
HETATM    6  C   UNK N   1       2.282   2.050  -0.004  0.00  0.00     0.057 A 
HETATM    7  C   UNK N   1       0.177   1.327  -0.106  0.00  0.00     0.054 A 
HETATM    8  C   UNK N   1       2.264   0.692  -0.124  0.00  0.00     0.100 A 
HETATM    9  C   UNK N   1       3.547   2.798   0.102  0.00  0.00     0.206 A 
HETATM   10  N   UNK N   1       0.993   0.237  -0.181  0.00  0.00    -0.346 N 
HETATM   11  O   UNK N   1       3.522  -1.293  -0.268  0.00  0.00    -0.286 OA
HETATM   12  O   UNK N   1       3.540   4.005   0.278  0.00  0.00    -0.285 OA
ENDROOT
BRANCH   7  13
HETATM   13  C   UNK N   1      -1.319   1.285  -0.149  0.00  0.00    -0.009 A 
HETATM   14  C   UNK N   1      -2.005   0.066  -0.267  0.00  0.00     0.014 A 
HETATM   15  C   UNK N   1      -3.402   0.032  -0.312  0.00  0.00     0.001 A 
HETATM   16  C   UNK N   1      -4.132   1.220  -0.239  0.00  0.00     0.000 A 
HETATM   17  C   UNK N   1      -3.465   2.440  -0.123  0.00  0.00     0.001 A 
HETATM   18  C   UNK N   1      -2.068   2.471  -0.081  0.00  0.00     0.014 A 
ENDBRANCH   7  13
BRANCH   3  19
HETATM   19  C   UNK N   1       0.541   3.909   0.108  0.00  0.00     0.206 C 
BRANCH  19  20
HETATM   20  O   UNK N   1      -0.086   4.138   1.331  0.00  0.00    -0.396 OA
HETATM   21  H   UNK N   1      -0.167   4.596   2.183  0.00  0.00     0.209 HD
ENDBRANCH  19  20
ENDBRANCH   3  19
BRANCH   4  22
HETATM   22  N   UNK N   1       6.101   2.677   0.166  0.00  0.00    -0.273 NA
HETATM   23  C   UNK N   1       7.211   2.445  -0.647  0.00  0.00     0.115 A 
HETATM   24  C   UNK N   1       6.543   3.907  -0.347  0.00  0.00     0.072 A 
HETATM   25  C   UNK N   1       5.693   4.464  -1.477  0.00  0.00     0.028 C 
ENDBRANCH   4  22
TORSDOF 4
