MODEL 1
REMARK VINA RESULT:      -7.3      0.000      0.000
REMARK  4 active torsions:
REMARK  status: ('A' for Active; 'I' for Inactive)
REMARK    1  A    between atoms: O_25  and  C_13 
REMARK    2  A    between atoms: C_15  and  O_21 
REMARK    3  A    between atoms: O_22  and  C_16 
REMARK    4  A    between atoms: C_18  and  O_23 
ROOT
HETATM    1  C   UNK N   1      26.096  13.130   6.046  0.00  0.00     0.040 C 
HETATM    2  C   UNK N   1      24.134  11.945   8.299  0.00  0.00    -0.020 C 
HETATM    3  C   UNK N   1      20.976  16.291   7.813  0.00  0.00    -0.023 C 
HETATM    4  C   UNK N   1      24.314  13.341   7.768  0.00  0.00     0.059 C 
HETATM    5  C   UNK N   1      20.625  16.880   6.655  0.00  0.00     0.009 C 
HETATM    6  C   UNK N   1      23.143  11.567   9.149  0.00  0.00     0.049 C 
HETATM    7  C   UNK N   1      19.937  15.681   8.726  0.00  0.00     0.061 C 
HETATM    8  C   UNK N   1      21.336  18.555   4.988  0.00  0.00     0.049 A 
HETATM    9  C   UNK N   1      23.449  18.477   3.824  0.00  0.00     0.074 A 
HETATM   10  C   UNK N   1      24.632  13.452   6.273  0.00  0.00     0.131 C 
HETATM   11  C   UNK N   1      21.634  17.366   5.660  0.00  0.00    -0.015 A 
HETATM   12  C   UNK N   1      22.224  19.111   4.068  0.00  0.00     0.071 A 
HETATM   13  C   UNK N   1      22.001  12.405   9.656  0.00  0.00     0.180 C 
HETATM   14  C   UNK N   1      20.447  14.508   9.610  0.00  0.00     0.158 C 
HETATM   15  C   UNK N   1      23.768  17.274   4.450  0.00  0.00     0.085 A 
HETATM   16  C   UNK N   1      22.858  16.675   5.349  0.00  0.00     0.083 A 
HETATM   17  C   UNK N   1      21.436  13.568   8.873  0.00  0.00     0.220 C 
HETATM   18  C   UNK N   1      23.128  15.289   5.843  0.00  0.00     0.297 C 
HETATM   19  O   UNK N   1      21.460  12.073  10.700  0.00  0.00    -0.290 OA
HETATM   20  O   UNK N   1      22.184  14.580   6.134  0.00  0.00    -0.259 OA
HETATM   21  O   UNK N   1      24.381  14.747   5.832  0.00  0.00    -0.312 OA
ENDROOT
BRANCH  12  22
HETATM   22  O   UNK N   1      21.872  20.243   3.415  0.00  0.00    -0.356 OA
HETATM   23  C   UNK N   1      20.597  20.480   2.952  0.00  0.00     0.210 C 
ENDBRANCH  12  22
BRANCH  15  24
HETATM   24  O   UNK N   1      24.924  16.667   4.126  0.00  0.00    -0.360 OA
HETATM   25  H   UNK N   1      25.600  16.562   4.766  0.00  0.00     0.217 HD
ENDBRANCH  15  24
BRANCH  14  26
HETATM   26  O   UNK N   1      19.338  13.786  10.057  0.00  0.00    -0.392 OA
HETATM   27  H   UNK N   1      18.505  13.563   9.612  0.00  0.00     0.210 HD
ENDBRANCH  14  26
BRANCH  17  28
HETATM   28  O   UNK N   1      20.832  13.056   7.722  0.00  0.00    -0.385 OA
HETATM   29  H   UNK N   1      20.680  12.540   6.914  0.00  0.00     0.210 HD
ENDBRANCH  17  28
TORSDOF 4
ENDMDL
MODEL 2
REMARK VINA RESULT:      -7.0      2.008      7.069
REMARK  4 active torsions:
REMARK  status: ('A' for Active; 'I' for Inactive)
REMARK    1  A    between atoms: O_25  and  C_13 
REMARK    2  A    between atoms: C_15  and  O_21 
REMARK    3  A    between atoms: O_22  and  C_16 
REMARK    4  A    between atoms: C_18  and  O_23 
ROOT
HETATM    1  C   UNK N   1      26.272  19.218   4.622  0.00  0.00     0.040 C 
HETATM    2  C   UNK N   1      23.821  20.534   3.014  0.00  0.00    -0.020 C 
HETATM    3  C   UNK N   1      20.733  16.297   4.284  0.00  0.00    -0.023 C 
HETATM    4  C   UNK N   1      24.078  19.118   3.454  0.00  0.00     0.059 C 
HETATM    5  C   UNK N   1      20.688  15.691   5.484  0.00  0.00     0.009 C 
HETATM    6  C   UNK N   1      22.652  20.971   2.475  0.00  0.00     0.049 C 
HETATM    7  C   UNK N   1      19.511  16.970   3.701  0.00  0.00     0.061 C 
HETATM    8  C   UNK N   1      21.755  13.948   6.866  0.00  0.00     0.049 A 
HETATM    9  C   UNK N   1      24.107  13.916   7.405  0.00  0.00     0.074 A 
HETATM   10  C   UNK N   1      24.789  18.956   4.802  0.00  0.00     0.131 C 
HETATM   11  C   UNK N   1      21.908  15.142   6.157  0.00  0.00    -0.015 A 
HETATM   12  C   UNK N   1      22.836  13.335   7.498  0.00  0.00     0.071 A 
HETATM   13  C   UNK N   1      21.380  20.189   2.289  0.00  0.00     0.180 C 
HETATM   14  C   UNK N   1      19.808  18.146   2.728  0.00  0.00     0.158 C 
HETATM   15  C   UNK N   1      24.294  15.122   6.734  0.00  0.00     0.085 A 
HETATM   16  C   UNK N   1      23.200  15.778   6.129  0.00  0.00     0.083 A 
HETATM   17  C   UNK N   1      21.002  19.029   3.179  0.00  0.00     0.220 C 
HETATM   18  C   UNK N   1      23.384  17.166   5.601  0.00  0.00     0.297 C 
HETATM   19  O   UNK N   1      20.588  20.569   1.439  0.00  0.00    -0.290 OA
HETATM   20  O   UNK N   1      22.427  17.917   5.592  0.00  0.00    -0.259 OA
HETATM   21  O   UNK N   1      24.613  17.660   5.275  0.00  0.00    -0.312 OA
ENDROOT
BRANCH  12  22
HETATM   22  O   UNK N   1      22.629  12.200   8.205  0.00  0.00    -0.356 OA
HETATM   23  C   UNK N   1      23.606  11.597   8.965  0.00  0.00     0.210 C 
ENDBRANCH  12  22
BRANCH  15  24
HETATM   24  O   UNK N   1      25.520  15.677   6.736  0.00  0.00    -0.360 OA
HETATM   25  H   UNK N   1      26.219  15.281   7.218  0.00  0.00     0.217 HD
ENDBRANCH  15  24
BRANCH  14  26
HETATM   26  O   UNK N   1      18.652  18.920   2.616  0.00  0.00    -0.392 OA
HETATM   27  H   UNK N   1      18.112  19.145   1.842  0.00  0.00     0.210 HD
ENDBRANCH  14  26
BRANCH  17  28
HETATM   28  O   UNK N   1      20.758  19.532   4.460  0.00  0.00    -0.385 OA
HETATM   29  H   UNK N   1      20.434  19.610   5.371  0.00  0.00     0.210 HD
ENDBRANCH  17  28
TORSDOF 4
ENDMDL
MODEL 3
REMARK VINA RESULT:      -6.9     14.954     17.034
REMARK  4 active torsions:
REMARK  status: ('A' for Active; 'I' for Inactive)
REMARK    1  A    between atoms: O_25  and  C_13 
REMARK    2  A    between atoms: C_15  and  O_21 
REMARK    3  A    between atoms: O_22  and  C_16 
REMARK    4  A    between atoms: C_18  and  O_23 
ROOT
HETATM    1  C   UNK N   1      36.313   8.143  10.979  0.00  0.00     0.040 C 
HETATM    2  C   UNK N   1      36.801  10.819   9.268  0.00  0.00    -0.020 C 
HETATM    3  C   UNK N   1      35.738  13.791  13.642  0.00  0.00    -0.023 C 
HETATM    4  C   UNK N   1      36.082  10.585  10.569  0.00  0.00     0.059 C 
HETATM    5  C   UNK N   1      36.170  13.532  14.890  0.00  0.00     0.009 C 
HETATM    6  C   UNK N   1      37.063  12.046   8.744  0.00  0.00     0.049 C 
HETATM    7  C   UNK N   1      36.143  15.057  12.923  0.00  0.00     0.061 C 
HETATM    8  C   UNK N   1      35.643  12.278  16.950  0.00  0.00     0.049 A 
HETATM    9  C   UNK N   1      35.308   9.890  17.018  0.00  0.00     0.074 A 
HETATM   10  C   UNK N   1      36.692   9.520  11.487  0.00  0.00     0.131 C 
HETATM   11  C   UNK N   1      35.909  12.227  15.578  0.00  0.00    -0.015 A 
HETATM   12  C   UNK N   1      35.353  11.125  17.677  0.00  0.00     0.071 A 
HETATM   13  C   UNK N   1      36.782  13.387   9.365  0.00  0.00     0.180 C 
HETATM   14  C   UNK N   1      36.175  14.950  11.371  0.00  0.00     0.158 C 
HETATM   15  C   UNK N   1      35.599   9.793  15.659  0.00  0.00     0.085 A 
HETATM   16  C   UNK N   1      35.940  10.947  14.920  0.00  0.00     0.083 A 
HETATM   17  C   UNK N   1      36.727  13.593  10.861  0.00  0.00     0.220 C 
HETATM   18  C   UNK N   1      36.452  10.792  13.522  0.00  0.00     0.297 C 
HETATM   19  O   UNK N   1      36.683  14.355   8.627  0.00  0.00    -0.290 OA
HETATM   20  O   UNK N   1      37.225  11.625  13.090  0.00  0.00    -0.259 OA
HETATM   21  O   UNK N   1      36.201   9.675  12.779  0.00  0.00    -0.312 OA
ENDROOT
BRANCH  12  22
HETATM   22  O   UNK N   1      35.140  11.223  19.010  0.00  0.00    -0.356 OA
HETATM   23  C   UNK N   1      35.283  12.399  19.710  0.00  0.00     0.210 C 
ENDBRANCH  12  22
BRANCH  15  24
HETATM   24  O   UNK N   1      35.615   8.574  15.089  0.00  0.00    -0.360 OA
HETATM   25  H   UNK N   1      36.019   7.851  15.527  0.00  0.00     0.217 HD
ENDBRANCH  15  24
BRANCH  14  26
HETATM   26  O   UNK N   1      36.950  16.002  10.879  0.00  0.00    -0.392 OA
HETATM   27  H   UNK N   1      36.796  16.960  10.884  0.00  0.00     0.210 HD
ENDBRANCH  14  26
BRANCH  17  28
HETATM   28  O   UNK N   1      38.011  13.385  11.370  0.00  0.00    -0.385 OA
HETATM   29  H   UNK N   1      38.779  12.960  11.785  0.00  0.00     0.210 HD
ENDBRANCH  17  28
TORSDOF 4
ENDMDL
MODEL 4
REMARK VINA RESULT:      -6.9      7.076     10.306
REMARK  4 active torsions:
REMARK  status: ('A' for Active; 'I' for Inactive)
REMARK    1  A    between atoms: O_25  and  C_13 
REMARK    2  A    between atoms: C_15  and  O_21 
REMARK    3  A    between atoms: O_22  and  C_16 
REMARK    4  A    between atoms: C_18  and  O_23 
ROOT
HETATM    1  C   UNK N   1      32.066  13.804   2.665  0.00  0.00     0.040 C 
HETATM    2  C   UNK N   1      29.087  15.003   2.548  0.00  0.00    -0.020 C 
HETATM    3  C   UNK N   1      29.845  17.318   7.361  0.00  0.00    -0.023 C 
HETATM    4  C   UNK N   1      30.029  14.786   3.701  0.00  0.00     0.059 C 
HETATM    5  C   UNK N   1      30.964  17.952   7.759  0.00  0.00     0.009 C 
HETATM    6  C   UNK N   1      27.908  15.674   2.634  0.00  0.00     0.049 C 
HETATM    7  C   UNK N   1      28.528  18.050   7.254  0.00  0.00     0.061 C 
HETATM    8  C   UNK N   1      33.179  17.605   8.791  0.00  0.00     0.049 A 
HETATM    9  C   UNK N   1      34.846  16.098   7.914  0.00  0.00     0.074 A 
HETATM   10  C   UNK N   1      31.515  15.010   3.401  0.00  0.00     0.131 C 
HETATM   11  C   UNK N   1      32.311  17.299   7.738  0.00  0.00    -0.015 A 
HETATM   12  C   UNK N   1      34.442  17.024   8.884  0.00  0.00     0.071 A 
HETATM   13  C   UNK N   1      27.348  16.394   3.831  0.00  0.00     0.180 C 
HETATM   14  C   UNK N   1      27.535  17.470   6.207  0.00  0.00     0.158 C 
HETATM   15  C   UNK N   1      34.024  15.790   6.833  0.00  0.00     0.085 A 
HETATM   16  C   UNK N   1      32.760  16.407   6.700  0.00  0.00     0.083 A 
HETATM   17  C   UNK N   1      28.228  16.990   4.905  0.00  0.00     0.220 C 
HETATM   18  C   UNK N   1      31.989  16.223   5.431  0.00  0.00     0.297 C 
HETATM   19  O   UNK N   1      26.141  16.574   3.884  0.00  0.00    -0.290 OA
HETATM   20  O   UNK N   1      31.236  17.109   5.075  0.00  0.00    -0.259 OA
HETATM   21  O   UNK N   1      32.216  15.173   4.591  0.00  0.00    -0.312 OA
ENDROOT
BRANCH  12  22
HETATM   22  O   UNK N   1      35.259  17.383   9.901  0.00  0.00    -0.356 OA
HETATM   23  C   UNK N   1      35.632  16.521  10.907  0.00  0.00     0.210 C 
ENDBRANCH  12  22
BRANCH  15  24
HETATM   24  O   UNK N   1      34.488  14.950   5.889  0.00  0.00    -0.360 OA
HETATM   25  H   UNK N   1      35.406  14.899   5.709  0.00  0.00     0.217 HD
ENDBRANCH  15  24
BRANCH  14  26
HETATM   26  O   UNK N   1      26.588  18.453   5.915  0.00  0.00    -0.392 OA
HETATM   27  H   UNK N   1      25.730  18.650   6.323  0.00  0.00     0.210 HD
ENDBRANCH  14  26
BRANCH  17  28
HETATM   28  O   UNK N   1      28.945  18.046   4.336  0.00  0.00    -0.385 OA
HETATM   29  H   UNK N   1      29.593  18.539   3.808  0.00  0.00     0.210 HD
ENDBRANCH  17  28
TORSDOF 4
ENDMDL
MODEL 5
REMARK VINA RESULT:      -6.7     16.170     18.337
REMARK  4 active torsions:
REMARK  status: ('A' for Active; 'I' for Inactive)
REMARK    1  A    between atoms: O_25  and  C_13 
REMARK    2  A    between atoms: C_15  and  O_21 
REMARK    3  A    between atoms: O_22  and  C_16 
REMARK    4  A    between atoms: C_18  and  O_23 
ROOT
HETATM    1  C   UNK N   1      36.057   6.987  14.016  0.00  0.00     0.040 C 
HETATM    2  C   UNK N   1      36.843   9.657  12.410  0.00  0.00    -0.020 C 
HETATM    3  C   UNK N   1      35.337  12.633  16.650  0.00  0.00    -0.023 C 
HETATM    4  C   UNK N   1      35.959   9.439  13.608  0.00  0.00     0.059 C 
HETATM    5  C   UNK N   1      35.600  12.350  17.939  0.00  0.00     0.009 C 
HETATM    6  C   UNK N   1      37.208  10.878  11.936  0.00  0.00     0.049 C 
HETATM    7  C   UNK N   1      35.870  13.890  16.001  0.00  0.00     0.061 C 
HETATM    8  C   UNK N   1      34.778  11.101  19.902  0.00  0.00     0.049 A 
HETATM    9  C   UNK N   1      34.359   8.725  19.901  0.00  0.00     0.074 A 
HETATM   10  C   UNK N   1      36.414   8.347  14.583  0.00  0.00     0.131 C 
HETATM   11  C   UNK N   1      35.213  11.051  18.575  0.00  0.00    -0.015 A 
HETATM   12  C   UNK N   1      34.362   9.953  20.574  0.00  0.00     0.071 A 
HETATM   13  C   UNK N   1      36.896  12.224  12.533  0.00  0.00     0.180 C 
HETATM   14  C   UNK N   1      36.094  13.793  14.465  0.00  0.00     0.158 C 
HETATM   15  C   UNK N   1      34.816   8.628  18.589  0.00  0.00     0.085 A 
HETATM   16  C   UNK N   1      35.284   9.775  17.911  0.00  0.00     0.083 A 
HETATM   17  C   UNK N   1      36.660  12.422  14.012  0.00  0.00     0.220 C 
HETATM   18  C   UNK N   1      35.962   9.612  16.587  0.00  0.00     0.297 C 
HETATM   19  O   UNK N   1      36.922  13.201  11.799  0.00  0.00    -0.290 OA
HETATM   20  O   UNK N   1      36.810  10.422  16.264  0.00  0.00    -0.259 OA
HETATM   21  O   UNK N   1      35.771   8.510  15.805  0.00  0.00    -0.312 OA
ENDROOT
BRANCH  12  22
HETATM   22  O   UNK N   1      33.986  10.049  21.871  0.00  0.00    -0.356 OA
HETATM   23  C   UNK N   1      32.722  10.428  22.262  0.00  0.00     0.210 C 
ENDBRANCH  12  22
BRANCH  15  24
HETATM   24  O   UNK N   1      34.863   7.413  18.012  0.00  0.00    -0.360 OA
HETATM   25  H   UNK N   1      34.157   6.808  18.122  0.00  0.00     0.217 HD
ENDBRANCH  15  24
BRANCH  14  26
HETATM   26  O   UNK N   1      36.958  14.821  14.086  0.00  0.00    -0.392 OA
HETATM   27  H   UNK N   1      37.350  15.543  14.601  0.00  0.00     0.210 HD
ENDBRANCH  14  26
BRANCH  17  28
HETATM   28  O   UNK N   1      37.863  12.167  14.676  0.00  0.00    -0.385 OA
HETATM   29  H   UNK N   1      38.503  11.979  15.381  0.00  0.00     0.210 HD
ENDBRANCH  17  28
TORSDOF 4
ENDMDL
MODEL 6
REMARK VINA RESULT:      -6.6      5.984      9.216
REMARK  4 active torsions:
REMARK  status: ('A' for Active; 'I' for Inactive)
REMARK    1  A    between atoms: O_25  and  C_13 
REMARK    2  A    between atoms: C_15  and  O_21 
REMARK    3  A    between atoms: O_22  and  C_16 
REMARK    4  A    between atoms: C_18  and  O_23 
ROOT
HETATM    1  C   UNK N   1      28.250  18.464   8.783  0.00  0.00     0.040 C 
HETATM    2  C   UNK N   1      31.409  17.925   8.544  0.00  0.00    -0.020 C 
HETATM    3  C   UNK N   1      30.575  15.148   3.995  0.00  0.00    -0.023 C 
HETATM    4  C   UNK N   1      30.230  17.232   7.916  0.00  0.00     0.059 C 
HETATM    5  C   UNK N   1      29.731  15.497   3.007  0.00  0.00     0.009 C 
HETATM    6  C   UNK N   1      32.706  17.681   8.219  0.00  0.00     0.049 C 
HETATM    7  C   UNK N   1      32.063  15.038   3.749  0.00  0.00     0.061 C 
HETATM    8  C   UNK N   1      27.387  15.333   2.251  0.00  0.00     0.049 A 
HETATM    9  C   UNK N   1      25.501  16.078   3.559  0.00  0.00     0.074 A 
HETATM   10  C   UNK N   1      29.049  18.134   7.538  0.00  0.00     0.131 C 
HETATM   11  C   UNK N   1      28.275  15.757   3.244  0.00  0.00    -0.015 A 
HETATM   12  C   UNK N   1      26.010  15.496   2.391  0.00  0.00     0.071 A 
HETATM   13  C   UNK N   1      33.225  16.767   7.142  0.00  0.00     0.180 C 
HETATM   14  C   UNK N   1      32.956  15.299   4.995  0.00  0.00     0.158 C 
HETATM   15  C   UNK N   1      26.355  16.543   4.557  0.00  0.00     0.085 A 
HETATM   16  C   UNK N   1      27.755  16.427   4.408  0.00  0.00     0.083 A 
HETATM   17  C   UNK N   1      32.433  16.448   5.896  0.00  0.00     0.220 C 
HETATM   18  C   UNK N   1      28.651  17.118   5.387  0.00  0.00     0.297 C 
HETATM   19  O   UNK N   1      34.365  16.341   7.247  0.00  0.00    -0.290 OA
HETATM   20  O   UNK N   1      29.746  17.490   5.011  0.00  0.00    -0.259 OA
HETATM   21  O   UNK N   1      28.225  17.475   6.633  0.00  0.00    -0.312 OA
ENDROOT
BRANCH  12  22
HETATM   22  O   UNK N   1      25.195  15.104   1.384  0.00  0.00    -0.356 OA
HETATM   23  C   UNK N   1      23.991  14.470   1.594  0.00  0.00     0.210 C 
ENDBRANCH  12  22
BRANCH  15  24
HETATM   24  O   UNK N   1      25.820  17.161   5.625  0.00  0.00    -0.360 OA
HETATM   25  H   UNK N   1      26.275  17.173   6.444  0.00  0.00     0.217 HD
ENDBRANCH  15  24
BRANCH  14  26
HETATM   26  O   UNK N   1      34.248  15.584   4.551  0.00  0.00    -0.392 OA
HETATM   27  H   UNK N   1      34.587  15.769   3.661  0.00  0.00     0.210 HD
ENDBRANCH  14  26
BRANCH  17  28
HETATM   28  O   UNK N   1      32.322  17.622   5.146  0.00  0.00    -0.385 OA
HETATM   29  H   UNK N   1      32.354  18.558   4.892  0.00  0.00     0.210 HD
ENDBRANCH  17  28
TORSDOF 4
ENDMDL
MODEL 7
REMARK VINA RESULT:      -6.6     15.876     16.650
REMARK  4 active torsions:
REMARK  status: ('A' for Active; 'I' for Inactive)
REMARK    1  A    between atoms: O_25  and  C_13 
REMARK    2  A    between atoms: C_15  and  O_21 
REMARK    3  A    between atoms: O_22  and  C_16 
REMARK    4  A    between atoms: C_18  and  O_23 
ROOT
HETATM    1  C   UNK N   1      26.659  21.296  -8.777  0.00  0.00     0.040 C 
HETATM    2  C   UNK N   1      29.471  20.166  -7.707  0.00  0.00    -0.020 C 
HETATM    3  C   UNK N   1      30.049  24.559  -4.630  0.00  0.00    -0.023 C 
HETATM    4  C   UNK N   1      28.891  21.554  -7.707  0.00  0.00     0.059 C 
HETATM    5  C   UNK N   1      29.077  25.143  -3.906  0.00  0.00     0.009 C 
HETATM    6  C   UNK N   1      30.618  19.813  -7.069  0.00  0.00     0.049 C 
HETATM    7  C   UNK N   1      31.275  23.975  -3.966  0.00  0.00     0.061 C 
HETATM    8  C   UNK N   1      27.242  26.789  -4.012  0.00  0.00     0.049 A 
HETATM    9  C   UNK N   1      25.418  26.665  -5.587  0.00  0.00     0.074 A 
HETATM   10  C   UNK N   1      27.376  21.645  -7.487  0.00  0.00     0.131 C 
HETATM   11  C   UNK N   1      27.786  25.602  -4.511  0.00  0.00    -0.015 A 
HETATM   12  C   UNK N   1      26.062  27.321  -4.531  0.00  0.00     0.071 A 
HETATM   13  C   UNK N   1      31.479  20.675  -6.185  0.00  0.00     0.180 C 
HETATM   14  C   UNK N   1      31.945  22.802  -4.737  0.00  0.00     0.158 C 
HETATM   15  C   UNK N   1      25.911  25.463  -6.089  0.00  0.00     0.085 A 
HETATM   16  C   UNK N   1      27.079  24.888  -5.542  0.00  0.00     0.083 A 
HETATM   17  C   UNK N   1      30.924  21.839  -5.397  0.00  0.00     0.220 C 
HETATM   18  C   UNK N   1      27.469  23.502  -5.950  0.00  0.00     0.297 C 
HETATM   19  O   UNK N   1      32.650  20.361  -6.037  0.00  0.00    -0.290 OA
HETATM   20  O   UNK N   1      28.080  22.812  -5.157  0.00  0.00    -0.259 OA
HETATM   21  O   UNK N   1      27.032  22.939  -7.114  0.00  0.00    -0.312 OA
ENDROOT
BRANCH  12  22
HETATM   22  O   UNK N   1      25.556  28.453  -3.988  0.00  0.00    -0.356 OA
HETATM   23  C   UNK N   1      26.326  29.553  -3.688  0.00  0.00     0.210 C 
ENDBRANCH  12  22
BRANCH  15  24
HETATM   24  O   UNK N   1      25.215  24.834  -7.054  0.00  0.00    -0.360 OA
HETATM   25  H   UNK N   1      24.360  24.493  -6.877  0.00  0.00     0.217 HD
ENDBRANCH  15  24
BRANCH  14  26
HETATM   26  O   UNK N   1      32.759  22.104  -3.844  0.00  0.00    -0.392 OA
HETATM   27  H   UNK N   1      33.031  22.312  -2.937  0.00  0.00     0.210 HD
ENDBRANCH  14  26
BRANCH  17  28
HETATM   28  O   UNK N   1      30.062  21.326  -4.424  0.00  0.00    -0.385 OA
HETATM   29  H   UNK N   1      29.255  21.121  -3.925  0.00  0.00     0.210 HD
ENDBRANCH  17  28
TORSDOF 4
ENDMDL
MODEL 8
REMARK VINA RESULT:      -6.5      2.414      7.837
REMARK  4 active torsions:
REMARK  status: ('A' for Active; 'I' for Inactive)
REMARK    1  A    between atoms: O_25  and  C_13 
REMARK    2  A    between atoms: C_15  and  O_21 
REMARK    3  A    between atoms: O_22  and  C_16 
REMARK    4  A    between atoms: C_18  and  O_23 
ROOT
HETATM    1  C   UNK N   1      21.151  18.495   4.429  0.00  0.00     0.040 C 
HETATM    2  C   UNK N   1      23.910  19.783   3.403  0.00  0.00    -0.020 C 
HETATM    3  C   UNK N   1      26.660  16.293   6.461  0.00  0.00    -0.023 C 
HETATM    4  C   UNK N   1      23.592  18.936   4.605  0.00  0.00     0.059 C 
HETATM    5  C   UNK N   1      26.376  14.986   6.607  0.00  0.00     0.009 C 
HETATM    6  C   UNK N   1      25.167  20.124   3.012  0.00  0.00     0.049 C 
HETATM    7  C   UNK N   1      27.971  16.745   5.858  0.00  0.00     0.061 C 
HETATM    8  C   UNK N   1      25.022  13.385   7.909  0.00  0.00     0.049 A 
HETATM    9  C   UNK N   1      22.619  13.499   8.093  0.00  0.00     0.074 A 
HETATM   10  C   UNK N   1      22.525  17.855   4.397  0.00  0.00     0.131 C 
HETATM   11  C   UNK N   1      25.035  14.498   7.063  0.00  0.00    -0.015 A 
HETATM   12  C   UNK N   1      23.829  12.874   8.418  0.00  0.00     0.071 A 
HETATM   13  C   UNK N   1      26.468  19.675   3.619  0.00  0.00     0.180 C 
HETATM   14  C   UNK N   1      27.924  18.124   5.141  0.00  0.00     0.158 C 
HETATM   15  C   UNK N   1      22.588  14.590   7.228  0.00  0.00     0.085 A 
HETATM   16  C   UNK N   1      23.784  15.090   6.668  0.00  0.00     0.083 A 
HETATM   17  C   UNK N   1      26.616  18.354   4.339  0.00  0.00     0.220 C 
HETATM   18  C   UNK N   1      23.707  16.120   5.585  0.00  0.00     0.297 C 
HETATM   19  O   UNK N   1      27.458  20.369   3.442  0.00  0.00    -0.290 OA
HETATM   20  O   UNK N   1      24.593  16.157   4.754  0.00  0.00    -0.259 OA
HETATM   21  O   UNK N   1      22.608  16.911   5.414  0.00  0.00    -0.312 OA
ENDROOT
BRANCH  12  22
HETATM   22  O   UNK N   1      23.867  11.771   9.201  0.00  0.00    -0.356 OA
HETATM   23  C   UNK N   1      22.956  11.529  10.205  0.00  0.00     0.210 C 
ENDBRANCH  12  22
BRANCH  15  24
HETATM   24  O   UNK N   1      21.393  15.109   6.889  0.00  0.00    -0.360 OA
HETATM   25  H   UNK N   1      20.686  15.113   7.503  0.00  0.00     0.217 HD
ENDBRANCH  15  24
BRANCH  14  26
HETATM   26  O   UNK N   1      29.030  18.211   4.294  0.00  0.00    -0.392 OA
HETATM   27  H   UNK N   1      29.873  17.730   4.299  0.00  0.00     0.210 HD
ENDBRANCH  14  26
BRANCH  17  28
HETATM   28  O   UNK N   1      26.453  17.333   3.400  0.00  0.00    -0.385 OA
HETATM   29  H   UNK N   1      26.254  16.468   3.005  0.00  0.00     0.210 HD
ENDBRANCH  17  28
TORSDOF 4
ENDMDL
MODEL 9
REMARK VINA RESULT:      -6.2     14.120     16.512
REMARK  4 active torsions:
REMARK  status: ('A' for Active; 'I' for Inactive)
REMARK    1  A    between atoms: O_25  and  C_13 
REMARK    2  A    between atoms: C_15  and  O_21 
REMARK    3  A    between atoms: O_22  and  C_16 
REMARK    4  A    between atoms: C_18  and  O_23 
ROOT
HETATM    1  C   UNK N   1      39.036   8.323  12.313  0.00  0.00     0.040 C 
HETATM    2  C   UNK N   1      37.936   7.857  15.296  0.00  0.00    -0.020 C 
HETATM    3  C   UNK N   1      36.144  12.944  15.413  0.00  0.00    -0.023 C 
HETATM    4  C   UNK N   1      38.247   9.117  14.534  0.00  0.00     0.059 C 
HETATM    5  C   UNK N   1      35.520  13.579  14.405  0.00  0.00     0.009 C 
HETATM    6  C   UNK N   1      37.321   7.824  16.508  0.00  0.00     0.049 C 
HETATM    7  C   UNK N   1      35.451  12.706  16.735  0.00  0.00     0.061 C 
HETATM    8  C   UNK N   1      35.901  14.909  12.361  0.00  0.00     0.049 A 
HETATM    9  C   UNK N   1      37.243  14.158  10.502  0.00  0.00     0.074 A 
HETATM   10  C   UNK N   1      37.939   9.083  13.033  0.00  0.00     0.131 C 
HETATM   11  C   UNK N   1      36.119  13.705  13.038  0.00  0.00    -0.015 A 
HETATM   12  C   UNK N   1      36.444  15.141  11.099  0.00  0.00     0.071 A 
HETATM   13  C   UNK N   1      36.758   8.985  17.283  0.00  0.00     0.180 C 
HETATM   14  C   UNK N   1      35.946  11.459  17.522  0.00  0.00     0.158 C 
HETATM   15  C   UNK N   1      37.457  12.933  11.130  0.00  0.00     0.085 A 
HETATM   16  C   UNK N   1      36.874  12.666  12.388  0.00  0.00     0.083 A 
HETATM   17  C   UNK N   1      36.254  10.241  16.612  0.00  0.00     0.220 C 
HETATM   18  C   UNK N   1      36.942  11.278  12.943  0.00  0.00     0.297 C 
HETATM   19  O   UNK N   1      36.627   8.863  18.492  0.00  0.00    -0.290 OA
HETATM   20  O   UNK N   1      36.049  10.900  13.677  0.00  0.00    -0.259 OA
HETATM   21  O   UNK N   1      37.885  10.380  12.534  0.00  0.00    -0.312 OA
ENDROOT
BRANCH  12  22
HETATM   22  O   UNK N   1      36.172  16.308  10.469  0.00  0.00    -0.356 OA
HETATM   23  C   UNK N   1      34.918  16.639  10.007  0.00  0.00     0.210 C 
ENDBRANCH  12  22
BRANCH  15  24
HETATM   24  O   UNK N   1      38.170  11.993  10.482  0.00  0.00    -0.360 OA
HETATM   25  H   UNK N   1      37.739  11.352   9.952  0.00  0.00     0.217 HD
ENDBRANCH  15  24
BRANCH  14  26
HETATM   26  O   UNK N   1      34.970  11.123  18.462  0.00  0.00    -0.392 OA
HETATM   27  H   UNK N   1      34.555  10.271  18.670  0.00  0.00     0.210 HD
ENDBRANCH  14  26
BRANCH  17  28
HETATM   28  O   UNK N   1      35.117   9.906  15.872  0.00  0.00    -0.385 OA
HETATM   29  H   UNK N   1      34.272   9.978  15.401  0.00  0.00     0.210 HD
ENDBRANCH  17  28
TORSDOF 4
ENDMDL
