MODEL 1
REMARK VINA RESULT:      -7.3      0.000      0.000
REMARK  5 active torsions:
REMARK  status: ('A' for Active; 'I' for Inactive)
REMARK    1  A    between atoms: C_4  and  N_28 
REMARK    2  A    between atoms: C_10  and  C_12 
REMARK    3  A    between atoms: C_13  and  N_19 
REMARK    4  A    between atoms: N_19  and  C_20 
REMARK    5  A    between atoms: C_20  and  C_21 
ROOT
HETATM    1  C   UNK N   1      28.118  16.061   2.825  0.00  0.00     0.050 C 
HETATM    2  C   UNK N   1      27.988  16.894   4.051  0.00  0.00    -0.031 A 
HETATM    3  C   UNK N   1      29.003  16.896   5.035  0.00  0.00     0.039 A 
HETATM    4  C   UNK N   1      28.868  17.692   6.209  0.00  0.00     0.042 A 
HETATM    5  C   UNK N   1      27.723  18.489   6.375  0.00  0.00     0.061 A 
HETATM    6  C   UNK N   1      26.757  18.457   5.389  0.00  0.00     0.063 A 
HETATM    7  C   UNK N   1      26.863  17.693   4.277  0.00  0.00     0.067 A 
HETATM    8  N   UNK N   1      25.757  17.848   3.524  0.00  0.00    -0.339 N 
ATOM      9  HN  UNK N   1      25.538  17.408   2.629  1.00  0.00     0.167 HD
HETATM   10  C   UNK N   1      24.998  18.730   4.236  0.00  0.00     0.124 A 
HETATM   11  N   UNK N   1      25.606  19.123   5.377  0.00  0.00    -0.340 N 
HETATM   12  H   UNK N   1      25.271  19.759   6.049  0.00  0.00     0.167 HD
ENDROOT
BRANCH  10  13
HETATM   13  C   UNK N   1      23.639  19.215   3.833  0.00  0.00     0.102 A 
HETATM   14  C   UNK N   1      22.445  18.639   4.369  0.00  0.00     0.049 A 
HETATM   15  C   UNK N   1      21.205  19.156   3.993  0.00  0.00     0.047 A 
HETATM   16  C   UNK N   1      21.127  20.202   3.082  0.00  0.00     0.093 A 
HETATM   17  N   UNK N   1      22.258  20.737   2.561  0.00  0.00    -0.333 N 
HETATM   18  C   UNK N   1      23.503  20.283   2.911  0.00  0.00     0.261 A 
HETATM   19  H   UNK N   1      22.183  21.474   1.912  0.00  0.00     0.168 HD
HETATM   20  O   UNK N   1      24.483  20.810   2.417  0.00  0.00    -0.267 OA
BRANCH  14  21
HETATM   21  N   UNK N   1      22.451  17.566   5.301  0.00  0.00    -0.383 N 
HETATM   22  H   UNK N   1      22.440  17.769   6.263  0.00  0.00     0.160 HD
BRANCH  21  23
HETATM   23  C   UNK N   1      22.474  16.186   4.874  0.00  0.00     0.176 C 
BRANCH  23  24
HETATM   24  C   UNK N   1      23.769  15.544   5.254  0.00  0.00     0.026 A 
HETATM   25  C   UNK N   1      24.376  14.638   4.378  0.00  0.00     0.027 A 
HETATM   26  C   UNK N   1      25.584  14.039   4.736  0.00  0.00     0.003 A 
HETATM   27  C   UNK N   1      26.171  14.346   5.964  0.00  0.00     0.017 A 
HETATM   28  C   UNK N   1      25.534  15.252   6.817  0.00  0.00     0.088 A 
HETATM   29  N   UNK N   1      24.357  15.830   6.449  0.00  0.00    -0.368 N 
ATOM     30  HN  UNK N   1      23.906  16.490   7.082  1.00  0.00     0.165 HD
ENDBRANCH  23  24
ENDBRANCH  21  23
ENDBRANCH  14  21
ENDBRANCH  10  13
BRANCH   4  31
HETATM   31  N   UNK N   1      29.866  17.680   7.239  0.00  0.00    -0.317 N 
HETATM   32  C   UNK N   1      31.106  17.168   7.167  0.00  0.00     0.115 A 
HETATM   33  C   UNK N   1      31.710  17.365   8.394  0.00  0.00     0.106 A 
HETATM   34  N   UNK N   1      30.838  17.993   9.210  0.00  0.00    -0.360 N 
HETATM   35  C   UNK N   1      29.719  18.174   8.484  0.00  0.00     0.188 A 
ATOM     36  HN  UNK N   1      30.993  18.273  10.179  1.00  0.00     0.166 HD
ENDBRANCH   4  31
TORSDOF 5
ENDMDL
MODEL 2
REMARK VINA RESULT:      -7.2      4.341      7.203
REMARK  5 active torsions:
REMARK  status: ('A' for Active; 'I' for Inactive)
REMARK    1  A    between atoms: C_4  and  N_28 
REMARK    2  A    between atoms: C_10  and  C_12 
REMARK    3  A    between atoms: C_13  and  N_19 
REMARK    4  A    between atoms: N_19  and  C_20 
REMARK    5  A    between atoms: C_20  and  C_21 
ROOT
HETATM    1  C   UNK N   1      18.996  16.917   8.925  0.00  0.00     0.050 C 
HETATM    2  C   UNK N   1      19.897  15.829   8.458  0.00  0.00    -0.031 A 
HETATM    3  C   UNK N   1      20.535  14.971   9.385  0.00  0.00     0.039 A 
HETATM    4  C   UNK N   1      21.402  13.936   8.931  0.00  0.00     0.042 A 
HETATM    5  C   UNK N   1      21.606  13.762   7.552  0.00  0.00     0.061 A 
HETATM    6  C   UNK N   1      20.963  14.620   6.683  0.00  0.00     0.063 A 
HETATM    7  C   UNK N   1      20.151  15.620   7.100  0.00  0.00     0.067 A 
HETATM    8  N   UNK N   1      19.699  16.301   6.029  0.00  0.00    -0.339 N 
ATOM      9  HN  UNK N   1      19.071  17.106   6.015  1.00  0.00     0.167 HD
HETATM   10  C   UNK N   1      20.278  15.666   4.969  0.00  0.00     0.124 A 
HETATM   11  N   UNK N   1      21.046  14.623   5.356  0.00  0.00    -0.340 N 
HETATM   12  H   UNK N   1      21.553  14.005   4.782  0.00  0.00     0.167 HD
ENDROOT
BRANCH  10  13
HETATM   13  C   UNK N   1      20.112  16.063   3.535  0.00  0.00     0.102 A 
HETATM   14  C   UNK N   1      20.453  17.373   3.072  0.00  0.00     0.049 A 
HETATM   15  C   UNK N   1      20.320  17.678   1.717  0.00  0.00     0.047 A 
HETATM   16  C   UNK N   1      19.831  16.729   0.828  0.00  0.00     0.093 A 
HETATM   17  N   UNK N   1      19.492  15.493   1.269  0.00  0.00    -0.333 N 
HETATM   18  C   UNK N   1      19.622  15.132   2.586  0.00  0.00     0.261 A 
HETATM   19  H   UNK N   1      19.142  14.836   0.625  0.00  0.00     0.168 HD
HETATM   20  O   UNK N   1      19.310  14.004   2.920  0.00  0.00    -0.267 OA
BRANCH  14  21
HETATM   21  N   UNK N   1      20.954  18.392   3.926  0.00  0.00    -0.383 N 
HETATM   22  H   UNK N   1      20.905  18.265   4.901  0.00  0.00     0.160 HD
BRANCH  21  23
HETATM   23  C   UNK N   1      21.534  19.607   3.405  0.00  0.00     0.176 C 
BRANCH  23  24
HETATM   24  C   UNK N   1      23.025  19.551   3.488  0.00  0.00     0.026 A 
HETATM   25  C   UNK N   1      23.792  20.522   2.836  0.00  0.00     0.027 A 
HETATM   26  C   UNK N   1      25.184  20.466   2.913  0.00  0.00     0.003 A 
HETATM   27  C   UNK N   1      25.795  19.441   3.635  0.00  0.00     0.017 A 
HETATM   28  C   UNK N   1      24.999  18.484   4.270  0.00  0.00     0.088 A 
HETATM   29  N   UNK N   1      23.641  18.557   4.186  0.00  0.00    -0.368 N 
ATOM     30  HN  UNK N   1      23.074  17.852   4.657  1.00  0.00     0.165 HD
ENDBRANCH  23  24
ENDBRANCH  21  23
ENDBRANCH  14  21
ENDBRANCH  10  13
BRANCH   4  31
HETATM   31  N   UNK N   1      22.091  13.080   9.853  0.00  0.00    -0.317 N 
HETATM   32  C   UNK N   1      23.419  12.942  10.001  0.00  0.00     0.115 A 
HETATM   33  C   UNK N   1      23.632  12.001  10.991  0.00  0.00     0.106 A 
HETATM   34  N   UNK N   1      22.436  11.566  11.440  0.00  0.00    -0.360 N 
HETATM   35  C   UNK N   1      21.510  12.238  10.730  0.00  0.00     0.188 A 
ATOM     36  HN  UNK N   1      22.267  10.871  12.167  1.00  0.00     0.166 HD
ENDBRANCH   4  31
TORSDOF 5
ENDMDL
MODEL 3
REMARK VINA RESULT:      -7.1      4.295      8.333
REMARK  5 active torsions:
REMARK  status: ('A' for Active; 'I' for Inactive)
REMARK    1  A    between atoms: C_4  and  N_28 
REMARK    2  A    between atoms: C_10  and  C_12 
REMARK    3  A    between atoms: C_13  and  N_19 
REMARK    4  A    between atoms: N_19  and  C_20 
REMARK    5  A    between atoms: C_20  and  C_21 
ROOT
HETATM    1  C   UNK N   1      19.570  13.337   3.517  0.00  0.00     0.050 C 
HETATM    2  C   UNK N   1      19.985  14.585   4.213  0.00  0.00    -0.031 A 
HETATM    3  C   UNK N   1      19.949  15.831   3.545  0.00  0.00     0.039 A 
HETATM    4  C   UNK N   1      20.355  17.021   4.216  0.00  0.00     0.042 A 
HETATM    5  C   UNK N   1      20.776  16.950   5.555  0.00  0.00     0.061 A 
HETATM    6  C   UNK N   1      20.795  15.713   6.168  0.00  0.00     0.063 A 
HETATM    7  C   UNK N   1      20.430  14.572   5.539  0.00  0.00     0.067 A 
HETATM    8  N   UNK N   1      20.584  13.531   6.380  0.00  0.00    -0.339 N 
ATOM      9  HN  UNK N   1      20.394  12.544   6.202  1.00  0.00     0.167 HD
HETATM   10  C   UNK N   1      21.055  14.104   7.525  0.00  0.00     0.124 A 
HETATM   11  N   UNK N   1      21.176  15.445   7.413  0.00  0.00    -0.340 N 
HETATM   12  H   UNK N   1      21.480  16.081   8.100  0.00  0.00     0.167 HD
ENDROOT
BRANCH  10  13
HETATM   13  C   UNK N   1      21.418  13.358   8.773  0.00  0.00     0.102 A 
HETATM   14  C   UNK N   1      22.644  12.632   8.886  0.00  0.00     0.049 A 
HETATM   15  C   UNK N   1      22.954  11.989  10.085  0.00  0.00     0.047 A 
HETATM   16  C   UNK N   1      22.065  12.028  11.152  0.00  0.00     0.093 A 
HETATM   17  N   UNK N   1      20.894  12.703  11.039  0.00  0.00    -0.333 N 
HETATM   18  C   UNK N   1      20.549  13.369   9.892  0.00  0.00     0.261 A 
HETATM   19  H   UNK N   1      20.275  12.714  11.805  0.00  0.00     0.168 HD
HETATM   20  O   UNK N   1      19.488  13.965   9.855  0.00  0.00    -0.267 OA
BRANCH  14  21
HETATM   21  N   UNK N   1      23.596  12.547   7.833  0.00  0.00    -0.383 N 
HETATM   22  H   UNK N   1      23.533  11.805   7.191  0.00  0.00     0.160 HD
BRANCH  21  23
HETATM   23  C   UNK N   1      24.652  13.521   7.680  0.00  0.00     0.176 C 
BRANCH  23  24
HETATM   24  C   UNK N   1      24.433  14.338   6.448  0.00  0.00     0.026 A 
HETATM   25  C   UNK N   1      24.029  13.712   5.264  0.00  0.00     0.027 A 
HETATM   26  C   UNK N   1      23.827  14.477   4.115  0.00  0.00     0.003 A 
HETATM   27  C   UNK N   1      24.036  15.855   4.157  0.00  0.00     0.017 A 
HETATM   28  C   UNK N   1      24.446  16.448   5.355  0.00  0.00     0.088 A 
HETATM   29  N   UNK N   1      24.633  15.685   6.468  0.00  0.00    -0.368 N 
ATOM     30  HN  UNK N   1      24.931  16.133   7.335  1.00  0.00     0.165 HD
ENDBRANCH  23  24
ENDBRANCH  21  23
ENDBRANCH  14  21
ENDBRANCH  10  13
BRANCH   4  31
HETATM   31  N   UNK N   1      20.364  18.289   3.547  0.00  0.00    -0.317 N 
HETATM   32  C   UNK N   1      20.934  19.430   3.970  0.00  0.00     0.115 A 
HETATM   33  C   UNK N   1      20.682  20.400   3.019  0.00  0.00     0.106 A 
HETATM   34  N   UNK N   1      19.957  19.850   2.022  0.00  0.00    -0.360 N 
HETATM   35  C   UNK N   1      19.775  18.562   2.367  0.00  0.00     0.188 A 
ATOM     36  HN  UNK N   1      19.617  20.315   1.180  1.00  0.00     0.166 HD
ENDBRANCH   4  31
TORSDOF 5
ENDMDL
MODEL 4
REMARK VINA RESULT:      -7.1      2.443      4.158
REMARK  5 active torsions:
REMARK  status: ('A' for Active; 'I' for Inactive)
REMARK    1  A    between atoms: C_4  and  N_28 
REMARK    2  A    between atoms: C_10  and  C_12 
REMARK    3  A    between atoms: C_13  and  N_19 
REMARK    4  A    between atoms: N_19  and  C_20 
REMARK    5  A    between atoms: C_20  and  C_21 
ROOT
HETATM    1  C   UNK N   1      29.280  16.329   2.919  0.00  0.00     0.050 C 
HETATM    2  C   UNK N   1      29.291  16.553   4.390  0.00  0.00    -0.031 A 
HETATM    3  C   UNK N   1      30.481  16.928   5.056  0.00  0.00     0.039 A 
HETATM    4  C   UNK N   1      30.485  17.134   6.465  0.00  0.00     0.042 A 
HETATM    5  C   UNK N   1      29.291  16.977   7.190  0.00  0.00     0.061 A 
HETATM    6  C   UNK N   1      28.153  16.611   6.500  0.00  0.00     0.063 A 
HETATM    7  C   UNK N   1      28.137  16.394   5.164  0.00  0.00     0.067 A 
HETATM    8  N   UNK N   1      26.898  16.021   4.788  0.00  0.00    -0.339 N 
ATOM      9  HN  UNK N   1      26.568  15.789   3.851  1.00  0.00     0.167 HD
HETATM   10  C   UNK N   1      26.189  16.025   5.954  0.00  0.00     0.124 A 
HETATM   11  N   UNK N   1      26.944  16.398   7.010  0.00  0.00    -0.340 N 
HETATM   12  H   UNK N   1      26.661  16.491   7.949  0.00  0.00     0.167 HD
ENDROOT
BRANCH  10  13
HETATM   13  C   UNK N   1      24.744  15.650   6.081  0.00  0.00     0.102 A 
HETATM   14  C   UNK N   1      23.727  16.301   5.315  0.00  0.00     0.049 A 
HETATM   15  C   UNK N   1      22.402  15.885   5.439  0.00  0.00     0.047 A 
HETATM   16  C   UNK N   1      22.065  14.866   6.321  0.00  0.00     0.093 A 
HETATM   17  N   UNK N   1      23.026  14.260   7.061  0.00  0.00    -0.333 N 
HETATM   18  C   UNK N   1      24.347  14.615   6.964  0.00  0.00     0.261 A 
HETATM   19  H   UNK N   1      22.767  13.544   7.686  0.00  0.00     0.168 HD
HETATM   20  O   UNK N   1      25.166  14.027   7.646  0.00  0.00    -0.267 OA
BRANCH  14  21
HETATM   21  N   UNK N   1      24.000  17.351   4.397  0.00  0.00    -0.383 N 
HETATM   22  H   UNK N   1      24.208  17.126   3.462  0.00  0.00     0.160 HD
BRANCH  21  23
HETATM   23  C   UNK N   1      23.981  18.739   4.798  0.00  0.00     0.176 C 
BRANCH  23  24
HETATM   24  C   UNK N   1      25.374  19.274   4.891  0.00  0.00     0.026 A 
HETATM   25  C   UNK N   1      26.176  19.321   3.746  0.00  0.00     0.027 A 
HETATM   26  C   UNK N   1      27.476  19.819   3.836  0.00  0.00     0.003 A 
HETATM   27  C   UNK N   1      27.964  20.258   5.067  0.00  0.00     0.017 A 
HETATM   28  C   UNK N   1      27.138  20.190   6.193  0.00  0.00     0.088 A 
HETATM   29  N   UNK N   1      25.870  19.705   6.084  0.00  0.00    -0.368 N 
ATOM     30  HN  UNK N   1      25.279  19.664   6.914  1.00  0.00     0.165 HD
ENDBRANCH  23  24
ENDBRANCH  21  23
ENDBRANCH  14  21
ENDBRANCH  10  13
BRANCH   4  31
HETATM   31  N   UNK N   1      31.688  17.476   7.167  0.00  0.00    -0.317 N 
HETATM   32  C   UNK N   1      32.938  17.508   6.675  0.00  0.00     0.115 A 
HETATM   33  C   UNK N   1      33.782  17.874   7.707  0.00  0.00     0.106 A 
HETATM   34  N   UNK N   1      33.047  18.061   8.823  0.00  0.00    -0.360 N 
HETATM   35  C   UNK N   1      31.772  17.811   8.469  0.00  0.00     0.188 A 
ATOM     36  HN  UNK N   1      33.386  18.334   9.745  1.00  0.00     0.166 HD
ENDBRANCH   4  31
TORSDOF 5
ENDMDL
MODEL 5
REMARK VINA RESULT:      -7.0      4.661     10.043
REMARK  5 active torsions:
REMARK  status: ('A' for Active; 'I' for Inactive)
REMARK    1  A    between atoms: C_4  and  N_28 
REMARK    2  A    between atoms: C_10  and  C_12 
REMARK    3  A    between atoms: C_13  and  N_19 
REMARK    4  A    between atoms: N_19  and  C_20 
REMARK    5  A    between atoms: C_20  and  C_21 
ROOT
HETATM    1  C   UNK N   1      33.447  17.083   4.709  0.00  0.00     0.050 C 
HETATM    2  C   UNK N   1      32.379  17.039   5.745  0.00  0.00    -0.031 A 
HETATM    3  C   UNK N   1      31.058  17.441   5.439  0.00  0.00     0.039 A 
HETATM    4  C   UNK N   1      30.043  17.402   6.438  0.00  0.00     0.042 A 
HETATM    5  C   UNK N   1      30.361  16.946   7.729  0.00  0.00     0.061 A 
HETATM    6  C   UNK N   1      31.662  16.563   7.983  0.00  0.00     0.063 A 
HETATM    7  C   UNK N   1      32.642  16.611   7.050  0.00  0.00     0.067 A 
HETATM    8  N   UNK N   1      33.802  16.208   7.602  0.00  0.00    -0.339 N 
ATOM      9  HN  UNK N   1      34.718  16.133   7.157  1.00  0.00     0.167 HD
HETATM   10  C   UNK N   1      33.468  15.923   8.894  0.00  0.00     0.124 A 
HETATM   11  N   UNK N   1      32.154  16.124   9.137  0.00  0.00    -0.340 N 
HETATM   12  H   UNK N   1      31.671  15.979   9.983  0.00  0.00     0.167 HD
ENDROOT
BRANCH  10  13
HETATM   13  C   UNK N   1      34.427  15.455   9.946  0.00  0.00     0.102 A 
HETATM   14  C   UNK N   1      34.424  14.106  10.420  0.00  0.00     0.049 A 
HETATM   15  C   UNK N   1      35.366  13.711  11.369  0.00  0.00     0.047 A 
HETATM   16  C   UNK N   1      36.281  14.626  11.875  0.00  0.00     0.093 A 
HETATM   17  N   UNK N   1      36.273  15.909  11.438  0.00  0.00    -0.333 N 
HETATM   18  C   UNK N   1      35.383  16.347  10.491  0.00  0.00     0.261 A 
HETATM   19  H   UNK N   1      36.925  16.545  11.812  0.00  0.00     0.168 HD
HETATM   20  O   UNK N   1      35.431  17.510  10.132  0.00  0.00    -0.267 OA
BRANCH  14  21
HETATM   21  N   UNK N   1      33.515  13.120   9.950  0.00  0.00    -0.383 N 
HETATM   22  H   UNK N   1      32.580  13.149  10.255  0.00  0.00     0.160 HD
BRANCH  21  23
HETATM   23  C   UNK N   1      33.925  12.079   9.036  0.00  0.00     0.176 C 
BRANCH  23  24
HETATM   24  C   UNK N   1      33.841  12.562   7.624  0.00  0.00     0.026 A 
HETATM   25  C   UNK N   1      35.015  12.835   6.914  0.00  0.00     0.027 A 
HETATM   26  C   UNK N   1      34.933  13.287   5.597  0.00  0.00     0.003 A 
HETATM   27  C   UNK N   1      33.684  13.467   5.004  0.00  0.00     0.017 A 
HETATM   28  C   UNK N   1      32.530  13.190   5.744  0.00  0.00     0.088 A 
HETATM   29  N   UNK N   1      32.630  12.746   7.028  0.00  0.00    -0.368 N 
ATOM     30  HN  UNK N   1      31.779  12.546   7.554  1.00  0.00     0.165 HD
ENDBRANCH  23  24
ENDBRANCH  21  23
ENDBRANCH  14  21
ENDBRANCH  10  13
BRANCH   4  31
HETATM   31  N   UNK N   1      28.706  17.841   6.162  0.00  0.00    -0.317 N 
HETATM   32  C   UNK N   1      27.885  17.398   5.195  0.00  0.00     0.115 A 
HETATM   33  C   UNK N   1      26.705  18.111   5.291  0.00  0.00     0.106 A 
HETATM   34  N   UNK N   1      26.811  18.988   6.311  0.00  0.00    -0.360 N 
HETATM   35  C   UNK N   1      28.040  18.805   6.827  0.00  0.00     0.188 A 
ATOM     36  HN  UNK N   1      26.105  19.653   6.627  1.00  0.00     0.166 HD
ENDBRANCH   4  31
TORSDOF 5
ENDMDL
MODEL 6
REMARK VINA RESULT:      -6.9      1.742      2.420
REMARK  5 active torsions:
REMARK  status: ('A' for Active; 'I' for Inactive)
REMARK    1  A    between atoms: C_4  and  N_28 
REMARK    2  A    between atoms: C_10  and  C_12 
REMARK    3  A    between atoms: C_13  and  N_19 
REMARK    4  A    between atoms: N_19  and  C_20 
REMARK    5  A    between atoms: C_20  and  C_21 
ROOT
HETATM    1  C   UNK N   1      27.878  15.929   2.915  0.00  0.00     0.050 C 
HETATM    2  C   UNK N   1      27.795  16.828   4.097  0.00  0.00    -0.031 A 
HETATM    3  C   UNK N   1      28.829  16.850   5.062  0.00  0.00     0.039 A 
HETATM    4  C   UNK N   1      28.740  17.709   6.195  0.00  0.00     0.042 A 
HETATM    5  C   UNK N   1      27.623  18.549   6.339  0.00  0.00     0.061 A 
HETATM    6  C   UNK N   1      26.638  18.496   5.373  0.00  0.00     0.063 A 
HETATM    7  C   UNK N   1      26.699  17.672   4.301  0.00  0.00     0.067 A 
HETATM    8  N   UNK N   1      25.585  17.823   3.560  0.00  0.00    -0.339 N 
ATOM      9  HN  UNK N   1      25.336  17.344   2.693  1.00  0.00     0.167 HD
HETATM   10  C   UNK N   1      24.866  18.763   4.238  0.00  0.00     0.124 A 
HETATM   11  N   UNK N   1      25.508  19.195   5.346  0.00  0.00    -0.340 N 
HETATM   12  H   UNK N   1      25.204  19.875   5.990  0.00  0.00     0.167 HD
ENDROOT
BRANCH  10  13
HETATM   13  C   UNK N   1      23.515  19.268   3.834  0.00  0.00     0.102 A 
HETATM   14  C   UNK N   1      22.313  18.736   4.397  0.00  0.00     0.049 A 
HETATM   15  C   UNK N   1      21.082  19.271   4.017  0.00  0.00     0.047 A 
HETATM   16  C   UNK N   1      21.019  20.293   3.078  0.00  0.00     0.093 A 
HETATM   17  N   UNK N   1      22.158  20.786   2.531  0.00  0.00    -0.333 N 
HETATM   18  C   UNK N   1      23.396  20.312   2.883  0.00  0.00     0.261 A 
HETATM   19  H   UNK N   1      22.093  21.506   1.863  0.00  0.00     0.168 HD
HETATM   20  O   UNK N   1      24.382  20.802   2.365  0.00  0.00    -0.267 OA
BRANCH  14  21
HETATM   21  N   UNK N   1      22.304  17.690   5.359  0.00  0.00    -0.383 N 
HETATM   22  H   UNK N   1      22.886  17.762   6.148  0.00  0.00     0.160 HD
BRANCH  21  23
HETATM   23  C   UNK N   1      21.463  16.525   5.210  0.00  0.00     0.176 C 
BRANCH  23  24
HETATM   24  C   UNK N   1      21.025  16.024   6.548  0.00  0.00     0.026 A 
HETATM   25  C   UNK N   1      20.494  16.919   7.483  0.00  0.00     0.027 A 
HETATM   26  C   UNK N   1      20.088  16.449   8.732  0.00  0.00     0.003 A 
HETATM   27  C   UNK N   1      20.219  15.094   9.037  0.00  0.00     0.017 A 
HETATM   28  C   UNK N   1      20.759  14.228   8.081  0.00  0.00     0.088 A 
HETATM   29  N   UNK N   1      21.146  14.705   6.866  0.00  0.00    -0.368 N 
ATOM     30  HN  UNK N   1      21.536  14.060   6.178  1.00  0.00     0.165 HD
ENDBRANCH  23  24
ENDBRANCH  21  23
ENDBRANCH  14  21
ENDBRANCH  10  13
BRANCH   4  31
HETATM   31  N   UNK N   1      29.757  17.720   7.207  0.00  0.00    -0.317 N 
HETATM   32  C   UNK N   1      30.998  17.212   7.121  0.00  0.00     0.115 A 
HETATM   33  C   UNK N   1      31.623  17.433   8.333  0.00  0.00     0.106 A 
HETATM   34  N   UNK N   1      30.763  18.071   9.155  0.00  0.00    -0.360 N 
HETATM   35  C   UNK N   1      29.630  18.234   8.445  0.00  0.00     0.188 A 
ATOM     36  HN  UNK N   1      30.934  18.368  10.115  1.00  0.00     0.166 HD
ENDBRANCH   4  31
TORSDOF 5
ENDMDL
MODEL 7
REMARK VINA RESULT:      -6.9      2.338      3.933
REMARK  5 active torsions:
REMARK  status: ('A' for Active; 'I' for Inactive)
REMARK    1  A    between atoms: C_4  and  N_28 
REMARK    2  A    between atoms: C_10  and  C_12 
REMARK    3  A    between atoms: C_13  and  N_19 
REMARK    4  A    between atoms: N_19  and  C_20 
REMARK    5  A    between atoms: C_20  and  C_21 
ROOT
HETATM    1  C   UNK N   1      32.294  17.507   3.726  0.00  0.00     0.050 C 
HETATM    2  C   UNK N   1      31.685  17.299   5.068  0.00  0.00    -0.031 A 
HETATM    3  C   UNK N   1      32.464  16.825   6.149  0.00  0.00     0.039 A 
HETATM    4  C   UNK N   1      31.872  16.622   7.429  0.00  0.00     0.042 A 
HETATM    5  C   UNK N   1      30.510  16.910   7.614  0.00  0.00     0.061 A 
HETATM    6  C   UNK N   1      29.788  17.371   6.532  0.00  0.00     0.063 A 
HETATM    7  C   UNK N   1      30.331  17.552   5.305  0.00  0.00     0.067 A 
HETATM    8  N   UNK N   1      29.377  17.977   4.454  0.00  0.00    -0.339 N 
ATOM      9  HN  UNK N   1      29.472  18.201   3.463  1.00  0.00     0.167 HD
HETATM   10  C   UNK N   1      28.253  18.035   5.226  0.00  0.00     0.124 A 
HETATM   11  N   UNK N   1      28.495  17.679   6.507  0.00  0.00    -0.340 N 
HETATM   12  H   UNK N   1      27.854  17.653   7.255  0.00  0.00     0.167 HD
ENDROOT
BRANCH  10  13
HETATM   13  C   UNK N   1      26.894  18.430   4.736  0.00  0.00     0.102 A 
HETATM   14  C   UNK N   1      25.846  17.472   4.566  0.00  0.00     0.049 A 
HETATM   15  C   UNK N   1      24.586  17.899   4.148  0.00  0.00     0.047 A 
HETATM   16  C   UNK N   1      24.356  19.240   3.869  0.00  0.00     0.093 A 
HETATM   17  N   UNK N   1      25.353  20.147   4.013  0.00  0.00    -0.333 N 
HETATM   18  C   UNK N   1      26.605  19.786   4.441  0.00  0.00     0.261 A 
HETATM   19  H   UNK N   1      25.173  21.092   3.805  0.00  0.00     0.168 HD
HETATM   20  O   UNK N   1      27.457  20.647   4.562  0.00  0.00    -0.267 OA
BRANCH  14  21
HETATM   21  N   UNK N   1      26.014  16.085   4.829  0.00  0.00    -0.383 N 
HETATM   22  H   UNK N   1      25.919  15.760   5.753  0.00  0.00     0.160 HD
BRANCH  21  23
HETATM   23  C   UNK N   1      26.318  15.141   3.780  0.00  0.00     0.176 C 
BRANCH  23  24
HETATM   24  C   UNK N   1      27.769  14.783   3.805  0.00  0.00     0.026 A 
HETATM   25  C   UNK N   1      28.333  14.260   4.974  0.00  0.00     0.027 A 
HETATM   26  C   UNK N   1      29.688  13.929   4.995  0.00  0.00     0.003 A 
HETATM   27  C   UNK N   1      30.466  14.127   3.854  0.00  0.00     0.017 A 
HETATM   28  C   UNK N   1      29.871  14.657   2.705  0.00  0.00     0.088 A 
HETATM   29  N   UNK N   1      28.546  14.970   2.702  0.00  0.00    -0.368 N 
ATOM     30  HN  UNK N   1      28.126  15.354   1.855  1.00  0.00     0.165 HD
ENDBRANCH  23  24
ENDBRANCH  21  23
ENDBRANCH  14  21
ENDBRANCH  10  13
BRANCH   4  31
HETATM   31  N   UNK N   1      32.633  16.105   8.530  0.00  0.00    -0.317 N 
HETATM   32  C   UNK N   1      33.906  16.391   8.847  0.00  0.00     0.115 A 
HETATM   33  C   UNK N   1      34.231  15.657   9.971  0.00  0.00     0.106 A 
HETATM   34  N   UNK N   1      33.158  14.923  10.335  0.00  0.00    -0.360 N 
HETATM   35  C   UNK N   1      32.195  15.213   9.440  0.00  0.00     0.188 A 
ATOM     36  HN  UNK N   1      33.090  14.281  11.124  1.00  0.00     0.166 HD
ENDBRANCH   4  31
TORSDOF 5
ENDMDL
MODEL 8
REMARK VINA RESULT:      -6.9      8.319     11.820
REMARK  5 active torsions:
REMARK  status: ('A' for Active; 'I' for Inactive)
REMARK    1  A    between atoms: C_4  and  N_28 
REMARK    2  A    between atoms: C_10  and  C_12 
REMARK    3  A    between atoms: C_13  and  N_19 
REMARK    4  A    between atoms: N_19  and  C_20 
REMARK    5  A    between atoms: C_20  and  C_21 
ROOT
HETATM    1  C   UNK N   1      38.629  13.013  10.560  0.00  0.00     0.050 C 
HETATM    2  C   UNK N   1      37.376  12.896  11.353  0.00  0.00    -0.031 A 
HETATM    3  C   UNK N   1      37.296  12.009  12.452  0.00  0.00     0.039 A 
HETATM    4  C   UNK N   1      36.090  11.898  13.203  0.00  0.00     0.042 A 
HETATM    5  C   UNK N   1      34.983  12.689  12.852  0.00  0.00     0.061 A 
HETATM    6  C   UNK N   1      35.105  13.541  11.772  0.00  0.00     0.063 A 
HETATM    7  C   UNK N   1      36.238  13.644  11.039  0.00  0.00     0.067 A 
HETATM    8  N   UNK N   1      36.042  14.527  10.040  0.00  0.00    -0.339 N 
ATOM      9  HN  UNK N   1      36.704  14.821   9.321  1.00  0.00     0.167 HD
HETATM   10  C   UNK N   1      34.751  14.935  10.214  0.00  0.00     0.124 A 
HETATM   11  N   UNK N   1      34.169  14.348  11.282  0.00  0.00    -0.340 N 
HETATM   12  H   UNK N   1      33.255  14.486  11.620  0.00  0.00     0.167 HD
ENDROOT
BRANCH  10  13
HETATM   13  C   UNK N   1      34.033  15.909   9.331  0.00  0.00     0.102 A 
HETATM   14  C   UNK N   1      32.916  15.516   8.528  0.00  0.00     0.049 A 
HETATM   15  C   UNK N   1      32.256  16.472   7.757  0.00  0.00     0.047 A 
HETATM   16  C   UNK N   1      32.695  17.790   7.743  0.00  0.00     0.093 A 
HETATM   17  N   UNK N   1      33.764  18.160   8.491  0.00  0.00    -0.333 N 
HETATM   18  C   UNK N   1      34.438  17.267   9.284  0.00  0.00     0.261 A 
HETATM   19  H   UNK N   1      34.064  19.097   8.463  0.00  0.00     0.168 HD
HETATM   20  O   UNK N   1      35.384  17.660   9.940  0.00  0.00    -0.267 OA
BRANCH  14  21
HETATM   21  N   UNK N   1      32.417  14.186   8.492  0.00  0.00    -0.383 N 
HETATM   22  H   UNK N   1      31.642  13.951   9.051  0.00  0.00     0.160 HD
BRANCH  21  23
HETATM   23  C   UNK N   1      33.014  13.170   7.657  0.00  0.00     0.176 C 
BRANCH  23  24
HETATM   24  C   UNK N   1      33.587  12.075   8.498  0.00  0.00     0.026 A 
HETATM   25  C   UNK N   1      34.901  11.648   8.278  0.00  0.00     0.027 A 
HETATM   26  C   UNK N   1      35.432  10.624   9.064  0.00  0.00     0.003 A 
HETATM   27  C   UNK N   1      34.647  10.034  10.054  0.00  0.00     0.017 A 
HETATM   28  C   UNK N   1      33.336  10.481  10.242  0.00  0.00     0.088 A 
HETATM   29  N   UNK N   1      32.836  11.485   9.469  0.00  0.00    -0.368 N 
ATOM     30  HN  UNK N   1      31.878  11.801   9.620  1.00  0.00     0.165 HD
ENDBRANCH  23  24
ENDBRANCH  21  23
ENDBRANCH  14  21
ENDBRANCH  10  13
BRANCH   4  31
HETATM   31  N   UNK N   1      35.973  10.978  14.297  0.00  0.00    -0.317 N 
HETATM   32  C   UNK N   1      35.417   9.755  14.277  0.00  0.00     0.115 A 
HETATM   33  C   UNK N   1      35.511   9.235  15.554  0.00  0.00     0.106 A 
HETATM   34  N   UNK N   1      36.119  10.141  16.348  0.00  0.00    -0.360 N 
HETATM   35  C   UNK N   1      36.391  11.197  15.558  0.00  0.00     0.188 A 
ATOM     36  HN  UNK N   1      36.330  10.047  17.341  1.00  0.00     0.166 HD
ENDBRANCH   4  31
TORSDOF 5
ENDMDL
MODEL 9
REMARK VINA RESULT:      -6.8      4.155      7.979
REMARK  5 active torsions:
REMARK  status: ('A' for Active; 'I' for Inactive)
REMARK    1  A    between atoms: C_4  and  N_28 
REMARK    2  A    between atoms: C_10  and  C_12 
REMARK    3  A    between atoms: C_13  and  N_19 
REMARK    4  A    between atoms: N_19  and  C_20 
REMARK    5  A    between atoms: C_20  and  C_21 
ROOT
HETATM    1  C   UNK N   1      34.822  18.737   8.292  0.00  0.00     0.050 C 
HETATM    2  C   UNK N   1      34.299  17.455   8.839  0.00  0.00    -0.031 A 
HETATM    3  C   UNK N   1      35.104  16.643   9.671  0.00  0.00     0.039 A 
HETATM    4  C   UNK N   1      34.599  15.414  10.186  0.00  0.00     0.042 A 
HETATM    5  C   UNK N   1      33.286  15.021   9.872  0.00  0.00     0.061 A 
HETATM    6  C   UNK N   1      32.536  15.845   9.057  0.00  0.00     0.063 A 
HETATM    7  C   UNK N   1      33.008  17.006   8.546  0.00  0.00     0.067 A 
HETATM    8  N   UNK N   1      32.062  17.567   7.768  0.00  0.00    -0.339 N 
ATOM      9  HN  UNK N   1      32.114  18.443   7.247  1.00  0.00     0.167 HD
HETATM   10  C   UNK N   1      31.018  16.691   7.840  0.00  0.00     0.124 A 
HETATM   11  N   UNK N   1      31.292  15.636   8.639  0.00  0.00    -0.340 N 
HETATM   12  H   UNK N   1      30.700  14.881   8.860  0.00  0.00     0.167 HD
ENDROOT
BRANCH  10  13
HETATM   13  C   UNK N   1      29.715  16.846   7.117  0.00  0.00     0.102 A 
HETATM   14  C   UNK N   1      29.356  16.000   6.022  0.00  0.00     0.049 A 
HETATM   15  C   UNK N   1      28.112  16.159   5.412  0.00  0.00     0.047 A 
HETATM   16  C   UNK N   1      27.239  17.150   5.842  0.00  0.00     0.093 A 
HETATM   17  N   UNK N   1      27.587  17.964   6.869  0.00  0.00    -0.333 N 
HETATM   18  C   UNK N   1      28.788  17.839   7.519  0.00  0.00     0.261 A 
HETATM   19  H   UNK N   1      26.958  18.665   7.156  0.00  0.00     0.168 HD
HETATM   20  O   UNK N   1      29.039  18.593   8.442  0.00  0.00    -0.267 OA
BRANCH  14  21
HETATM   21  N   UNK N   1      30.201  14.969   5.529  0.00  0.00    -0.383 N 
HETATM   22  H   UNK N   1      30.037  14.041   5.811  0.00  0.00     0.160 HD
BRANCH  21  23
HETATM   23  C   UNK N   1      31.293  15.246   4.625  0.00  0.00     0.176 C 
BRANCH  23  24
HETATM   24  C   UNK N   1      32.600  14.913   5.269  0.00  0.00     0.026 A 
HETATM   25  C   UNK N   1      33.688  15.779   5.117  0.00  0.00     0.027 A 
HETATM   26  C   UNK N   1      34.907  15.465   5.718  0.00  0.00     0.003 A 
HETATM   27  C   UNK N   1      35.030  14.289   6.458  0.00  0.00     0.017 A 
HETATM   28  C   UNK N   1      33.924  13.444   6.585  0.00  0.00     0.088 A 
HETATM   29  N   UNK N   1      32.741  13.769   5.995  0.00  0.00    -0.368 N 
ATOM     30  HN  UNK N   1      31.943  13.142   6.099  1.00  0.00     0.165 HD
ENDBRANCH  23  24
ENDBRANCH  21  23
ENDBRANCH  14  21
ENDBRANCH  10  13
BRANCH   4  31
HETATM   31  N   UNK N   1      35.409  14.555  10.999  0.00  0.00    -0.317 N 
HETATM   32  C   UNK N   1      34.993  13.708  11.956  0.00  0.00     0.115 A 
HETATM   33  C   UNK N   1      36.114  13.098  12.487  0.00  0.00     0.106 A 
HETATM   34  N   UNK N   1      37.207  13.576  11.857  0.00  0.00    -0.360 N 
HETATM   35  C   UNK N   1      36.752  14.464  10.954  0.00  0.00     0.188 A 
ATOM     36  HN  UNK N   1      38.179  13.318  12.030  1.00  0.00     0.166 HD
ENDBRANCH   4  31
TORSDOF 5
ENDMDL
