REMARK  10 active torsions:
REMARK  status: ('A' for Active; 'I' for Inactive)
REMARK    1  A    between atoms: C_3  and  C_2 
REMARK    2  A    between atoms: C_4  and  C_3 
REMARK    3  A    between atoms: C_5  and  C_4 
REMARK    4  A    between atoms: C_6  and  C_5 
REMARK    5  A    between atoms: N_16  and  C_8 
REMARK    6  A    between atoms: C_11  and  O_19 
REMARK    7  A    between atoms: C_12  and  O_20 
REMARK    8  A    between atoms: C_13  and  O_21 
REMARK    9  A    between atoms: C_14  and  O_22 
REMARK   10  A    between atoms: N_16  and  C_15 
ROOT
HETATM    1  C   UNK N   1      -1.849   9.381   0.000  0.00  0.00     0.110 A 
HETATM    2  C   UNK N   1      -3.283   8.769  -0.000  0.00  0.00     0.130 A 
HETATM    3  C   UNK N   1      -4.687   9.282   0.000  0.00  0.00     0.173 A 
HETATM    4  C   UNK N   1      -5.860   8.298  -0.000  0.00  0.00     0.181 A 
HETATM    5  C   UNK N   1      -5.618   6.823   0.000  0.00  0.00     0.198 A 
HETATM    6  C   UNK N   1      -4.235   6.366  -0.000  0.00  0.00     0.254 A 
HETATM    7  C   UNK N   1      -1.874   6.915   0.000  0.00  0.00     0.140 A 
HETATM    8  N   UNK N   1      -3.128   7.372   0.000  0.00  0.00    -0.325 N 
HETATM    9  S   UNK N   1      -0.536   8.126  -0.000  0.00  0.00    -0.092 SA
ENDROOT
BRANCH   7  10
HETATM   10  N   UNK N   1      -1.704   5.716   0.000  0.00  0.00    -0.371 N 
ATOM     11  HN  UNK N   1      -2.511   5.092   0.000  1.00  0.00     0.161 HD
BRANCH  10  12
HETATM   12  C   UNK N   1      -0.500   5.212   0.000  0.00  0.00     0.121 A 
HETATM   13  C   UNK N   1      -0.614   3.795   0.000  0.00  0.00     0.020 A 
HETATM   14  C   UNK N   1       0.704   4.292  -0.000  0.00  0.00     0.002 A 
BRANCH  14  15
HETATM   15  C   UNK N   1       1.608   3.297   0.000  0.00  0.00     0.000 C 
BRANCH  15  16
HETATM   16  C   UNK N   1       2.808   4.109   0.000  0.00  0.00     0.000 C 
BRANCH  16  17
HETATM   17  C   UNK N   1       3.398   2.830   0.000  0.00  0.00    -0.000 C 
BRANCH  17  18
HETATM   18  C   UNK N   1       4.813   2.722  -0.000  0.00  0.00    -0.005 C 
HETATM   19  C   UNK N   1       4.815   1.226  -0.000  0.00  0.00     0.005 C 
ENDBRANCH  17  18
ENDBRANCH  16  17
ENDBRANCH  15  16
ENDBRANCH  14  15
ENDBRANCH  10  12
ENDBRANCH   7  10
BRANCH   6  20
HETATM   20  O   UNK N   1      -3.997   4.985   0.000  0.00  0.00    -0.374 OA
HETATM   21  H   UNK N   1      -4.742   4.364   0.000  0.00  0.00     0.212 HD
ENDBRANCH   6  20
BRANCH   3  22
HETATM   22  O   UNK N   1      -4.915  10.651  -0.000  0.00  0.00    -0.391 OA
HETATM   23  H   UNK N   1      -4.166  11.267  -0.000  0.00  0.00     0.210 HD
ENDBRANCH   3  22
BRANCH   5  24
HETATM   24  O   UNK N   1      -6.629   5.862  -0.000  0.00  0.00    -0.389 OA
HETATM   25  H   UNK N   1      -7.560   6.137  -0.000  0.00  0.00     0.210 HD
ENDBRANCH   5  24
BRANCH   4  26
HETATM   26  O   UNK N   1      -7.163   8.762   0.000  0.00  0.00    -0.390 OA
HETATM   27  H   UNK N   1      -7.338   9.716   0.000  0.00  0.00     0.210 HD
ENDBRANCH   4  26
TORSDOF 10
