REMARK  1 active torsions:
REMARK  status: ('A' for Active; 'I' for Inactive)
REMARK    1  A    between atoms: C_3  and  C_6 
ROOT
HETATM    1  O   UNK N   1      28.933 -18.999   0.000  0.00  0.00    -0.309 OA
HETATM    2  O   UNK N   1      28.970 -22.972   0.000  0.00  0.00    -0.287 OA
HETATM    3  C   UNK N   1      27.775 -19.660   0.000  0.00  0.00     0.090 A 
HETATM    4  C   UNK N   1      30.108 -19.620  -0.000  0.00  0.00     0.090 A 
HETATM    5  C   UNK N   1      28.971 -21.754   0.000  0.00  0.00     0.187 A 
HETATM    6  C   UNK N   1      30.170 -21.031  -0.000  0.00  0.00     0.048 A 
HETATM    7  C   UNK N   1      27.765 -21.063   0.000  0.00  0.00     0.093 A 
HETATM    8  C   UNK N   1      31.287 -18.871  -0.000  0.00  0.00     0.038 A 
HETATM    9  C   UNK N   1      31.416 -21.672  -0.000  0.00  0.00     0.018 A 
HETATM   10  C   UNK N   1      32.527 -19.517  -0.000  0.00  0.00     0.003 A 
HETATM   11  C   UNK N   1      32.591 -20.914  -0.000  0.00  0.00     0.001 A 
ENDROOT
BRANCH   3  12
HETATM   12  C   UNK N   1      26.511 -18.907   0.000  0.00  0.00    -0.002 A 
HETATM   13  C   UNK N   1      25.278 -19.576   0.000  0.00  0.00     0.014 A 
HETATM   14  C   UNK N   1      24.084 -18.852   0.000  0.00  0.00     0.001 A 
HETATM   15  C   UNK N   1      24.116 -17.455  -0.000  0.00  0.00     0.000 A 
HETATM   16  C   UNK N   1      25.341 -16.782  -0.000  0.00  0.00     0.001 A 
HETATM   17  C   UNK N   1      26.535 -17.506   0.000  0.00  0.00     0.014 A 
ENDBRANCH   3  12
TORSDOF 1
