MODEL 1
REMARK VINA RESULT:      -5.6      0.000      0.000
REMARK  5 active torsions:
REMARK  status: ('A' for Active; 'I' for Inactive)
REMARK    1  A    between atoms: C_8  and  C_6 
REMARK    2  A    between atoms: C_9  and  C_7 
REMARK    3  A    between atoms: C_11  and  C_9 
REMARK    4  A    between atoms: O_15  and  C_10 
REMARK    5  A    between atoms: O_13  and  C_11 
ROOT
HETATM    1  C   UNK N   1      29.516  18.496   9.151  0.00  0.00     0.001 A 
HETATM    2  C   UNK N   1      28.616  18.780   8.132  0.00  0.00     0.003 A 
HETATM    3  C   UNK N   1      30.546  17.584   8.932  0.00  0.00     0.014 A 
HETATM    4  C   UNK N   1      28.751  18.152   6.897  0.00  0.00     0.037 A 
HETATM    5  C   UNK N   1      30.710  16.932   7.707  0.00  0.00    -0.003 A 
HETATM    6  C   UNK N   1      29.790  17.228   6.665  0.00  0.00     0.078 A 
ENDROOT
BRANCH   5   7
HETATM    7  C   UNK N   1      31.825  15.949   7.468  0.00  0.00     0.018 C 
HETATM    8  C   UNK N   1      33.155  16.158   7.244  0.00  0.00     0.063 C 
BRANCH   8   9
HETATM    9  C   UNK N   1      33.942  17.439   7.172  0.00  0.00     0.244 C 
HETATM   10  O   UNK N   1      34.178  17.990   6.118  0.00  0.00    -0.281 OA
BRANCH   9  11
HETATM   11  C   UNK N   1      34.451  18.074   8.407  0.00  0.00     0.218 C 
HETATM   12  O   UNK N   1      35.069  19.123   8.364  0.00  0.00    -0.644 OA
BRANCH  11  13
HETATM   13  O   UNK N   1      34.224  17.485   9.599  0.00  0.00    -0.770 OA
HETATM   14  H   UNK N   1      33.792  16.654   9.637  0.00  0.00     0.168 HD
ENDBRANCH  11  13
ENDBRANCH   9  11
ENDBRANCH   8   9
ENDBRANCH   5   7
BRANCH   6  15
HETATM   15  O   UNK N   1      29.912  16.624   5.456  0.00  0.00    -0.355 OA
HETATM   16  C   UNK N   1      28.835  16.148   4.740  0.00  0.00     0.210 C 
ENDBRANCH   6  15
TORSDOF 5
ENDMDL
MODEL 2
REMARK VINA RESULT:      -5.3     15.113     17.081
REMARK  5 active torsions:
REMARK  status: ('A' for Active; 'I' for Inactive)
REMARK    1  A    between atoms: C_8  and  C_6 
REMARK    2  A    between atoms: C_9  and  C_7 
REMARK    3  A    between atoms: C_11  and  C_9 
REMARK    4  A    between atoms: O_15  and  C_10 
REMARK    5  A    between atoms: O_13  and  C_11 
ROOT
HETATM    1  C   UNK N   1      28.358  28.085  -7.886  0.00  0.00     0.001 A 
HETATM    2  C   UNK N   1      28.661  29.109  -6.998  0.00  0.00     0.003 A 
HETATM    3  C   UNK N   1      27.278  27.243  -7.630  0.00  0.00     0.014 A 
HETATM    4  C   UNK N   1      27.881  29.288  -5.858  0.00  0.00     0.037 A 
HETATM    5  C   UNK N   1      26.476  27.390  -6.496  0.00  0.00    -0.003 A 
HETATM    6  C   UNK N   1      26.786  28.440  -5.591  0.00  0.00     0.078 A 
ENDROOT
BRANCH   5   7
HETATM    7  C   UNK N   1      25.307  26.482  -6.220  0.00  0.00     0.018 C 
HETATM    8  C   UNK N   1      25.245  25.307  -5.528  0.00  0.00     0.063 C 
BRANCH   8   9
HETATM    9  C   UNK N   1      26.321  24.543  -4.806  0.00  0.00     0.244 C 
HETATM   10  O   UNK N   1      26.978  23.683  -5.356  0.00  0.00    -0.281 OA
BRANCH   9  11
HETATM   11  C   UNK N   1      26.618  24.829  -3.386  0.00  0.00     0.218 C 
HETATM   12  O   UNK N   1      27.057  23.963  -2.650  0.00  0.00    -0.644 OA
BRANCH  11  13
HETATM   13  O   UNK N   1      26.404  26.069  -2.900  0.00  0.00    -0.770 OA
HETATM   14  H   UNK N   1      25.802  26.644  -3.330  0.00  0.00     0.168 HD
ENDBRANCH  11  13
ENDBRANCH   9  11
ENDBRANCH   8   9
ENDBRANCH   5   7
BRANCH   6  15
HETATM   15  O   UNK N   1      26.033  28.626  -4.478  0.00  0.00    -0.355 OA
HETATM   16  C   UNK N   1      26.309  29.592  -3.533  0.00  0.00     0.210 C 
ENDBRANCH   6  15
TORSDOF 5
ENDMDL
MODEL 3
REMARK VINA RESULT:      -5.2      2.338      3.807
REMARK  5 active torsions:
REMARK  status: ('A' for Active; 'I' for Inactive)
REMARK    1  A    between atoms: C_8  and  C_6 
REMARK    2  A    between atoms: C_9  and  C_7 
REMARK    3  A    between atoms: C_11  and  C_9 
REMARK    4  A    between atoms: O_15  and  C_10 
REMARK    5  A    between atoms: O_13  and  C_11 
ROOT
HETATM    1  C   UNK N   1      32.781  17.213   4.745  0.00  0.00     0.001 A 
HETATM    2  C   UNK N   1      31.426  17.042   4.995  0.00  0.00     0.003 A 
HETATM    3  C   UNK N   1      33.646  17.525   5.791  0.00  0.00     0.014 A 
HETATM    4  C   UNK N   1      30.940  17.183   6.293  0.00  0.00     0.037 A 
HETATM    5  C   UNK N   1      33.194  17.677   7.105  0.00  0.00    -0.003 A 
HETATM    6  C   UNK N   1      31.808  17.499   7.359  0.00  0.00     0.078 A 
ENDROOT
BRANCH   5   7
HETATM    7  C   UNK N   1      34.128  18.012   8.237  0.00  0.00     0.018 C 
HETATM    8  C   UNK N   1      34.743  17.198   9.145  0.00  0.00     0.063 C 
BRANCH   8   9
HETATM    9  C   UNK N   1      34.696  15.703   9.303  0.00  0.00     0.244 C 
HETATM   10  O   UNK N   1      35.636  14.995   9.008  0.00  0.00    -0.281 OA
BRANCH   9  11
HETATM   11  C   UNK N   1      33.485  15.046   9.840  0.00  0.00     0.218 C 
HETATM   12  O   UNK N   1      32.649  14.566   9.094  0.00  0.00    -0.644 OA
BRANCH  11  13
HETATM   13  O   UNK N   1      33.304  14.973  11.175  0.00  0.00    -0.770 OA
HETATM   14  H   UNK N   1      33.839  14.402  11.690  0.00  0.00     0.168 HD
ENDBRANCH  11  13
ENDBRANCH   9  11
ENDBRANCH   8   9
ENDBRANCH   5   7
BRANCH   6  15
HETATM   15  O   UNK N   1      31.323  17.632   8.619  0.00  0.00    -0.355 OA
HETATM   16  C   UNK N   1      30.048  17.251   8.980  0.00  0.00     0.210 C 
ENDBRANCH   6  15
TORSDOF 5
ENDMDL
MODEL 4
REMARK VINA RESULT:      -5.2      8.723     11.023
REMARK  5 active torsions:
REMARK  status: ('A' for Active; 'I' for Inactive)
REMARK    1  A    between atoms: C_8  and  C_6 
REMARK    2  A    between atoms: C_9  and  C_7 
REMARK    3  A    between atoms: C_11  and  C_9 
REMARK    4  A    between atoms: O_15  and  C_10 
REMARK    5  A    between atoms: O_13  and  C_11 
ROOT
HETATM    1  C   UNK N   1      22.386  12.069  11.747  0.00  0.00     0.001 A 
HETATM    2  C   UNK N   1      23.774  12.068  11.731  0.00  0.00     0.003 A 
HETATM    3  C   UNK N   1      21.679  12.195  10.553  0.00  0.00     0.014 A 
HETATM    4  C   UNK N   1      24.451  12.193  10.520  0.00  0.00     0.037 A 
HETATM    5  C   UNK N   1      22.323  12.325   9.320  0.00  0.00    -0.003 A 
HETATM    6  C   UNK N   1      23.744  12.321   9.307  0.00  0.00     0.078 A 
ENDROOT
BRANCH   5   7
HETATM    7  C   UNK N   1      21.560  12.459   8.030  0.00  0.00     0.018 C 
HETATM    8  C   UNK N   1      21.164  13.574   7.349  0.00  0.00     0.063 C 
BRANCH   8   9
HETATM    9  C   UNK N   1      21.372  15.031   7.660  0.00  0.00     0.244 C 
HETATM   10  O   UNK N   1      22.259  15.679   7.144  0.00  0.00    -0.281 OA
BRANCH   9  11
HETATM   11  C   UNK N   1      20.480  15.727   8.613  0.00  0.00     0.218 C 
HETATM   12  O   UNK N   1      20.618  16.914   8.849  0.00  0.00    -0.644 OA
BRANCH  11  13
HETATM   13  O   UNK N   1      19.497  15.037   9.227  0.00  0.00    -0.770 OA
HETATM   14  H   UNK N   1      19.541  14.103   9.278  0.00  0.00     0.168 HD
ENDBRANCH  11  13
ENDBRANCH   9  11
ENDBRANCH   8   9
ENDBRANCH   5   7
BRANCH   6  15
HETATM   15  O   UNK N   1      24.415  12.440   8.133  0.00  0.00    -0.355 OA
HETATM   16  C   UNK N   1      25.094  13.582   7.765  0.00  0.00     0.210 C 
ENDBRANCH   6  15
TORSDOF 5
ENDMDL
MODEL 5
REMARK VINA RESULT:      -5.1     10.575     12.587
REMARK  5 active torsions:
REMARK  status: ('A' for Active; 'I' for Inactive)
REMARK    1  A    between atoms: C_8  and  C_6 
REMARK    2  A    between atoms: C_9  and  C_7 
REMARK    3  A    between atoms: C_11  and  C_9 
REMARK    4  A    between atoms: O_15  and  C_10 
REMARK    5  A    between atoms: O_13  and  C_11 
ROOT
HETATM    1  C   UNK N   1      22.817  15.730   3.168  0.00  0.00     0.001 A 
HETATM    2  C   UNK N   1      22.450  15.066   2.004  0.00  0.00     0.003 A 
HETATM    3  C   UNK N   1      22.054  16.803   3.623  0.00  0.00     0.014 A 
HETATM    4  C   UNK N   1      21.320  15.477   1.301  0.00  0.00     0.037 A 
HETATM    5  C   UNK N   1      20.917  17.245   2.942  0.00  0.00    -0.003 A 
HETATM    6  C   UNK N   1      20.542  16.562   1.755  0.00  0.00     0.078 A 
ENDROOT
BRANCH   5   7
HETATM    7  C   UNK N   1      20.091  18.403   3.435  0.00  0.00     0.018 C 
HETATM    8  C   UNK N   1      20.197  19.739   3.175  0.00  0.00     0.063 C 
BRANCH   8   9
HETATM    9  C   UNK N   1      21.168  20.488   2.302  0.00  0.00     0.244 C 
HETATM   10  O   UNK N   1      22.233  20.888   2.721  0.00  0.00    -0.281 OA
BRANCH   9  11
HETATM   11  C   UNK N   1      20.846  20.754   0.883  0.00  0.00     0.218 C 
HETATM   12  O   UNK N   1      20.741  19.841   0.082  0.00  0.00    -0.644 OA
BRANCH  11  13
HETATM   13  O   UNK N   1      20.663  22.025   0.470  0.00  0.00    -0.770 OA
HETATM   14  H   UNK N   1      19.835  22.290   0.120  0.00  0.00     0.168 HD
ENDBRANCH  11  13
ENDBRANCH   9  11
ENDBRANCH   8   9
ENDBRANCH   5   7
BRANCH   6  15
HETATM   15  O   UNK N   1      19.442  16.952   1.062  0.00  0.00    -0.355 OA
HETATM   16  C   UNK N   1      19.073  16.391  -0.142  0.00  0.00     0.210 C 
ENDBRANCH   6  15
TORSDOF 5
ENDMDL
MODEL 6
REMARK VINA RESULT:      -5.0      2.505      3.992
REMARK  5 active torsions:
REMARK  status: ('A' for Active; 'I' for Inactive)
REMARK    1  A    between atoms: C_8  and  C_6 
REMARK    2  A    between atoms: C_9  and  C_7 
REMARK    3  A    between atoms: C_11  and  C_9 
REMARK    4  A    between atoms: O_15  and  C_10 
REMARK    5  A    between atoms: O_13  and  C_11 
ROOT
HETATM    1  C   UNK N   1      32.625  17.171   3.310  0.00  0.00     0.001 A 
HETATM    2  C   UNK N   1      32.906  15.822   3.134  0.00  0.00     0.003 A 
HETATM    3  C   UNK N   1      32.261  17.644   4.569  0.00  0.00     0.014 A 
HETATM    4  C   UNK N   1      32.822  14.952   4.218  0.00  0.00     0.037 A 
HETATM    5  C   UNK N   1      32.164  16.801   5.678  0.00  0.00    -0.003 A 
HETATM    6  C   UNK N   1      32.454  15.422   5.496  0.00  0.00     0.078 A 
ENDROOT
BRANCH   5   7
HETATM    7  C   UNK N   1      31.773  17.313   7.039  0.00  0.00     0.018 C 
HETATM    8  C   UNK N   1      32.549  17.685   8.100  0.00  0.00     0.063 C 
BRANCH   8   9
HETATM    9  C   UNK N   1      34.046  17.714   8.250  0.00  0.00     0.244 C 
HETATM   10  O   UNK N   1      34.743  18.461   7.596  0.00  0.00    -0.281 OA
BRANCH   9  11
HETATM   11  C   UNK N   1      34.717  16.824   9.221  0.00  0.00     0.218 C 
HETATM   12  O   UNK N   1      35.185  15.754   8.872  0.00  0.00    -0.644 OA
BRANCH  11  13
HETATM   13  O   UNK N   1      34.816  17.203  10.512  0.00  0.00    -0.770 OA
HETATM   14  H   UNK N   1      35.208  16.628  11.140  0.00  0.00     0.168 HD
ENDBRANCH  11  13
ENDBRANCH   9  11
ENDBRANCH   8   9
ENDBRANCH   5   7
BRANCH   6  15
HETATM   15  O   UNK N   1      32.379  14.565   6.545  0.00  0.00    -0.355 OA
HETATM   16  C   UNK N   1      33.370  13.656   6.849  0.00  0.00     0.210 C 
ENDBRANCH   6  15
TORSDOF 5
ENDMDL
MODEL 7
REMARK VINA RESULT:      -5.0      8.323     10.354
REMARK  5 active torsions:
REMARK  status: ('A' for Active; 'I' for Inactive)
REMARK    1  A    between atoms: C_8  and  C_6 
REMARK    2  A    between atoms: C_9  and  C_7 
REMARK    3  A    between atoms: C_11  and  C_9 
REMARK    4  A    between atoms: O_15  and  C_10 
REMARK    5  A    between atoms: O_13  and  C_11 
ROOT
HETATM    1  C   UNK N   1      35.188  11.822  17.855  0.00  0.00     0.001 A 
HETATM    2  C   UNK N   1      35.122  13.157  18.232  0.00  0.00     0.003 A 
HETATM    3  C   UNK N   1      35.838  11.465  16.676  0.00  0.00     0.014 A 
HETATM    4  C   UNK N   1      35.708  14.131  17.427  0.00  0.00     0.037 A 
HETATM    5  C   UNK N   1      36.434  12.414  15.843  0.00  0.00    -0.003 A 
HETATM    6  C   UNK N   1      36.368  13.779  16.231  0.00  0.00     0.078 A 
ENDROOT
BRANCH   5   7
HETATM    7  C   UNK N   1      37.139  12.029  14.569  0.00  0.00     0.018 C 
HETATM    8  C   UNK N   1      36.825  12.299  13.269  0.00  0.00     0.063 C 
BRANCH   8   9
HETATM    9  C   UNK N   1      35.679  13.079  12.685  0.00  0.00     0.244 C 
HETATM   10  O   UNK N   1      34.525  12.735  12.833  0.00  0.00    -0.281 OA
BRANCH   9  11
HETATM   11  C   UNK N   1      35.931  14.313  11.908  0.00  0.00     0.218 C 
HETATM   12  O   UNK N   1      35.705  14.358  10.711  0.00  0.00    -0.644 OA
BRANCH  11  13
HETATM   13  O   UNK N   1      36.417  15.404  12.534  0.00  0.00    -0.770 OA
HETATM   14  H   UNK N   1      37.038  15.956  12.100  0.00  0.00     0.168 HD
ENDBRANCH  11  13
ENDBRANCH   9  11
ENDBRANCH   8   9
ENDBRANCH   5   7
BRANCH   6  15
HETATM   15  O   UNK N   1      36.937  14.737  15.457  0.00  0.00    -0.355 OA
HETATM   16  C   UNK N   1      37.479  15.897  15.968  0.00  0.00     0.210 C 
ENDBRANCH   6  15
TORSDOF 5
ENDMDL
MODEL 8
REMARK VINA RESULT:      -5.0     11.933     13.787
REMARK  5 active torsions:
REMARK  status: ('A' for Active; 'I' for Inactive)
REMARK    1  A    between atoms: C_8  and  C_6 
REMARK    2  A    between atoms: C_9  and  C_7 
REMARK    3  A    between atoms: C_11  and  C_9 
REMARK    4  A    between atoms: O_15  and  C_10 
REMARK    5  A    between atoms: O_13  and  C_11 
ROOT
HETATM    1  C   UNK N   1      27.207  22.909  -6.618  0.00  0.00     0.001 A 
HETATM    2  C   UNK N   1      25.967  23.226  -6.080  0.00  0.00     0.003 A 
HETATM    3  C   UNK N   1      28.364  23.441  -6.054  0.00  0.00     0.014 A 
HETATM    4  C   UNK N   1      25.889  24.073  -4.977  0.00  0.00     0.037 A 
HETATM    5  C   UNK N   1      28.325  24.297  -4.951  0.00  0.00    -0.003 A 
HETATM    6  C   UNK N   1      27.055  24.617  -4.399  0.00  0.00     0.078 A 
ENDROOT
BRANCH   5   7
HETATM    7  C   UNK N   1      29.576  24.870  -4.339  0.00  0.00     0.018 C 
HETATM    8  C   UNK N   1      30.366  24.393  -3.333  0.00  0.00     0.063 C 
BRANCH   8   9
HETATM    9  C   UNK N   1      30.251  23.135  -2.516  0.00  0.00     0.244 C 
HETATM   10  O   UNK N   1      29.596  23.088  -1.496  0.00  0.00    -0.281 OA
BRANCH   9  11
HETATM   11  C   UNK N   1      30.939  21.898  -2.947  0.00  0.00     0.218 C 
HETATM   12  O   UNK N   1      30.541  21.261  -3.907  0.00  0.00    -0.644 OA
BRANCH  11  13
HETATM   13  O   UNK N   1      32.023  21.470  -2.269  0.00  0.00    -0.770 OA
HETATM   14  H   UNK N   1      32.652  20.918  -2.690  0.00  0.00     0.168 HD
ENDBRANCH  11  13
ENDBRANCH   9  11
ENDBRANCH   8   9
ENDBRANCH   5   7
BRANCH   6  15
HETATM   15  O   UNK N   1      26.966  25.440  -3.324  0.00  0.00    -0.355 OA
HETATM   16  C   UNK N   1      26.435  26.710  -3.389  0.00  0.00     0.210 C 
ENDBRANCH   6  15
TORSDOF 5
ENDMDL
MODEL 9
REMARK VINA RESULT:      -5.0      1.940      3.235
REMARK  5 active torsions:
REMARK  status: ('A' for Active; 'I' for Inactive)
REMARK    1  A    between atoms: C_8  and  C_6 
REMARK    2  A    between atoms: C_9  and  C_7 
REMARK    3  A    between atoms: C_11  and  C_9 
REMARK    4  A    between atoms: O_15  and  C_10 
REMARK    5  A    between atoms: O_13  and  C_11 
ROOT
HETATM    1  C   UNK N   1      28.059  19.730   4.674  0.00  0.00     0.001 A 
HETATM    2  C   UNK N   1      27.548  20.424   5.763  0.00  0.00     0.003 A 
HETATM    3  C   UNK N   1      28.721  18.521   4.871  0.00  0.00     0.014 A 
HETATM    4  C   UNK N   1      27.700  19.904   7.046  0.00  0.00     0.037 A 
HETATM    5  C   UNK N   1      28.895  17.970   6.143  0.00  0.00    -0.003 A 
HETATM    6  C   UNK N   1      28.368  18.680   7.255  0.00  0.00     0.078 A 
ENDROOT
BRANCH   5   7
HETATM    7  C   UNK N   1      29.607  16.661   6.357  0.00  0.00     0.018 C 
HETATM    8  C   UNK N   1      30.929  16.343   6.227  0.00  0.00     0.063 C 
BRANCH   8   9
HETATM    9  C   UNK N   1      32.104  17.199   5.840  0.00  0.00     0.244 C 
HETATM   10  O   UNK N   1      32.256  17.608   4.708  0.00  0.00    -0.281 OA
BRANCH   9  11
HETATM   11  C   UNK N   1      33.119  17.577   6.847  0.00  0.00     0.218 C 
HETATM   12  O   UNK N   1      32.832  17.651   8.029  0.00  0.00    -0.644 OA
BRANCH  11  13
HETATM   13  O   UNK N   1      34.381  17.839   6.453  0.00  0.00    -0.770 OA
HETATM   14  H   UNK N   1      34.982  17.136   6.304  0.00  0.00     0.168 HD
ENDBRANCH  11  13
ENDBRANCH   9  11
ENDBRANCH   8   9
ENDBRANCH   5   7
BRANCH   6  15
HETATM   15  O   UNK N   1      28.508  18.183   8.510  0.00  0.00    -0.355 OA
HETATM   16  C   UNK N   1      29.443  18.652   9.407  0.00  0.00     0.210 C 
ENDBRANCH   6  15
TORSDOF 5
ENDMDL
