MODEL 1
REMARK VINA RESULT:      -7.4      0.000      0.000
REMARK  8 active torsions:
REMARK  status: ('A' for Active; 'I' for Inactive)
REMARK    1  A    between atoms: C_15  and  C_12 
REMARK    2  A    between atoms: P_25  and  C_12 
REMARK    3  A    between atoms: C_16  and  C_13 
REMARK    4  A    between atoms: O_24  and  C_13 
REMARK    5  A    between atoms: O_20  and  C_14 
REMARK    6  A    between atoms: N_18  and  C_17 
REMARK    7  A    between atoms: P_25  and  O_22 
REMARK    8  A    between atoms: P_25  and  O_24 
ROOT
HETATM    1  C   UNK N   1      36.474  14.481  11.696  0.00  0.00     0.163 C 
ENDROOT
BRANCH   1   2
HETATM    2  C   UNK N   1      35.691  14.941  10.485  0.00  0.00    -0.047 A 
HETATM    3  C   UNK N   1      35.617  14.117   9.357  0.00  0.00     0.010 A 
HETATM    4  C   UNK N   1      34.873  14.518   8.241  0.00  0.00     0.030 A 
HETATM    5  C   UNK N   1      34.186  15.737   8.247  0.00  0.00     0.033 A 
HETATM    6  C   UNK N   1      34.279  16.568   9.375  0.00  0.00     0.030 A 
HETATM    7  C   UNK N   1      35.031  16.176  10.482  0.00  0.00     0.010 A 
BRANCH   5   8
HETATM    8  N   UNK N   1      33.417  16.099   7.099  0.00  0.00    -0.341 N 
HETATM    9  C   UNK N   1      33.601  17.142   6.359  0.00  0.00     0.111 C 
HETATM   10  C   UNK N   1      32.720  17.363   5.180  0.00  0.00     0.097 C 
ATOM     11  HN  UNK N   1      32.653  15.475   6.839  1.00  0.00     0.167 HD
BRANCH   9  12
HETATM   12  O   UNK N   1      34.553  18.056   6.642  0.00  0.00    -0.350 OA
ATOM     13  HO  UNK N   1      34.477  18.928   6.272  1.00  0.00     0.219 HD
ENDBRANCH   9  12
ENDBRANCH   5   8
ENDBRANCH   1   2
BRANCH   1  14
HETATM   14  P   UNK N   1      35.717  13.175  12.869  0.00  0.00     0.243 P 
HETATM   15  O   UNK N   1      36.268  14.324  13.754  0.00  0.00    -0.653 OA
BRANCH  14  16
HETATM   16  O   UNK N   1      34.217  13.807  12.257  0.00  0.00    -0.329 OA
HETATM   17  H   UNK N   1      33.957  14.336  11.486  0.00  0.00     0.220 HD
ENDBRANCH  14  16
BRANCH  14  18
HETATM   18  O   UNK N   1      34.718  13.077  14.305  0.00  0.00    -0.309 OA
BRANCH  18  19
HETATM   19  C   UNK N   1      34.913  11.838  14.955  0.00  0.00     0.160 C 
HETATM   20  C   UNK N   1      33.709  10.920  14.743  0.00  0.00     0.045 C 
BRANCH  19  21
HETATM   21  C   UNK N   1      35.069  12.075  16.439  0.00  0.00    -0.029 A 
HETATM   22  C   UNK N   1      35.242  10.987  17.311  0.00  0.00     0.010 A 
HETATM   23  C   UNK N   1      35.365  11.199  18.688  0.00  0.00     0.001 A 
HETATM   24  C   UNK N   1      35.319  12.496  19.205  0.00  0.00     0.000 A 
HETATM   25  C   UNK N   1      35.154  13.585  18.346  0.00  0.00     0.001 A 
HETATM   26  C   UNK N   1      35.029  13.375  16.970  0.00  0.00     0.010 A 
ENDBRANCH  19  21
ENDBRANCH  18  19
ENDBRANCH  14  18
ENDBRANCH   1  14
TORSDOF 8
ENDMDL
MODEL 2
REMARK VINA RESULT:      -7.4      0.196      1.439
REMARK  8 active torsions:
REMARK  status: ('A' for Active; 'I' for Inactive)
REMARK    1  A    between atoms: C_15  and  C_12 
REMARK    2  A    between atoms: P_25  and  C_12 
REMARK    3  A    between atoms: C_16  and  C_13 
REMARK    4  A    between atoms: O_24  and  C_13 
REMARK    5  A    between atoms: O_20  and  C_14 
REMARK    6  A    between atoms: N_18  and  C_17 
REMARK    7  A    between atoms: P_25  and  O_22 
REMARK    8  A    between atoms: P_25  and  O_24 
ROOT
HETATM    1  C   UNK N   1      36.444  14.571  11.729  0.00  0.00     0.163 C 
ENDROOT
BRANCH   1   2
HETATM    2  C   UNK N   1      35.722  14.916  10.444  0.00  0.00    -0.047 A 
HETATM    3  C   UNK N   1      35.033  16.130  10.344  0.00  0.00     0.010 A 
HETATM    4  C   UNK N   1      34.385  16.474   9.153  0.00  0.00     0.030 A 
HETATM    5  C   UNK N   1      34.431  15.618   8.046  0.00  0.00     0.033 A 
HETATM    6  C   UNK N   1      35.109  14.393   8.159  0.00  0.00     0.030 A 
HETATM    7  C   UNK N   1      35.744  14.043   9.350  0.00  0.00     0.010 A 
BRANCH   5   8
HETATM    8  N   UNK N   1      33.778  16.017   6.841  0.00  0.00    -0.341 N 
HETATM    9  C   UNK N   1      33.830  17.190   6.301  0.00  0.00     0.111 C 
HETATM   10  C   UNK N   1      33.106  17.437   5.025  0.00  0.00     0.097 C 
ATOM     11  HN  UNK N   1      33.221  15.310   6.360  1.00  0.00     0.167 HD
BRANCH   9  12
HETATM   12  O   UNK N   1      34.498  18.209   6.879  0.00  0.00    -0.350 OA
ATOM     13  HO  UNK N   1      35.434  18.290   6.729  1.00  0.00     0.219 HD
ENDBRANCH   9  12
ENDBRANCH   5   8
ENDBRANCH   1   2
BRANCH   1  14
HETATM   14  P   UNK N   1      35.712  13.244  12.896  0.00  0.00     0.243 P 
HETATM   15  O   UNK N   1      36.212  14.414  13.784  0.00  0.00    -0.653 OA
BRANCH  14  16
HETATM   16  O   UNK N   1      34.202  13.824  12.258  0.00  0.00    -0.329 OA
HETATM   17  H   UNK N   1      33.362  14.123  12.641  0.00  0.00     0.220 HD
ENDBRANCH  14  16
BRANCH  14  18
HETATM   18  O   UNK N   1      34.696  13.118  14.316  0.00  0.00    -0.309 OA
BRANCH  18  19
HETATM   19  C   UNK N   1      34.904  11.877  14.960  0.00  0.00     0.160 C 
HETATM   20  C   UNK N   1      33.720  10.939  14.725  0.00  0.00     0.045 C 
BRANCH  19  21
HETATM   21  C   UNK N   1      35.036  12.106  16.448  0.00  0.00    -0.029 A 
HETATM   22  C   UNK N   1      34.987  13.410  16.968  0.00  0.00     0.010 A 
HETATM   23  C   UNK N   1      35.131  13.629  18.341  0.00  0.00     0.001 A 
HETATM   24  C   UNK N   1      35.323  12.550  19.207  0.00  0.00     0.000 A 
HETATM   25  C   UNK N   1      35.367  11.248  18.701  0.00  0.00     0.001 A 
HETATM   26  C   UNK N   1      35.225  11.027  17.329  0.00  0.00     0.010 A 
ENDBRANCH  19  21
ENDBRANCH  18  19
ENDBRANCH  14  18
ENDBRANCH   1  14
TORSDOF 8
ENDMDL
MODEL 3
REMARK VINA RESULT:      -7.2     17.437     20.517
REMARK  8 active torsions:
REMARK  status: ('A' for Active; 'I' for Inactive)
REMARK    1  A    between atoms: C_15  and  C_12 
REMARK    2  A    between atoms: P_25  and  C_12 
REMARK    3  A    between atoms: C_16  and  C_13 
REMARK    4  A    between atoms: O_24  and  C_13 
REMARK    5  A    between atoms: O_20  and  C_14 
REMARK    6  A    between atoms: N_18  and  C_17 
REMARK    7  A    between atoms: P_25  and  O_22 
REMARK    8  A    between atoms: P_25  and  O_24 
ROOT
HETATM    1  C   UNK N   1      30.862  22.639  -2.439  0.00  0.00     0.163 C 
ENDROOT
BRANCH   1   2
HETATM    2  C   UNK N   1      31.748  21.612  -3.112  0.00  0.00    -0.047 A 
HETATM    3  C   UNK N   1      33.083  21.484  -2.712  0.00  0.00     0.010 A 
HETATM    4  C   UNK N   1      33.905  20.520  -3.306  0.00  0.00     0.030 A 
HETATM    5  C   UNK N   1      33.399  19.666  -4.294  0.00  0.00     0.033 A 
HETATM    6  C   UNK N   1      32.063  19.812  -4.703  0.00  0.00     0.030 A 
HETATM    7  C   UNK N   1      31.247  20.781  -4.121  0.00  0.00     0.010 A 
BRANCH   5   8
HETATM    8  N   UNK N   1      34.263  18.679  -4.857  0.00  0.00    -0.341 N 
HETATM    9  C   UNK N   1      34.492  17.504  -4.371  0.00  0.00     0.111 C 
HETATM   10  C   UNK N   1      35.408  16.582  -5.097  0.00  0.00     0.097 C 
ATOM     11  HN  UNK N   1      34.742  18.924  -5.724  1.00  0.00     0.167 HD
BRANCH   9  12
HETATM   12  O   UNK N   1      33.947  17.097  -3.206  0.00  0.00    -0.350 OA
ATOM     13  HO  UNK N   1      33.810  16.168  -3.061  1.00  0.00     0.219 HD
ENDBRANCH   9  12
ENDBRANCH   5   8
ENDBRANCH   1   2
BRANCH   1  14
HETATM   14  P   UNK N   1      29.321  23.302  -3.357  0.00  0.00     0.243 P 
HETATM   15  O   UNK N   1      28.857  22.844  -1.949  0.00  0.00    -0.653 OA
BRANCH  14  16
HETATM   16  O   UNK N   1      30.074  24.842  -3.064  0.00  0.00    -0.329 OA
HETATM   17  H   UNK N   1      29.878  25.608  -2.501  0.00  0.00     0.220 HD
ENDBRANCH  14  16
BRANCH  14  18
HETATM   18  O   UNK N   1      27.910  24.298  -3.067  0.00  0.00    -0.309 OA
BRANCH  18  19
HETATM   19  C   UNK N   1      26.983  24.155  -4.123  0.00  0.00     0.160 C 
HETATM   20  C   UNK N   1      27.691  23.748  -5.415  0.00  0.00     0.045 C 
BRANCH  19  21
HETATM   21  C   UNK N   1      26.292  25.477  -4.361  0.00  0.00    -0.029 A 
HETATM   22  C   UNK N   1      25.506  25.665  -5.510  0.00  0.00     0.010 A 
HETATM   23  C   UNK N   1      24.883  26.894  -5.746  0.00  0.00     0.001 A 
HETATM   24  C   UNK N   1      25.036  27.944  -4.838  0.00  0.00     0.000 A 
HETATM   25  C   UNK N   1      25.810  27.766  -3.689  0.00  0.00     0.001 A 
HETATM   26  C   UNK N   1      26.435  26.539  -3.452  0.00  0.00     0.010 A 
ENDBRANCH  19  21
ENDBRANCH  18  19
ENDBRANCH  14  18
ENDBRANCH   1  14
TORSDOF 8
ENDMDL
MODEL 4
REMARK VINA RESULT:      -7.0      1.860      1.993
REMARK  8 active torsions:
REMARK  status: ('A' for Active; 'I' for Inactive)
REMARK    1  A    between atoms: C_15  and  C_12 
REMARK    2  A    between atoms: P_25  and  C_12 
REMARK    3  A    between atoms: C_16  and  C_13 
REMARK    4  A    between atoms: O_24  and  C_13 
REMARK    5  A    between atoms: O_20  and  C_14 
REMARK    6  A    between atoms: N_18  and  C_17 
REMARK    7  A    between atoms: P_25  and  O_22 
REMARK    8  A    between atoms: P_25  and  O_24 
ROOT
HETATM    1  C   UNK N   1      36.228  14.757  11.104  0.00  0.00     0.163 C 
ENDROOT
BRANCH   1   2
HETATM    2  C   UNK N   1      35.086  15.254  10.243  0.00  0.00    -0.047 A 
HETATM    3  C   UNK N   1      34.046  14.382   9.905  0.00  0.00     0.010 A 
HETATM    4  C   UNK N   1      32.970  14.836   9.134  0.00  0.00     0.030 A 
HETATM    5  C   UNK N   1      32.916  16.167   8.706  0.00  0.00     0.033 A 
HETATM    6  C   UNK N   1      33.971  17.033   9.034  0.00  0.00     0.030 A 
HETATM    7  C   UNK N   1      35.050  16.579   9.791  0.00  0.00     0.010 A 
BRANCH   5   8
HETATM    8  N   UNK N   1      31.789  16.598   7.942  0.00  0.00    -0.341 N 
HETATM    9  C   UNK N   1      30.734  17.182   8.408  0.00  0.00     0.111 C 
HETATM   10  C   UNK N   1      29.652  17.588   7.469  0.00  0.00     0.097 C 
ATOM     11  HN  UNK N   1      31.820  16.430   6.936  1.00  0.00     0.167 HD
BRANCH   9  12
HETATM   12  O   UNK N   1      30.570  17.407   9.728  0.00  0.00    -0.350 OA
ATOM     13  HO  UNK N   1      31.322  17.674  10.245  1.00  0.00     0.219 HD
ENDBRANCH   9  12
ENDBRANCH   5   8
ENDBRANCH   1   2
BRANCH   1  14
HETATM   14  P   UNK N   1      35.849  13.817  12.725  0.00  0.00     0.243 P 
HETATM   15  O   UNK N   1      37.086  13.140  12.079  0.00  0.00    -0.653 OA
BRANCH  14  16
HETATM   16  O   UNK N   1      36.499  15.254  13.458  0.00  0.00    -0.329 OA
HETATM   17  H   UNK N   1      36.261  16.194  13.460  0.00  0.00     0.220 HD
ENDBRANCH  14  16
BRANCH  14  18
HETATM   18  O   UNK N   1      36.679  13.125  14.103  0.00  0.00    -0.309 OA
BRANCH  18  19
HETATM   19  C   UNK N   1      35.947  12.033  14.620  0.00  0.00     0.160 C 
HETATM   20  C   UNK N   1      34.587  11.919  13.933  0.00  0.00     0.045 C 
BRANCH  19  21
HETATM   21  C   UNK N   1      35.712  12.248  16.097  0.00  0.00    -0.029 A 
HETATM   22  C   UNK N   1      35.702  11.151  16.976  0.00  0.00     0.010 A 
HETATM   23  C   UNK N   1      35.462  11.342  18.340  0.00  0.00     0.001 A 
HETATM   24  C   UNK N   1      35.233  12.626  18.839  0.00  0.00     0.000 A 
HETATM   25  C   UNK N   1      35.247  13.724  17.975  0.00  0.00     0.001 A 
HETATM   26  C   UNK N   1      35.484  13.536  16.611  0.00  0.00     0.010 A 
ENDBRANCH  19  21
ENDBRANCH  18  19
ENDBRANCH  14  18
ENDBRANCH   1  14
TORSDOF 8
ENDMDL
MODEL 5
REMARK VINA RESULT:      -6.9      2.865      9.603
REMARK  8 active torsions:
REMARK  status: ('A' for Active; 'I' for Inactive)
REMARK    1  A    between atoms: C_15  and  C_12 
REMARK    2  A    between atoms: P_25  and  C_12 
REMARK    3  A    between atoms: C_16  and  C_13 
REMARK    4  A    between atoms: O_24  and  C_13 
REMARK    5  A    between atoms: O_20  and  C_14 
REMARK    6  A    between atoms: N_18  and  C_17 
REMARK    7  A    between atoms: P_25  and  O_22 
REMARK    8  A    between atoms: P_25  and  O_24 
ROOT
HETATM    1  C   UNK N   1      35.341  13.965  10.277  0.00  0.00     0.163 C 
ENDROOT
BRANCH   1   2
HETATM    2  C   UNK N   1      35.466  13.602  11.742  0.00  0.00    -0.047 A 
HETATM    3  C   UNK N   1      34.939  12.390  12.200  0.00  0.00     0.010 A 
HETATM    4  C   UNK N   1      35.072  12.030  13.545  0.00  0.00     0.030 A 
HETATM    5  C   UNK N   1      35.745  12.868  14.442  0.00  0.00     0.033 A 
HETATM    6  C   UNK N   1      36.257  14.091  13.979  0.00  0.00     0.030 A 
HETATM    7  C   UNK N   1      36.113  14.458  12.641  0.00  0.00     0.010 A 
BRANCH   5   8
HETATM    8  N   UNK N   1      35.882  12.452  15.801  0.00  0.00    -0.341 N 
HETATM    9  C   UNK N   1      35.056  12.709  16.761  0.00  0.00     0.111 C 
HETATM   10  C   UNK N   1      35.337  12.181  18.124  0.00  0.00     0.097 C 
ATOM     11  HN  UNK N   1      36.708  11.902  16.035  1.00  0.00     0.167 HD
BRANCH   9  12
HETATM   12  O   UNK N   1      33.957  13.469  16.570  0.00  0.00    -0.350 OA
ATOM     13  HO  UNK N   1      33.569  13.911  17.316  1.00  0.00     0.219 HD
ENDBRANCH   9  12
ENDBRANCH   5   8
ENDBRANCH   1   2
BRANCH   1  14
HETATM   14  P   UNK N   1      34.648  15.678   9.785  0.00  0.00     0.243 P 
HETATM   15  O   UNK N   1      34.728  14.825   8.492  0.00  0.00    -0.653 OA
BRANCH  14  16
HETATM   16  O   UNK N   1      33.218  15.089  10.581  0.00  0.00    -0.329 OA
HETATM   17  H   UNK N   1      32.290  14.964  10.325  0.00  0.00     0.220 HD
ENDBRANCH  14  16
BRANCH  14  18
HETATM   18  O   UNK N   1      33.405  16.384   8.773  0.00  0.00    -0.309 OA
BRANCH  18  19
HETATM   19  C   UNK N   1      33.989  17.064   7.681  0.00  0.00     0.160 C 
HETATM   20  C   UNK N   1      34.415  18.475   8.087  0.00  0.00     0.045 C 
BRANCH  19  21
HETATM   21  C   UNK N   1      32.974  17.181   6.568  0.00  0.00    -0.029 A 
HETATM   22  C   UNK N   1      33.394  17.462   5.257  0.00  0.00     0.010 A 
HETATM   23  C   UNK N   1      32.458  17.593   4.228  0.00  0.00     0.001 A 
HETATM   24  C   UNK N   1      31.094  17.444   4.497  0.00  0.00     0.000 A 
HETATM   25  C   UNK N   1      30.666  17.158   5.795  0.00  0.00     0.001 A 
HETATM   26  C   UNK N   1      31.601  17.029   6.826  0.00  0.00     0.010 A 
ENDBRANCH  19  21
ENDBRANCH  18  19
ENDBRANCH  14  18
ENDBRANCH   1  14
TORSDOF 8
ENDMDL
MODEL 6
REMARK VINA RESULT:      -6.8      4.297     10.657
REMARK  8 active torsions:
REMARK  status: ('A' for Active; 'I' for Inactive)
REMARK    1  A    between atoms: C_15  and  C_12 
REMARK    2  A    between atoms: P_25  and  C_12 
REMARK    3  A    between atoms: C_16  and  C_13 
REMARK    4  A    between atoms: O_24  and  C_13 
REMARK    5  A    between atoms: O_20  and  C_14 
REMARK    6  A    between atoms: N_18  and  C_17 
REMARK    7  A    between atoms: P_25  and  O_22 
REMARK    8  A    between atoms: P_25  and  O_24 
ROOT
HETATM    1  C   UNK N   1      33.186  17.435   5.284  0.00  0.00     0.163 C 
ENDROOT
BRANCH   1   2
HETATM    2  C   UNK N   1      33.818  16.937   6.566  0.00  0.00    -0.047 A 
HETATM    3  C   UNK N   1      34.023  17.826   7.626  0.00  0.00     0.010 A 
HETATM    4  C   UNK N   1      34.581  17.373   8.827  0.00  0.00     0.030 A 
HETATM    5  C   UNK N   1      34.926  16.026   8.985  0.00  0.00     0.033 A 
HETATM    6  C   UNK N   1      34.735  15.141   7.911  0.00  0.00     0.030 A 
HETATM    7  C   UNK N   1      34.191  15.595   6.710  0.00  0.00     0.010 A 
BRANCH   5   8
HETATM    8  N   UNK N   1      35.469  15.598  10.234  0.00  0.00    -0.341 N 
HETATM    9  C   UNK N   1      34.804  15.087  11.217  0.00  0.00     0.111 C 
HETATM   10  C   UNK N   1      35.528  14.671  12.449  0.00  0.00     0.097 C 
ATOM     11  HN  UNK N   1      36.476  15.704  10.362  1.00  0.00     0.167 HD
BRANCH   9  12
HETATM   12  O   UNK N   1      33.462  14.947  11.171  0.00  0.00    -0.350 OA
ATOM     13  HO  UNK N   1      32.943  15.248  11.908  1.00  0.00     0.219 HD
ENDBRANCH   9  12
ENDBRANCH   5   8
ENDBRANCH   1   2
BRANCH   1  14
HETATM   14  P   UNK N   1      31.523  16.691   4.702  0.00  0.00     0.243 P 
HETATM   15  O   UNK N   1      31.213  17.632   5.896  0.00  0.00    -0.653 OA
BRANCH  14  16
HETATM   16  O   UNK N   1      31.750  17.780   3.365  0.00  0.00    -0.329 OA
HETATM   17  H   UNK N   1      32.256  18.595   3.219  0.00  0.00     0.220 HD
ENDBRANCH  14  16
BRANCH  14  18
HETATM   18  O   UNK N   1      29.868  17.176   4.399  0.00  0.00    -0.309 OA
BRANCH  18  19
HETATM   19  C   UNK N   1      29.162  17.302   5.617  0.00  0.00     0.160 C 
HETATM   20  C   UNK N   1      28.238  16.104   5.834  0.00  0.00     0.045 C 
BRANCH  19  21
HETATM   21  C   UNK N   1      28.313  18.550   5.573  0.00  0.00    -0.029 A 
HETATM   22  C   UNK N   1      27.844  19.040   4.342  0.00  0.00     0.010 A 
HETATM   23  C   UNK N   1      27.076  20.207   4.293  0.00  0.00     0.001 A 
HETATM   24  C   UNK N   1      26.768  20.894   5.470  0.00  0.00     0.000 A 
HETATM   25  C   UNK N   1      27.223  20.412   6.700  0.00  0.00     0.001 A 
HETATM   26  C   UNK N   1      27.992  19.247   6.750  0.00  0.00     0.010 A 
ENDBRANCH  19  21
ENDBRANCH  18  19
ENDBRANCH  14  18
ENDBRANCH   1  14
TORSDOF 8
ENDMDL
MODEL 7
REMARK VINA RESULT:      -6.5      3.982     10.031
REMARK  8 active torsions:
REMARK  status: ('A' for Active; 'I' for Inactive)
REMARK    1  A    between atoms: C_15  and  C_12 
REMARK    2  A    between atoms: P_25  and  C_12 
REMARK    3  A    between atoms: C_16  and  C_13 
REMARK    4  A    between atoms: O_24  and  C_13 
REMARK    5  A    between atoms: O_20  and  C_14 
REMARK    6  A    between atoms: N_18  and  C_17 
REMARK    7  A    between atoms: P_25  and  O_22 
REMARK    8  A    between atoms: P_25  and  O_24 
ROOT
HETATM    1  C   UNK N   1      35.115  13.397  16.125  0.00  0.00     0.163 C 
ENDROOT
BRANCH   1   2
HETATM    2  C   UNK N   1      35.284  12.609  17.406  0.00  0.00    -0.047 A 
HETATM    3  C   UNK N   1      35.160  13.259  18.638  0.00  0.00     0.010 A 
HETATM    4  C   UNK N   1      35.286  12.536  19.830  0.00  0.00     0.030 A 
HETATM    5  C   UNK N   1      35.522  11.157  19.803  0.00  0.00     0.033 A 
HETATM    6  C   UNK N   1      35.663  10.513  18.562  0.00  0.00     0.030 A 
HETATM    7  C   UNK N   1      35.551  11.235  17.374  0.00  0.00     0.010 A 
BRANCH   5   8
HETATM    8  N   UNK N   1      35.619  10.451  21.040  0.00  0.00    -0.341 N 
HETATM    9  C   UNK N   1      34.662   9.808  21.625  0.00  0.00     0.111 C 
HETATM   10  C   UNK N   1      34.935   9.104  22.907  0.00  0.00     0.097 C 
ATOM     11  HN  UNK N   1      36.527  10.454  21.505  1.00  0.00     0.167 HD
BRANCH   9  12
HETATM   12  O   UNK N   1      33.411   9.782  21.120  0.00  0.00    -0.350 OA
ATOM     13  HO  UNK N   1      33.230   9.228  20.369  1.00  0.00     0.219 HD
ENDBRANCH   9  12
ENDBRANCH   5   8
ENDBRANCH   1   2
BRANCH   1  14
HETATM   14  P   UNK N   1      36.134  12.917  14.579  0.00  0.00     0.243 P 
HETATM   15  O   UNK N   1      34.772  13.467  14.080  0.00  0.00    -0.653 OA
BRANCH  14  16
HETATM   16  O   UNK N   1      37.032  14.347  14.990  0.00  0.00    -0.329 OA
HETATM   17  H   UNK N   1      37.108  15.242  14.623  0.00  0.00     0.220 HD
ENDBRANCH  14  16
BRANCH  14  18
HETATM   18  O   UNK N   1      36.518  13.522  12.982  0.00  0.00    -0.309 OA
BRANCH  18  19
HETATM   19  C   UNK N   1      35.501  13.172  12.066  0.00  0.00     0.160 C 
HETATM   20  C   UNK N   1      35.961  12.033  11.156  0.00  0.00     0.045 C 
BRANCH  19  21
HETATM   21  C   UNK N   1      35.180  14.367  11.199  0.00  0.00    -0.029 A 
HETATM   22  C   UNK N   1      34.354  14.219  10.072  0.00  0.00     0.010 A 
HETATM   23  C   UNK N   1      34.071  15.316   9.254  0.00  0.00     0.001 A 
HETATM   24  C   UNK N   1      34.608  16.571   9.554  0.00  0.00     0.000 A 
HETATM   25  C   UNK N   1      35.426  16.731  10.675  0.00  0.00     0.001 A 
HETATM   26  C   UNK N   1      35.711  15.635  11.493  0.00  0.00     0.010 A 
ENDBRANCH  19  21
ENDBRANCH  18  19
ENDBRANCH  14  18
ENDBRANCH   1  14
TORSDOF 8
ENDMDL
MODEL 8
REMARK VINA RESULT:      -6.5      3.030      9.276
REMARK  8 active torsions:
REMARK  status: ('A' for Active; 'I' for Inactive)
REMARK    1  A    between atoms: C_15  and  C_12 
REMARK    2  A    between atoms: P_25  and  C_12 
REMARK    3  A    between atoms: C_16  and  C_13 
REMARK    4  A    between atoms: O_24  and  C_13 
REMARK    5  A    between atoms: O_20  and  C_14 
REMARK    6  A    between atoms: N_18  and  C_17 
REMARK    7  A    between atoms: P_25  and  O_22 
REMARK    8  A    between atoms: P_25  and  O_24 
ROOT
HETATM    1  C   UNK N   1      35.116  11.426  11.815  0.00  0.00     0.163 C 
ENDROOT
BRANCH   1   2
HETATM    2  C   UNK N   1      35.211  11.239  13.314  0.00  0.00    -0.047 A 
HETATM    3  C   UNK N   1      36.374  11.627  13.986  0.00  0.00     0.010 A 
HETATM    4  C   UNK N   1      36.464  11.485  15.375  0.00  0.00     0.030 A 
HETATM    5  C   UNK N   1      35.389  10.968  16.107  0.00  0.00     0.033 A 
HETATM    6  C   UNK N   1      34.230  10.564  15.424  0.00  0.00     0.030 A 
HETATM    7  C   UNK N   1      34.144  10.693  14.038  0.00  0.00     0.010 A 
BRANCH   5   8
HETATM    8  N   UNK N   1      35.510  10.863  17.526  0.00  0.00    -0.341 N 
HETATM    9  C   UNK N   1      35.290  11.808  18.379  0.00  0.00     0.111 C 
HETATM   10  C   UNK N   1      35.442  11.526  19.833  0.00  0.00     0.097 C 
ATOM     11  HN  UNK N   1      35.796   9.958  17.900  1.00  0.00     0.167 HD
BRANCH   9  12
HETATM   12  O   UNK N   1      34.955  13.055  17.989  0.00  0.00    -0.350 OA
ATOM     13  HO  UNK N   1      34.370  13.163  17.247  1.00  0.00     0.219 HD
ENDBRANCH   9  12
ENDBRANCH   5   8
ENDBRANCH   1   2
BRANCH   1  14
HETATM   14  P   UNK N   1      35.397  13.161  11.061  0.00  0.00     0.243 P 
HETATM   15  O   UNK N   1      34.539  12.354  10.051  0.00  0.00    -0.653 OA
BRANCH  14  16
HETATM   16  O   UNK N   1      34.256  13.641  12.282  0.00  0.00    -0.329 OA
HETATM   17  H   UNK N   1      33.292  13.599  12.378  0.00  0.00     0.220 HD
ENDBRANCH  14  16
BRANCH  14  18
HETATM   18  O   UNK N   1      34.520  14.412  10.205  0.00  0.00    -0.309 OA
BRANCH  18  19
HETATM   19  C   UNK N   1      35.406  15.423   9.771  0.00  0.00     0.160 C 
HETATM   20  C   UNK N   1      35.647  16.446  10.880  0.00  0.00     0.045 C 
BRANCH  19  21
HETATM   21  C   UNK N   1      34.798  16.144   8.590  0.00  0.00    -0.029 A 
HETATM   22  C   UNK N   1      34.745  15.517   7.333  0.00  0.00     0.010 A 
HETATM   23  C   UNK N   1      34.204  16.188   6.232  0.00  0.00     0.001 A 
HETATM   24  C   UNK N   1      33.709  17.486   6.376  0.00  0.00     0.000 A 
HETATM   25  C   UNK N   1      33.751  18.116   7.622  0.00  0.00     0.001 A 
HETATM   26  C   UNK N   1      34.293  17.448   8.723  0.00  0.00     0.010 A 
ENDBRANCH  19  21
ENDBRANCH  18  19
ENDBRANCH  14  18
ENDBRANCH   1  14
TORSDOF 8
ENDMDL
MODEL 9
REMARK VINA RESULT:      -6.2     18.461     22.955
REMARK  8 active torsions:
REMARK  status: ('A' for Active; 'I' for Inactive)
REMARK    1  A    between atoms: C_15  and  C_12 
REMARK    2  A    between atoms: P_25  and  C_12 
REMARK    3  A    between atoms: C_16  and  C_13 
REMARK    4  A    between atoms: O_24  and  C_13 
REMARK    5  A    between atoms: O_20  and  C_14 
REMARK    6  A    between atoms: N_18  and  C_17 
REMARK    7  A    between atoms: P_25  and  O_22 
REMARK    8  A    between atoms: P_25  and  O_24 
ROOT
HETATM    1  C   UNK N   1      27.491  22.857  -6.497  0.00  0.00     0.163 C 
ENDROOT
BRANCH   1   2
HETATM    2  C   UNK N   1      28.868  22.348  -6.126  0.00  0.00    -0.047 A 
HETATM    3  C   UNK N   1      29.549  21.498  -7.002  0.00  0.00     0.010 A 
HETATM    4  C   UNK N   1      30.834  21.044  -6.684  0.00  0.00     0.030 A 
HETATM    5  C   UNK N   1      31.455  21.445  -5.496  0.00  0.00     0.033 A 
HETATM    6  C   UNK N   1      30.759  22.286  -4.612  0.00  0.00     0.030 A 
HETATM    7  C   UNK N   1      29.473  22.728  -4.922  0.00  0.00     0.010 A 
BRANCH   5   8
HETATM    8  N   UNK N   1      32.777  20.981  -5.220  0.00  0.00    -0.341 N 
HETATM    9  C   UNK N   1      33.084  19.889  -4.600  0.00  0.00     0.111 C 
HETATM   10  C   UNK N   1      34.518  19.538  -4.412  0.00  0.00     0.097 C 
ATOM     11  HN  UNK N   1      33.549  21.564  -5.542  1.00  0.00     0.167 HD
BRANCH   9  12
HETATM   12  O   UNK N   1      32.141  19.070  -4.091  0.00  0.00    -0.350 OA
ATOM     13  HO  UNK N   1      31.622  19.369  -3.353  1.00  0.00     0.219 HD
ENDBRANCH   9  12
ENDBRANCH   5   8
ENDBRANCH   1   2
BRANCH   1  14
HETATM   14  P   UNK N   1      26.929  24.584  -5.899  0.00  0.00     0.243 P 
HETATM   15  O   UNK N   1      27.855  24.800  -7.125  0.00  0.00    -0.653 OA
BRANCH  14  16
HETATM   16  O   UNK N   1      25.415  24.100  -6.604  0.00  0.00    -0.329 OA
HETATM   17  H   UNK N   1      24.995  23.251  -6.817  0.00  0.00     0.220 HD
ENDBRANCH  14  16
BRANCH  14  18
HETATM   18  O   UNK N   1      26.373  26.114  -6.545  0.00  0.00    -0.309 OA
BRANCH  18  19
HETATM   19  C   UNK N   1      25.982  26.976  -5.497  0.00  0.00     0.160 C 
HETATM   20  C   UNK N   1      24.506  27.354  -5.628  0.00  0.00     0.045 C 
BRANCH  19  21
HETATM   21  C   UNK N   1      26.800  28.244  -5.565  0.00  0.00    -0.029 A 
HETATM   22  C   UNK N   1      27.736  28.425  -6.597  0.00  0.00     0.010 A 
HETATM   23  C   UNK N   1      28.511  29.587  -6.652  0.00  0.00     0.001 A 
HETATM   24  C   UNK N   1      28.359  30.579  -5.680  0.00  0.00     0.000 A 
HETATM   25  C   UNK N   1      27.427  30.412  -4.653  0.00  0.00     0.001 A 
HETATM   26  C   UNK N   1      26.652  29.251  -4.595  0.00  0.00     0.010 A 
ENDBRANCH  19  21
ENDBRANCH  18  19
ENDBRANCH  14  18
ENDBRANCH   1  14
TORSDOF 8
ENDMDL
