MODEL 1
REMARK VINA RESULT:      -5.2      0.000      0.000
REMARK  9 active torsions:
REMARK  status: ('A' for Active; 'I' for Inactive)
REMARK    1  A    between atoms: O_15  and  C_2 
REMARK    2  A    between atoms: C_4  and  C_3 
REMARK    3  A    between atoms: C_8  and  C_3 
REMARK    4  A    between atoms: S_16  and  C_4 
REMARK    5  A    between atoms: C_9  and  C_6 
REMARK    6  A    between atoms: S_16  and  C_6 
REMARK    7  A    between atoms: C_10  and  C_7 
REMARK    8  A    between atoms: O_15  and  C_9 
REMARK    9  A    between atoms: O_14  and  C_10 
ROOT
HETATM    1  C   UNK N   1      19.592  18.517   2.609  0.00  0.00     0.111 C 
HETATM    2  C   UNK N   1      20.975  18.962   2.205  0.00  0.00     0.185 C 
HETATM    3  C   UNK N   1      21.560  17.870   4.146  0.00  0.00     0.140 C 
HETATM    4  N   UNK N   1      21.735  19.125   3.431  0.00  0.00    -0.395 N 
HETATM    5  S   UNK N   1      19.860  17.254   3.881  0.00  0.00    -0.142 SA
HETATM    6  H   UNK N   1      22.272  19.938   3.725  0.00  0.00     0.155 HD
ENDROOT
BRANCH   3   7
HETATM    7  C   UNK N   1      21.822  18.093   5.621  0.00  0.00     0.046 C 
BRANCH   7   8
HETATM    8  C   UNK N   1      20.787  17.337   6.431  0.00  0.00     0.077 C 
BRANCH   8   9
HETATM    9  S   UNK N   1      21.545  15.846   7.131  0.00  0.00    -0.159 SA
BRANCH   9  10
HETATM   10  C   UNK N   1      20.328  15.805   8.485  0.00  0.00     0.184 C 
BRANCH  10  11
HETATM   11  C   UNK N   1      20.404  14.555   9.308  0.00  0.00     0.268 C 
HETATM   12  O   UNK N   1      19.406  14.113   9.869  0.00  0.00    -0.264 OA
BRANCH  11  13
HETATM   13  O   UNK N   1      21.590  13.911   9.407  0.00  0.00    -0.321 OA
BRANCH  13  14
HETATM   14  C   UNK N   1      21.828  12.935  10.346  0.00  0.00     0.174 C 
HETATM   15  C   UNK N   1      22.780  11.907   9.773  0.00  0.00     0.034 C 
ENDBRANCH  13  14
ENDBRANCH  11  13
ENDBRANCH  10  11
ENDBRANCH   9  10
ENDBRANCH   8   9
ENDBRANCH   7   8
ENDBRANCH   3   7
BRANCH   2  16
HETATM   16  C   UNK N   1      20.942  20.223   1.391  0.00  0.00     0.164 C 
HETATM   17  O   UNK N   1      21.224  21.298   1.896  0.00  0.00    -0.648 OA
BRANCH  16  18
HETATM   18  O   UNK N   1      20.626  20.164   0.084  0.00  0.00    -0.775 OA
HETATM   19  H   UNK N   1      21.281  19.954  -0.552  0.00  0.00     0.167 HD
ENDBRANCH  16  18
ENDBRANCH   2  16
TORSDOF 9
ENDMDL
MODEL 2
REMARK VINA RESULT:      -4.9     12.920     14.220
REMARK  9 active torsions:
REMARK  status: ('A' for Active; 'I' for Inactive)
REMARK    1  A    between atoms: O_15  and  C_2 
REMARK    2  A    between atoms: C_4  and  C_3 
REMARK    3  A    between atoms: C_8  and  C_3 
REMARK    4  A    between atoms: S_16  and  C_4 
REMARK    5  A    between atoms: C_9  and  C_6 
REMARK    6  A    between atoms: S_16  and  C_6 
REMARK    7  A    between atoms: C_10  and  C_7 
REMARK    8  A    between atoms: O_15  and  C_9 
REMARK    9  A    between atoms: O_14  and  C_10 
ROOT
HETATM    1  C   UNK N   1      32.490  17.464   8.305  0.00  0.00     0.111 C 
HETATM    2  C   UNK N   1      33.923  17.296   7.870  0.00  0.00     0.185 C 
HETATM    3  C   UNK N   1      33.133  15.272   7.109  0.00  0.00     0.140 C 
HETATM    4  N   UNK N   1      34.201  15.872   7.894  0.00  0.00    -0.395 N 
HETATM    5  S   UNK N   1      31.576  16.179   7.413  0.00  0.00    -0.142 SA
HETATM    6  H   UNK N   1      34.974  15.397   8.357  0.00  0.00     0.155 HD
ENDROOT
BRANCH   3   7
HETATM    7  C   UNK N   1      32.985  13.815   7.494  0.00  0.00     0.046 C 
BRANCH   7   8
HETATM    8  C   UNK N   1      34.349  13.247   7.832  0.00  0.00     0.077 C 
BRANCH   8   9
HETATM    9  S   UNK N   1      34.222  12.227   9.325  0.00  0.00    -0.159 SA
BRANCH   9  10
HETATM   10  C   UNK N   1      35.327  13.347  10.242  0.00  0.00     0.184 C 
BRANCH  10  11
HETATM   11  C   UNK N   1      34.597  14.254  11.186  0.00  0.00     0.268 C 
HETATM   12  O   UNK N   1      33.787  15.074  10.765  0.00  0.00    -0.264 OA
BRANCH  11  13
HETATM   13  O   UNK N   1      34.833  14.139  12.513  0.00  0.00    -0.321 OA
BRANCH  13  14
HETATM   14  C   UNK N   1      35.189  12.948  13.102  0.00  0.00     0.174 C 
HETATM   15  C   UNK N   1      35.563  13.194  14.548  0.00  0.00     0.034 C 
ENDBRANCH  13  14
ENDBRANCH  11  13
ENDBRANCH  10  11
ENDBRANCH   9  10
ENDBRANCH   8   9
ENDBRANCH   7   8
ENDBRANCH   3   7
BRANCH   2  16
HETATM   16  C   UNK N   1      34.868  18.069   8.744  0.00  0.00     0.164 C 
HETATM   17  O   UNK N   1      35.239  19.188   8.425  0.00  0.00    -0.648 OA
BRANCH  16  18
HETATM   18  O   UNK N   1      35.288  17.535   9.907  0.00  0.00    -0.775 OA
HETATM   19  H   UNK N   1      34.816  16.830  10.302  0.00  0.00     0.167 HD
ENDBRANCH  16  18
ENDBRANCH   2  16
TORSDOF 9
ENDMDL
MODEL 3
REMARK VINA RESULT:      -4.9     14.519     15.642
REMARK  9 active torsions:
REMARK  status: ('A' for Active; 'I' for Inactive)
REMARK    1  A    between atoms: O_15  and  C_2 
REMARK    2  A    between atoms: C_4  and  C_3 
REMARK    3  A    between atoms: C_8  and  C_3 
REMARK    4  A    between atoms: S_16  and  C_4 
REMARK    5  A    between atoms: C_9  and  C_6 
REMARK    6  A    between atoms: S_16  and  C_6 
REMARK    7  A    between atoms: C_10  and  C_7 
REMARK    8  A    between atoms: O_15  and  C_9 
REMARK    9  A    between atoms: O_14  and  C_10 
ROOT
HETATM    1  C   UNK N   1      35.206  17.233  10.400  0.00  0.00     0.111 C 
HETATM    2  C   UNK N   1      34.454  17.048   9.107  0.00  0.00     0.185 C 
HETATM    3  C   UNK N   1      34.664  14.823   9.660  0.00  0.00     0.140 C 
HETATM    4  N   UNK N   1      34.862  15.764   8.569  0.00  0.00    -0.395 N 
HETATM    5  S   UNK N   1      35.091  15.633  11.242  0.00  0.00    -0.142 SA
HETATM    6  H   UNK N   1      35.211  15.565   7.632  0.00  0.00     0.155 HD
ENDROOT
BRANCH   3   7
HETATM    7  C   UNK N   1      35.532  13.603   9.434  0.00  0.00     0.046 C 
BRANCH   7   8
HETATM    8  C   UNK N   1      36.213  13.228  10.736  0.00  0.00     0.077 C 
BRANCH   8   9
HETATM    9  S   UNK N   1      35.199  12.012  11.617  0.00  0.00    -0.159 SA
BRANCH   9  10
HETATM   10  C   UNK N   1      36.265  12.118  13.089  0.00  0.00     0.184 C 
BRANCH  10  11
HETATM   11  C   UNK N   1      35.839  13.187  14.050  0.00  0.00     0.268 C 
HETATM   12  O   UNK N   1      36.521  14.194  14.208  0.00  0.00    -0.264 OA
BRANCH  11  13
HETATM   13  O   UNK N   1      34.677  13.029  14.727  0.00  0.00    -0.321 OA
BRANCH  13  14
HETATM   14  C   UNK N   1      34.613  13.045  16.101  0.00  0.00     0.174 C 
HETATM   15  C   UNK N   1      35.488  11.942  16.658  0.00  0.00     0.034 C 
ENDBRANCH  13  14
ENDBRANCH  11  13
ENDBRANCH  10  11
ENDBRANCH   9  10
ENDBRANCH   8   9
ENDBRANCH   7   8
ENDBRANCH   3   7
BRANCH   2  16
HETATM   16  C   UNK N   1      34.712  18.171   8.144  0.00  0.00     0.164 C 
HETATM   17  O   UNK N   1      35.257  19.198   8.516  0.00  0.00    -0.648 OA
BRANCH  16  18
HETATM   18  O   UNK N   1      34.364  18.033   6.851  0.00  0.00    -0.775 OA
HETATM   19  H   UNK N   1      34.918  18.367   6.174  0.00  0.00     0.167 HD
ENDBRANCH  16  18
ENDBRANCH   2  16
TORSDOF 9
ENDMDL
MODEL 4
REMARK VINA RESULT:      -4.9     14.008     15.199
REMARK  9 active torsions:
REMARK  status: ('A' for Active; 'I' for Inactive)
REMARK    1  A    between atoms: O_15  and  C_2 
REMARK    2  A    between atoms: C_4  and  C_3 
REMARK    3  A    between atoms: C_8  and  C_3 
REMARK    4  A    between atoms: S_16  and  C_4 
REMARK    5  A    between atoms: C_9  and  C_6 
REMARK    6  A    between atoms: S_16  and  C_6 
REMARK    7  A    between atoms: C_10  and  C_7 
REMARK    8  A    between atoms: O_15  and  C_9 
REMARK    9  A    between atoms: O_14  and  C_10 
ROOT
HETATM    1  C   UNK N   1      25.987  23.597  -5.576  0.00  0.00     0.111 C 
HETATM    2  C   UNK N   1      27.094  24.378  -4.913  0.00  0.00     0.185 C 
HETATM    3  C   UNK N   1      28.410  23.118  -6.321  0.00  0.00     0.140 C 
HETATM    4  N   UNK N   1      28.271  23.530  -4.933  0.00  0.00    -0.395 N 
HETATM    5  S   UNK N   1      26.751  22.856  -7.043  0.00  0.00    -0.142 SA
HETATM    6  H   UNK N   1      28.869  23.278  -4.147  0.00  0.00     0.155 HD
ENDROOT
BRANCH   3   7
HETATM    7  C   UNK N   1      29.226  21.844  -6.387  0.00  0.00     0.046 C 
BRANCH   7   8
HETATM    8  C   UNK N   1      30.587  22.090  -5.766  0.00  0.00     0.077 C 
BRANCH   8   9
HETATM    9  S   UNK N   1      30.730  21.132  -4.234  0.00  0.00    -0.159 SA
BRANCH   9  10
HETATM   10  C   UNK N   1      31.634  22.485  -3.416  0.00  0.00     0.184 C 
BRANCH  10  11
HETATM   11  C   UNK N   1      30.759  23.339  -2.549  0.00  0.00     0.268 C 
HETATM   12  O   UNK N   1      30.361  22.927  -1.464  0.00  0.00    -0.264 OA
BRANCH  11  13
HETATM   13  O   UNK N   1      30.432  24.580  -2.976  0.00  0.00    -0.321 OA
BRANCH  13  14
HETATM   14  C   UNK N   1      31.245  25.317  -3.806  0.00  0.00     0.174 C 
HETATM   15  C   UNK N   1      30.399  26.268  -4.625  0.00  0.00     0.034 C 
ENDBRANCH  13  14
ENDBRANCH  11  13
ENDBRANCH  10  11
ENDBRANCH   9  10
ENDBRANCH   8   9
ENDBRANCH   7   8
ENDBRANCH   3   7
BRANCH   2  16
HETATM   16  C   UNK N   1      26.725  24.798  -3.520  0.00  0.00     0.164 C 
HETATM   17  O   UNK N   1      26.911  24.050  -2.573  0.00  0.00    -0.648 OA
BRANCH  16  18
HETATM   18  O   UNK N   1      26.210  26.024  -3.308  0.00  0.00    -0.775 OA
HETATM   19  H   UNK N   1      25.292  26.132  -3.159  0.00  0.00     0.167 HD
ENDBRANCH  16  18
ENDBRANCH   2  16
TORSDOF 9
ENDMDL
MODEL 5
REMARK VINA RESULT:      -4.8      9.724     12.001
REMARK  9 active torsions:
REMARK  status: ('A' for Active; 'I' for Inactive)
REMARK    1  A    between atoms: O_15  and  C_2 
REMARK    2  A    between atoms: C_4  and  C_3 
REMARK    3  A    between atoms: C_8  and  C_3 
REMARK    4  A    between atoms: S_16  and  C_4 
REMARK    5  A    between atoms: C_9  and  C_6 
REMARK    6  A    between atoms: S_16  and  C_6 
REMARK    7  A    between atoms: C_10  and  C_7 
REMARK    8  A    between atoms: O_15  and  C_9 
REMARK    9  A    between atoms: O_14  and  C_10 
ROOT
HETATM    1  C   UNK N   1      33.412  16.370   7.236  0.00  0.00     0.111 C 
HETATM    2  C   UNK N   1      33.442  16.997   8.607  0.00  0.00     0.185 C 
HETATM    3  C   UNK N   1      31.158  16.777   8.420  0.00  0.00     0.140 C 
HETATM    4  N   UNK N   1      32.201  17.734   8.754  0.00  0.00    -0.395 N 
HETATM    5  S   UNK N   1      31.739  15.697   7.065  0.00  0.00    -0.142 SA
HETATM    6  H   UNK N   1      32.086  18.708   9.030  0.00  0.00     0.155 HD
ENDROOT
BRANCH   3   7
HETATM    7  C   UNK N   1      29.906  17.522   8.007  0.00  0.00     0.046 C 
BRANCH   7   8
HETATM    8  C   UNK N   1      29.653  17.293   6.530  0.00  0.00     0.077 C 
BRANCH   8   9
HETATM    9  S   UNK N   1      27.888  17.516   6.182  0.00  0.00    -0.159 SA
BRANCH   9  10
HETATM   10  C   UNK N   1      28.232  18.943   5.104  0.00  0.00     0.184 C 
BRANCH  10  11
HETATM   11  C   UNK N   1      27.451  20.167   5.478  0.00  0.00     0.268 C 
HETATM   12  O   UNK N   1      27.496  20.613   6.619  0.00  0.00    -0.264 OA
BRANCH  11  13
HETATM   13  O   UNK N   1      26.709  20.781   4.528  0.00  0.00    -0.321 OA
BRANCH  13  14
HETATM   14  C   UNK N   1      26.411  20.189   3.322  0.00  0.00     0.174 C 
HETATM   15  C   UNK N   1      24.961  20.454   2.977  0.00  0.00     0.034 C 
ENDBRANCH  13  14
ENDBRANCH  11  13
ENDBRANCH  10  11
ENDBRANCH   9  10
ENDBRANCH   8   9
ENDBRANCH   7   8
ENDBRANCH   3   7
BRANCH   2  16
HETATM   16  C   UNK N   1      34.645  17.875   8.795  0.00  0.00     0.164 C 
HETATM   17  O   UNK N   1      35.369  17.740   9.769  0.00  0.00    -0.648 OA
BRANCH  16  18
HETATM   18  O   UNK N   1      34.945  18.801   7.866  0.00  0.00    -0.775 OA
HETATM   19  H   UNK N   1      35.256  19.646   8.124  0.00  0.00     0.167 HD
ENDBRANCH  16  18
ENDBRANCH   2  16
TORSDOF 9
ENDMDL
MODEL 6
REMARK VINA RESULT:      -4.8     11.224     12.785
REMARK  9 active torsions:
REMARK  status: ('A' for Active; 'I' for Inactive)
REMARK    1  A    between atoms: O_15  and  C_2 
REMARK    2  A    between atoms: C_4  and  C_3 
REMARK    3  A    between atoms: C_8  and  C_3 
REMARK    4  A    between atoms: S_16  and  C_4 
REMARK    5  A    between atoms: C_9  and  C_6 
REMARK    6  A    between atoms: S_16  and  C_6 
REMARK    7  A    between atoms: C_10  and  C_7 
REMARK    8  A    between atoms: O_15  and  C_9 
REMARK    9  A    between atoms: O_14  and  C_10 
ROOT
HETATM    1  C   UNK N   1      29.714  16.932   7.379  0.00  0.00     0.111 C 
HETATM    2  C   UNK N   1      29.721  17.859   8.568  0.00  0.00     0.185 C 
HETATM    3  C   UNK N   1      31.999  17.755   8.248  0.00  0.00     0.140 C 
HETATM    4  N   UNK N   1      30.970  17.628   9.269  0.00  0.00    -0.395 N 
HETATM    5  S   UNK N   1      31.379  17.061   6.675  0.00  0.00    -0.142 SA
HETATM    6  H   UNK N   1      31.098  17.422  10.258  0.00  0.00     0.155 HD
ENDROOT
BRANCH   3   7
HETATM    7  C   UNK N   1      33.245  17.023   8.698  0.00  0.00     0.046 C 
BRANCH   7   8
HETATM    8  C   UNK N   1      33.328  15.690   7.981  0.00  0.00     0.077 C 
BRANCH   8   9
HETATM    9  S   UNK N   1      34.576  14.651   8.786  0.00  0.00    -0.159 SA
BRANCH   9  10
HETATM   10  C   UNK N   1      33.948  15.091  10.437  0.00  0.00     0.184 C 
BRANCH  10  11
HETATM   11  C   UNK N   1      34.957  14.884  11.527  0.00  0.00     0.268 C 
HETATM   12  O   UNK N   1      36.007  15.519  11.536  0.00  0.00    -0.264 OA
BRANCH  11  13
HETATM   13  O   UNK N   1      34.681  13.996  12.510  0.00  0.00    -0.321 OA
BRANCH  13  14
HETATM   14  C   UNK N   1      35.548  12.989  12.863  0.00  0.00     0.174 C 
HETATM   15  C   UNK N   1      35.992  13.188  14.297  0.00  0.00     0.034 C 
ENDBRANCH  13  14
ENDBRANCH  11  13
ENDBRANCH  10  11
ENDBRANCH   9  10
ENDBRANCH   8   9
ENDBRANCH   7   8
ENDBRANCH   3   7
BRANCH   2  16
HETATM   16  C   UNK N   1      28.529  17.642   9.453  0.00  0.00     0.164 C 
HETATM   17  O   UNK N   1      28.564  16.821  10.356  0.00  0.00    -0.648 OA
BRANCH  16  18
HETATM   18  O   UNK N   1      27.418  18.381   9.269  0.00  0.00    -0.775 OA
HETATM   19  H   UNK N   1      26.599  18.101   9.625  0.00  0.00     0.167 HD
ENDBRANCH  16  18
ENDBRANCH   2  16
TORSDOF 9
ENDMDL
MODEL 7
REMARK VINA RESULT:      -4.8      4.146      8.585
REMARK  9 active torsions:
REMARK  status: ('A' for Active; 'I' for Inactive)
REMARK    1  A    between atoms: O_15  and  C_2 
REMARK    2  A    between atoms: C_4  and  C_3 
REMARK    3  A    between atoms: C_8  and  C_3 
REMARK    4  A    between atoms: S_16  and  C_4 
REMARK    5  A    between atoms: C_9  and  C_6 
REMARK    6  A    between atoms: S_16  and  C_6 
REMARK    7  A    between atoms: C_10  and  C_7 
REMARK    8  A    between atoms: O_15  and  C_9 
REMARK    9  A    between atoms: O_14  and  C_10 
ROOT
HETATM    1  C   UNK N   1      24.161  12.871   9.584  0.00  0.00     0.111 C 
HETATM    2  C   UNK N   1      23.150  11.979  10.259  0.00  0.00     0.185 C 
HETATM    3  C   UNK N   1      21.793  12.757   8.570  0.00  0.00     0.140 C 
HETATM    4  N   UNK N   1      21.847  12.567  10.011  0.00  0.00    -0.395 N 
HETATM    5  S   UNK N   1      23.446  13.246   7.962  0.00  0.00    -0.142 SA
HETATM    6  H   UNK N   1      21.127  12.795  10.695  0.00  0.00     0.155 HD
ENDROOT
BRANCH   3   7
HETATM    7  C   UNK N   1      20.768  13.823   8.243  0.00  0.00     0.046 C 
BRANCH   7   8
HETATM    8  C   UNK N   1      21.033  15.048   9.096  0.00  0.00     0.077 C 
BRANCH   8   9
HETATM    9  S   UNK N   1      19.905  16.379   8.603  0.00  0.00    -0.159 SA
BRANCH   9  10
HETATM   10  C   UNK N   1      20.720  16.534   6.982  0.00  0.00     0.184 C 
BRANCH  10  11
HETATM   11  C   UNK N   1      21.214  17.921   6.700  0.00  0.00     0.268 C 
HETATM   12  O   UNK N   1      20.802  18.876   7.351  0.00  0.00    -0.264 OA
BRANCH  11  13
HETATM   13  O   UNK N   1      22.138  18.098   5.728  0.00  0.00    -0.321 OA
BRANCH  13  14
HETATM   14  C   UNK N   1      23.069  17.138   5.407  0.00  0.00     0.174 C 
HETATM   15  C   UNK N   1      24.115  17.738   4.491  0.00  0.00     0.034 C 
ENDBRANCH  13  14
ENDBRANCH  11  13
ENDBRANCH  10  11
ENDBRANCH   9  10
ENDBRANCH   8   9
ENDBRANCH   7   8
ENDBRANCH   3   7
BRANCH   2  16
HETATM   16  C   UNK N   1      23.429  11.827  11.726  0.00  0.00     0.164 C 
HETATM   17  O   UNK N   1      24.551  12.017  12.170  0.00  0.00    -0.648 OA
BRANCH  16  18
HETATM   18  O   UNK N   1      22.428  11.504  12.565  0.00  0.00    -0.775 OA
HETATM   19  H   UNK N   1      21.979  10.688  12.475  0.00  0.00     0.167 HD
ENDBRANCH  16  18
ENDBRANCH   2  16
TORSDOF 9
ENDMDL
MODEL 8
REMARK VINA RESULT:      -4.8     15.366     16.753
REMARK  9 active torsions:
REMARK  status: ('A' for Active; 'I' for Inactive)
REMARK    1  A    between atoms: O_15  and  C_2 
REMARK    2  A    between atoms: C_4  and  C_3 
REMARK    3  A    between atoms: C_8  and  C_3 
REMARK    4  A    between atoms: S_16  and  C_4 
REMARK    5  A    between atoms: C_9  and  C_6 
REMARK    6  A    between atoms: S_16  and  C_6 
REMARK    7  A    between atoms: C_10  and  C_7 
REMARK    8  A    between atoms: O_15  and  C_9 
REMARK    9  A    between atoms: O_14  and  C_10 
ROOT
HETATM    1  C   UNK N   1      34.559  14.308   9.849  0.00  0.00     0.111 C 
HETATM    2  C   UNK N   1      35.647  15.338   9.683  0.00  0.00     0.185 C 
HETATM    3  C   UNK N   1      36.938  13.468   9.313  0.00  0.00     0.140 C 
HETATM    4  N   UNK N   1      36.888  14.701  10.083  0.00  0.00    -0.395 N 
HETATM    5  S   UNK N   1      35.250  12.782   9.160  0.00  0.00    -0.142 SA
HETATM    6  H   UNK N   1      37.573  15.042  10.755  0.00  0.00     0.155 HD
ENDROOT
BRANCH   3   7
HETATM    7  C   UNK N   1      37.853  12.480  10.005  0.00  0.00     0.046 C 
BRANCH   7   8
HETATM    8  C   UNK N   1      37.016  11.405  10.669  0.00  0.00     0.077 C 
BRANCH   8   9
HETATM    9  S   UNK N   1      37.377  11.374  12.445  0.00  0.00    -0.159 SA
BRANCH   9  10
HETATM   10  C   UNK N   1      35.737  12.062  12.840  0.00  0.00     0.184 C 
BRANCH  10  11
HETATM   11  C   UNK N   1      35.805  13.394  13.524  0.00  0.00     0.268 C 
HETATM   12  O   UNK N   1      36.389  14.337  13.000  0.00  0.00    -0.264 OA
BRANCH  11  13
HETATM   13  O   UNK N   1      35.194  13.542  14.722  0.00  0.00    -0.321 OA
BRANCH  13  14
HETATM   14  C   UNK N   1      35.871  13.442  15.916  0.00  0.00     0.174 C 
HETATM   15  C   UNK N   1      34.964  12.820  16.957  0.00  0.00     0.034 C 
ENDBRANCH  13  14
ENDBRANCH  11  13
ENDBRANCH  10  11
ENDBRANCH   9  10
ENDBRANCH   8   9
ENDBRANCH   7   8
ENDBRANCH   3   7
BRANCH   2  16
HETATM   16  C   UNK N   1      35.369  16.580  10.480  0.00  0.00     0.164 C 
HETATM   17  O   UNK N   1      35.483  17.685   9.973  0.00  0.00    -0.648 OA
BRANCH  16  18
HETATM   18  O   UNK N   1      34.963  16.474  11.759  0.00  0.00    -0.775 OA
HETATM   19  H   UNK N   1      34.104  16.159  11.958  0.00  0.00     0.167 HD
ENDBRANCH  16  18
ENDBRANCH   2  16
TORSDOF 9
ENDMDL
MODEL 9
REMARK VINA RESULT:      -4.7     11.904     14.114
REMARK  9 active torsions:
REMARK  status: ('A' for Active; 'I' for Inactive)
REMARK    1  A    between atoms: O_15  and  C_2 
REMARK    2  A    between atoms: C_4  and  C_3 
REMARK    3  A    between atoms: C_8  and  C_3 
REMARK    4  A    between atoms: S_16  and  C_4 
REMARK    5  A    between atoms: C_9  and  C_6 
REMARK    6  A    between atoms: S_16  and  C_6 
REMARK    7  A    between atoms: C_10  and  C_7 
REMARK    8  A    between atoms: O_15  and  C_9 
REMARK    9  A    between atoms: O_14  and  C_10 
ROOT
HETATM    1  C   UNK N   1      34.233  14.922   9.842  0.00  0.00     0.111 C 
HETATM    2  C   UNK N   1      34.745  16.113  10.612  0.00  0.00     0.185 C 
HETATM    3  C   UNK N   1      33.685  17.270   8.927  0.00  0.00     0.140 C 
HETATM    4  N   UNK N   1      34.946  17.177   9.646  0.00  0.00    -0.395 N 
HETATM    5  S   UNK N   1      32.986  15.595   8.713  0.00  0.00    -0.142 SA
HETATM    6  H   UNK N   1      35.785  17.736   9.504  0.00  0.00     0.155 HD
ENDROOT
BRANCH   3   7
HETATM    7  C   UNK N   1      33.921  17.924   7.582  0.00  0.00     0.046 C 
BRANCH   7   8
HETATM    8  C   UNK N   1      33.968  16.855   6.508  0.00  0.00     0.077 C 
BRANCH   8   9
HETATM    9  S   UNK N   1      33.017  17.409   5.068  0.00  0.00    -0.159 SA
BRANCH   9  10
HETATM   10  C   UNK N   1      31.962  15.927   5.133  0.00  0.00     0.184 C 
BRANCH  10  11
HETATM   11  C   UNK N   1      30.642  16.172   5.801  0.00  0.00     0.268 C 
HETATM   12  O   UNK N   1      29.772  15.307   5.803  0.00  0.00    -0.264 OA
BRANCH  11  13
HETATM   13  O   UNK N   1      30.435  17.358   6.418  0.00  0.00    -0.321 OA
BRANCH  13  14
HETATM   14  C   UNK N   1      29.474  17.531   7.388  0.00  0.00     0.174 C 
HETATM   15  C   UNK N   1      30.107  18.147   8.618  0.00  0.00     0.034 C 
ENDBRANCH  13  14
ENDBRANCH  11  13
ENDBRANCH  10  11
ENDBRANCH   9  10
ENDBRANCH   8   9
ENDBRANCH   7   8
ENDBRANCH   3   7
BRANCH   2  16
HETATM   16  C   UNK N   1      36.001  15.792  11.368  0.00  0.00     0.164 C 
HETATM   17  O   UNK N   1      35.949  15.339  12.501  0.00  0.00    -0.648 OA
BRANCH  16  18
HETATM   18  O   UNK N   1      37.198  15.980  10.781  0.00  0.00    -0.775 OA
HETATM   19  H   UNK N   1      37.399  15.556   9.970  0.00  0.00     0.167 HD
ENDBRANCH  16  18
ENDBRANCH   2  16
TORSDOF 9
ENDMDL
