REMARK  7 active torsions:
REMARK  status: ('A' for Active; 'I' for Inactive)
REMARK    1  A    between atoms: C_7  and  C_5 
REMARK    2  A    between atoms: C_9  and  C_5 
REMARK    3  A    between atoms: C_11  and  C_9 
REMARK    4  A    between atoms: C_9  and  N_12 
REMARK    5  A    between atoms: O_15  and  C_11 
REMARK    6  A    between atoms: O_17  and  N_13 
REMARK    7  A    between atoms: O_17  and  O_16 
ROOT
HETATM    1  C   UNK N   1       4.316   1.701   0.317  0.00  0.00     0.001 A 
HETATM    2  C   UNK N   1       4.274   3.109   0.223  0.00  0.00     0.002 A 
HETATM    3  C   UNK N   1       3.134   0.943   0.210  0.00  0.00     0.014 A 
HETATM    4  C   UNK N   1       3.050   3.770   0.024  0.00  0.00     0.033 A 
HETATM    5  C   UNK N   1      -0.158   2.325  -0.339  0.00  0.00     0.134 A 
HETATM    6  C   UNK N   1       0.619   1.180  -0.161  0.00  0.00    -0.025 A 
HETATM    7  C   UNK N   1       1.932   1.621   0.007  0.00  0.00     0.001 A 
HETATM    8  C   UNK N   1       1.901   2.988  -0.080  0.00  0.00     0.075 A 
HETATM    9  N   UNK N   1       0.644   3.411  -0.278  0.00  0.00    -0.201 N 
ENDROOT
BRANCH   6  10
HETATM   10  C   UNK N   1       0.024  -0.208  -0.195  0.00  0.00     0.076 C 
BRANCH  10  11
HETATM   11  C   UNK N   1       0.883  -1.404   0.218  0.00  0.00     0.177 C 
BRANCH  11  12
HETATM   12  C   UNK N   1       0.039  -2.649   0.114  0.00  0.00     0.163 C 
HETATM   13  O   UNK N   1       0.372  -3.569  -0.618  0.00  0.00    -0.648 OA
BRANCH  12  14
HETATM   14  O   UNK N   1      -1.100  -2.750   0.827  0.00  0.00    -0.775 OA
HETATM   15  H   UNK N   1      -1.557  -2.100   1.323  0.00  0.00     0.167 HD
ENDBRANCH  12  14
ENDBRANCH  11  12
BRANCH  11  16
HETATM   16  N   UNK N   1       2.045  -1.527  -0.649  0.00  0.00    -0.417 N 
HETATM   17  H   UNK N   1       2.378  -2.276  -1.256  0.00  0.00     0.150 HD
HETATM   18  H   UNK N   1       2.645  -0.703  -0.649  0.00  0.00     0.150 HD
ENDBRANCH  11  16
ENDBRANCH  10  11
ENDBRANCH   6  10
BRANCH   9  19
HETATM   19  O   UNK N   1       0.245   4.698  -0.421  0.00  0.00    -0.108 OA
BRANCH  19  20
HETATM   20  O   UNK N   1       0.062   5.137   0.809  0.00  0.00    -0.226 OA
HETATM   21  H   UNK N   1       0.275   5.414   1.714  0.00  0.00     0.256 HD
ENDBRANCH  19  20
ENDBRANCH   9  19
TORSDOF 7
