MODEL 1
REMARK VINA RESULT:      -6.8      0.000      0.000
REMARK  10 active torsions:
REMARK  status: ('A' for Active; 'I' for Inactive)
REMARK    1  A    between atoms: C_7  and  C_3 
REMARK    2  A    between atoms: C_12  and  C_7 
REMARK    3  A    between atoms: C_7  and  N_17 
REMARK    4  A    between atoms: C_10  and  C_8 
REMARK    5  A    between atoms: C_13  and  C_9 
REMARK    6  A    between atoms: C_11  and  C_10 
REMARK    7  A    between atoms: C_11  and  O_25 
REMARK    8  A    between atoms: O_26  and  C_13 
REMARK    9  A    between atoms: N_15  and  C_14 
REMARK   10  A    between atoms: O_28  and  N_22 
ROOT
HETATM    1  C   UNK N   1      24.010  17.433   4.105  0.00  0.00     0.168 C 
HETATM    2  N   UNK N   1      25.222  17.893   4.148  0.00  0.00    -0.355 N 
ATOM      3  HN  UNK N   1      25.930  17.362   3.639  1.00  0.00     0.162 HD
ENDROOT
BRANCH   1   4
HETATM    4  C   UNK N   1      22.837  18.118   4.711  0.00  0.00     0.132 C 
HETATM    5  N   UNK N   1      22.640  17.947   5.979  0.00  0.00    -0.261 N 
ATOM      6  HN  UNK N   1      23.311  17.391   6.508  1.00  0.00     0.194 HD
BRANCH   4   7
HETATM    7  C   UNK N   1      21.823  18.807   3.848  0.00  0.00     0.074 A 
HETATM    8  C   UNK N   1      22.134  19.948   3.070  0.00  0.00     0.085 A 
HETATM    9  S   UNK N   1      20.762  20.257   2.185  0.00  0.00    -0.064 SA
HETATM   10  C   UNK N   1      19.853  19.013   2.747  0.00  0.00     0.142 A 
HETATM   11  N   UNK N   1      20.554  18.295   3.649  0.00  0.00    -0.335 N 
HETATM   12  H   UNK N   1      20.204  17.499   4.112  0.00  0.00     0.168 HD
BRANCH  10  13
HETATM   13  N   UNK N   1      18.674  18.713   2.358  0.00  0.00    -0.380 N 
HETATM   14  H   UNK N   1      17.892  18.502   2.916  0.00  0.00     0.158 HD
ATOM     15  HN  UNK N   1      18.525  18.691   1.348  1.00  0.00     0.158 HD
ENDBRANCH  10  13
ENDBRANCH   4   7
BRANCH   5  16
HETATM   16  O   UNK N   1      21.608  18.461   6.613  0.00  0.00    -0.285 OA
HETATM   17  C   UNK N   1      20.700  17.639   7.229  0.00  0.00     0.237 C 
ENDBRANCH   5  16
ENDBRANCH   1   4
BRANCH   1  18
HETATM   18  O   UNK N   1      23.816  16.211   3.575  0.00  0.00    -0.344 OA
HETATM   19  H   UNK N   1      23.393  15.395   3.392  0.00  0.00     0.219 HD
ENDBRANCH   1  18
BRANCH   2  20
HETATM   20  C   UNK N   1      25.683  19.083   4.845  0.00  0.00     0.177 C 
BRANCH  20  21
HETATM   21  C   UNK N   1      25.474  20.297   3.986  0.00  0.00     0.259 C 
HETATM   22  O   UNK N   1      26.313  20.638   3.167  0.00  0.00    -0.305 OA
ENDBRANCH  20  21
BRANCH  20  23
HETATM   23  C   UNK N   1      27.178  18.891   5.166  0.00  0.00     0.173 C 
HETATM   24  N   UNK N   1      27.295  18.705   6.607  0.00  0.00    -0.368 N 
HETATM   25  C   UNK N   1      28.277  18.121   7.221  0.00  0.00     0.109 C 
ATOM     26  HN  UNK N   1      26.537  19.068   7.184  1.00  0.00     0.161 HD
HETATM   27  C   UNK N   1      29.426  17.547   6.445  0.00  0.00    -0.025 C 
HETATM   28  C   UNK N   1      30.382  16.820   7.023  0.00  0.00     0.022 C 
HETATM   29  C   UNK N   1      29.495  17.758   4.971  0.00  0.00     0.116 C 
HETATM   30  S   UNK N   1      27.860  17.438   4.266  0.00  0.00    -0.137 SA
BRANCH  25  31
HETATM   31  C   UNK N   1      28.179  17.987   8.703  0.00  0.00     0.193 C 
HETATM   32  O   UNK N   1      28.854  18.707   9.421  0.00  0.00    -0.645 OA
BRANCH  31  33
HETATM   33  O   UNK N   1      27.350  17.090   9.270  0.00  0.00    -0.772 OA
HETATM   34  H   UNK N   1      26.901  17.301  10.064  0.00  0.00     0.167 HD
ENDBRANCH  31  33
ENDBRANCH  25  31
ENDBRANCH  20  23
ENDBRANCH   2  20
TORSDOF 10
ENDMDL
MODEL 2
REMARK VINA RESULT:      -6.6      6.342     11.328
REMARK  10 active torsions:
REMARK  status: ('A' for Active; 'I' for Inactive)
REMARK    1  A    between atoms: C_7  and  C_3 
REMARK    2  A    between atoms: C_12  and  C_7 
REMARK    3  A    between atoms: C_7  and  N_17 
REMARK    4  A    between atoms: C_10  and  C_8 
REMARK    5  A    between atoms: C_13  and  C_9 
REMARK    6  A    between atoms: C_11  and  C_10 
REMARK    7  A    between atoms: C_11  and  O_25 
REMARK    8  A    between atoms: O_26  and  C_13 
REMARK    9  A    between atoms: N_15  and  C_14 
REMARK   10  A    between atoms: O_28  and  N_22 
ROOT
HETATM    1  C   UNK N   1      33.324  15.086   9.886  0.00  0.00     0.168 C 
HETATM    2  N   UNK N   1      33.086  16.210   9.285  0.00  0.00    -0.355 N 
ATOM      3  HN  UNK N   1      32.927  17.022   9.883  1.00  0.00     0.162 HD
ENDROOT
BRANCH   1   4
HETATM    4  C   UNK N   1      33.665  13.820   9.182  0.00  0.00     0.132 C 
HETATM    5  N   UNK N   1      32.718  12.951   9.032  0.00  0.00    -0.261 N 
ATOM      6  HN  UNK N   1      31.781  13.185   9.361  1.00  0.00     0.194 HD
BRANCH   4   7
HETATM    7  C   UNK N   1      35.088  13.492   8.845  0.00  0.00     0.074 A 
HETATM    8  C   UNK N   1      35.811  14.177   7.840  0.00  0.00     0.085 A 
HETATM    9  S   UNK N   1      37.358  13.580   7.933  0.00  0.00    -0.064 SA
HETATM   10  C   UNK N   1      37.117  12.538   9.177  0.00  0.00     0.142 A 
HETATM   11  N   UNK N   1      35.832  12.591   9.585  0.00  0.00    -0.335 N 
HETATM   12  H   UNK N   1      35.466  12.051  10.324  0.00  0.00     0.168 HD
BRANCH  10  13
HETATM   13  N   UNK N   1      38.013  11.817   9.733  0.00  0.00    -0.380 N 
HETATM   14  H   UNK N   1      38.393  10.971   9.404  0.00  0.00     0.158 HD
ATOM     15  HN  UNK N   1      38.378  12.159  10.623  1.00  0.00     0.158 HD
ENDBRANCH  10  13
ENDBRANCH   4   7
BRANCH   5  16
HETATM   16  O   UNK N   1      32.913  11.777   8.470  0.00  0.00    -0.285 OA
HETATM   17  C   UNK N   1      32.804  10.632   9.216  0.00  0.00     0.237 C 
ENDBRANCH   5  16
ENDBRANCH   1   4
BRANCH   1  18
HETATM   18  O   UNK N   1      33.145  15.030  11.219  0.00  0.00    -0.344 OA
HETATM   19  H   UNK N   1      32.836  15.271  12.070  0.00  0.00     0.219 HD
ENDBRANCH   1  18
BRANCH   2  20
HETATM   20  C   UNK N   1      33.021  16.440   7.850  0.00  0.00     0.177 C 
BRANCH  20  21
HETATM   21  C   UNK N   1      33.521  17.818   7.526  0.00  0.00     0.259 C 
HETATM   22  O   UNK N   1      34.524  17.978   6.849  0.00  0.00    -0.305 OA
ENDBRANCH  20  21
BRANCH  20  23
HETATM   23  C   UNK N   1      31.552  16.274   7.414  0.00  0.00     0.173 C 
HETATM   24  N   UNK N   1      30.725  16.973   8.388  0.00  0.00    -0.368 N 
HETATM   25  C   UNK N   1      29.525  17.420   8.187  0.00  0.00     0.109 C 
ATOM     26  HN  UNK N   1      31.126  17.123   9.314  1.00  0.00     0.161 HD
HETATM   27  C   UNK N   1      28.866  17.252   6.848  0.00  0.00    -0.025 C 
HETATM   28  C   UNK N   1      27.694  17.817   6.557  0.00  0.00     0.022 C 
HETATM   29  C   UNK N   1      29.550  16.461   5.786  0.00  0.00     0.116 C 
HETATM   30  S   UNK N   1      31.289  16.961   5.727  0.00  0.00    -0.137 SA
BRANCH  25  31
HETATM   31  C   UNK N   1      28.868  18.157   9.304  0.00  0.00     0.193 C 
HETATM   32  O   UNK N   1      29.545  18.830  10.066  0.00  0.00    -0.645 OA
BRANCH  31  33
HETATM   33  O   UNK N   1      27.535  18.105   9.486  0.00  0.00    -0.772 OA
HETATM   34  H   UNK N   1      27.106  18.753  10.009  0.00  0.00     0.167 HD
ENDBRANCH  31  33
ENDBRANCH  25  31
ENDBRANCH  20  23
ENDBRANCH   2  20
TORSDOF 10
ENDMDL
MODEL 3
REMARK VINA RESULT:      -6.5      3.841      6.324
REMARK  10 active torsions:
REMARK  status: ('A' for Active; 'I' for Inactive)
REMARK    1  A    between atoms: C_7  and  C_3 
REMARK    2  A    between atoms: C_12  and  C_7 
REMARK    3  A    between atoms: C_7  and  N_17 
REMARK    4  A    between atoms: C_10  and  C_8 
REMARK    5  A    between atoms: C_13  and  C_9 
REMARK    6  A    between atoms: C_11  and  C_10 
REMARK    7  A    between atoms: C_11  and  O_25 
REMARK    8  A    between atoms: O_26  and  C_13 
REMARK    9  A    between atoms: N_15  and  C_14 
REMARK   10  A    between atoms: O_28  and  N_22 
ROOT
HETATM    1  C   UNK N   1      20.921  17.871   6.721  0.00  0.00     0.168 C 
HETATM    2  N   UNK N   1      20.346  16.757   7.054  0.00  0.00    -0.355 N 
ATOM      3  HN  UNK N   1      19.731  16.786   7.867  1.00  0.00     0.162 HD
ENDROOT
BRANCH   1   4
HETATM    4  C   UNK N   1      21.779  18.040   5.517  0.00  0.00     0.132 C 
HETATM    5  N   UNK N   1      23.055  17.888   5.671  0.00  0.00    -0.261 N 
ATOM      6  HN  UNK N   1      23.409  17.623   6.590  1.00  0.00     0.194 HD
BRANCH   4   7
HETATM    7  C   UNK N   1      21.202  18.558   4.234  0.00  0.00     0.074 A 
HETATM    8  C   UNK N   1      20.221  17.851   3.499  0.00  0.00     0.085 A 
HETATM    9  S   UNK N   1      19.789  18.870   2.260  0.00  0.00    -0.064 SA
HETATM   10  C   UNK N   1      20.773  20.121   2.651  0.00  0.00     0.142 A 
HETATM   11  N   UNK N   1      21.491  19.822   3.754  0.00  0.00    -0.335 N 
HETATM   12  H   UNK N   1      22.143  20.433   4.170  0.00  0.00     0.168 HD
BRANCH  10  13
HETATM   13  N   UNK N   1      20.826  21.247   2.049  0.00  0.00    -0.380 N 
HETATM   14  H   UNK N   1      20.170  21.624   1.420  0.00  0.00     0.158 HD
ATOM     15  HN  UNK N   1      21.645  21.825   2.245  1.00  0.00     0.158 HD
ENDBRANCH  10  13
ENDBRANCH   4   7
BRANCH   5  16
HETATM   16  O   UNK N   1      23.915  18.062   4.691  0.00  0.00    -0.285 OA
HETATM   17  C   UNK N   1      24.912  18.996   4.808  0.00  0.00     0.237 C 
ENDBRANCH   5  16
ENDBRANCH   1   4
BRANCH   1  18
HETATM   18  O   UNK N   1      20.829  18.909   7.572  0.00  0.00    -0.344 OA
HETATM   19  H   UNK N   1      21.023  19.457   8.307  0.00  0.00     0.219 HD
ENDBRANCH   1  18
BRANCH   2  20
HETATM   20  C   UNK N   1      20.484  15.469   6.391  0.00  0.00     0.177 C 
BRANCH  20  21
HETATM   21  C   UNK N   1      19.270  15.190   5.551  0.00  0.00     0.259 C 
HETATM   22  O   UNK N   1      18.237  15.817   5.715  0.00  0.00    -0.305 OA
ENDBRANCH  20  21
BRANCH  20  23
HETATM   23  C   UNK N   1      20.652  14.395   7.484  0.00  0.00     0.173 C 
HETATM   24  N   UNK N   1      22.018  13.894   7.397  0.00  0.00    -0.368 N 
HETATM   25  C   UNK N   1      22.677  13.313   8.351  0.00  0.00     0.109 C 
ATOM     26  HN  UNK N   1      22.498  14.010   6.506  1.00  0.00     0.161 HD
HETATM   27  C   UNK N   1      22.048  13.115   9.699  0.00  0.00    -0.025 C 
HETATM   28  C   UNK N   1      22.735  12.651  10.743  0.00  0.00     0.022 C 
HETATM   29  C   UNK N   1      20.617  13.480   9.903  0.00  0.00     0.116 C 
HETATM   30  S   UNK N   1      20.323  15.100   9.152  0.00  0.00    -0.137 SA
BRANCH  25  31
HETATM   31  C   UNK N   1      24.088  12.921   8.073  0.00  0.00     0.193 C 
HETATM   32  O   UNK N   1      24.321  11.872   7.492  0.00  0.00    -0.645 OA
BRANCH  31  33
HETATM   33  O   UNK N   1      25.117  13.707   8.440  0.00  0.00    -0.772 OA
HETATM   34  H   UNK N   1      25.000  14.633   8.511  0.00  0.00     0.167 HD
ENDBRANCH  31  33
ENDBRANCH  25  31
ENDBRANCH  20  23
ENDBRANCH   2  20
TORSDOF 10
ENDMDL
MODEL 4
REMARK VINA RESULT:      -6.5      4.148      6.234
REMARK  10 active torsions:
REMARK  status: ('A' for Active; 'I' for Inactive)
REMARK    1  A    between atoms: C_7  and  C_3 
REMARK    2  A    between atoms: C_12  and  C_7 
REMARK    3  A    between atoms: C_7  and  N_17 
REMARK    4  A    between atoms: C_10  and  C_8 
REMARK    5  A    between atoms: C_13  and  C_9 
REMARK    6  A    between atoms: C_11  and  C_10 
REMARK    7  A    between atoms: C_11  and  O_25 
REMARK    8  A    between atoms: O_26  and  C_13 
REMARK    9  A    between atoms: N_15  and  C_14 
REMARK   10  A    between atoms: O_28  and  N_22 
ROOT
HETATM    1  C   UNK N   1      21.404  17.754   6.497  0.00  0.00     0.168 C 
HETATM    2  N   UNK N   1      21.278  16.564   6.998  0.00  0.00    -0.355 N 
ATOM      3  HN  UNK N   1      20.666  16.473   7.809  1.00  0.00     0.162 HD
ENDROOT
BRANCH   1   4
HETATM    4  C   UNK N   1      22.181  18.063   5.266  0.00  0.00     0.132 C 
HETATM    5  N   UNK N   1      23.427  18.378   5.415  0.00  0.00    -0.261 N 
ATOM      6  HN  UNK N   1      23.828  18.362   6.353  1.00  0.00     0.194 HD
BRANCH   4   7
HETATM    7  C   UNK N   1      21.493  18.195   3.941  0.00  0.00     0.074 A 
HETATM    8  C   UNK N   1      20.739  17.145   3.365  0.00  0.00     0.085 A 
HETATM    9  S   UNK N   1      20.057  17.798   1.999  0.00  0.00    -0.064 SA
HETATM   10  C   UNK N   1      20.671  19.311   2.149  0.00  0.00     0.142 A 
HETATM   11  N   UNK N   1      21.437  19.396   3.257  0.00  0.00    -0.335 N 
HETATM   12  H   UNK N   1      21.901  20.215   3.545  0.00  0.00     0.168 HD
BRANCH  10  13
HETATM   13  N   UNK N   1      20.425  20.298   1.375  0.00  0.00    -0.380 N 
HETATM   14  H   UNK N   1      19.554  20.572   1.010  0.00  0.00     0.158 HD
ATOM     15  HN  UNK N   1      21.227  20.869   1.104  1.00  0.00     0.158 HD
ENDBRANCH  10  13
ENDBRANCH   4   7
BRANCH   5  16
HETATM   16  O   UNK N   1      24.199  18.719   4.406  0.00  0.00    -0.285 OA
HETATM   17  C   UNK N   1      25.221  17.894   4.013  0.00  0.00     0.237 C 
ENDBRANCH   5  16
ENDBRANCH   1   4
BRANCH   1  18
HETATM   18  O   UNK N   1      20.894  18.789   7.190  0.00  0.00    -0.344 OA
HETATM   19  H   UNK N   1      20.864  19.514   7.783  0.00  0.00     0.219 HD
ENDBRANCH   1  18
BRANCH   2  20
HETATM   20  C   UNK N   1      21.916  15.344   6.528  0.00  0.00     0.177 C 
BRANCH  20  21
HETATM   21  C   UNK N   1      20.877  14.371   6.048  0.00  0.00     0.259 C 
HETATM   22  O   UNK N   1      19.766  14.341   6.553  0.00  0.00    -0.305 OA
ENDBRANCH  20  21
BRANCH  20  23
HETATM   23  C   UNK N   1      22.720  14.752   7.701  0.00  0.00     0.173 C 
HETATM   24  N   UNK N   1      21.762  14.248   8.677  0.00  0.00    -0.368 N 
HETATM   25  C   UNK N   1      21.995  13.340   9.573  0.00  0.00     0.109 C 
ATOM     26  HN  UNK N   1      20.824  14.647   8.654  1.00  0.00     0.161 HD
HETATM   27  C   UNK N   1      23.346  12.692   9.667  0.00  0.00    -0.025 C 
HETATM   28  C   UNK N   1      23.585  11.661  10.477  0.00  0.00     0.022 C 
HETATM   29  C   UNK N   1      24.457  13.183   8.803  0.00  0.00     0.116 C 
HETATM   30  S   UNK N   1      23.827  13.400   7.121  0.00  0.00    -0.137 SA
BRANCH  25  31
HETATM   31  C   UNK N   1      20.859  12.927  10.445  0.00  0.00     0.193 C 
HETATM   32  O   UNK N   1      19.750  13.406  10.263  0.00  0.00    -0.645 OA
BRANCH  31  33
HETATM   33  O   UNK N   1      21.026  12.024  11.430  0.00  0.00    -0.772 OA
HETATM   34  H   UNK N   1      21.878  11.682  11.615  0.00  0.00     0.167 HD
ENDBRANCH  31  33
ENDBRANCH  25  31
ENDBRANCH  20  23
ENDBRANCH   2  20
TORSDOF 10
ENDMDL
MODEL 5
REMARK VINA RESULT:      -6.4      7.643     11.019
REMARK  10 active torsions:
REMARK  status: ('A' for Active; 'I' for Inactive)
REMARK    1  A    between atoms: C_7  and  C_3 
REMARK    2  A    between atoms: C_12  and  C_7 
REMARK    3  A    between atoms: C_7  and  N_17 
REMARK    4  A    between atoms: C_10  and  C_8 
REMARK    5  A    between atoms: C_13  and  C_9 
REMARK    6  A    between atoms: C_11  and  C_10 
REMARK    7  A    between atoms: C_11  and  O_25 
REMARK    8  A    between atoms: O_26  and  C_13 
REMARK    9  A    between atoms: N_15  and  C_14 
REMARK   10  A    between atoms: O_28  and  N_22 
ROOT
HETATM    1  C   UNK N   1      34.334  17.874   8.332  0.00  0.00     0.168 C 
HETATM    2  N   UNK N   1      34.931  16.965   9.038  0.00  0.00    -0.355 N 
ATOM      3  HN  UNK N   1      35.721  17.274   9.606  1.00  0.00     0.162 HD
ENDROOT
BRANCH   1   4
HETATM    4  C   UNK N   1      33.116  17.628   7.514  0.00  0.00     0.132 C 
HETATM    5  N   UNK N   1      31.972  17.714   8.114  0.00  0.00    -0.261 N 
ATOM      6  HN  UNK N   1      31.953  17.983   9.097  1.00  0.00     0.194 HD
BRANCH   4   7
HETATM    7  C   UNK N   1      33.227  17.110   6.112  0.00  0.00     0.074 A 
HETATM    8  C   UNK N   1      33.977  15.956   5.783  0.00  0.00     0.085 A 
HETATM    9  S   UNK N   1      33.683  15.693   4.169  0.00  0.00    -0.064 SA
HETATM   10  C   UNK N   1      32.663  16.953   3.923  0.00  0.00     0.142 A 
HETATM   11  N   UNK N   1      32.495  17.646   5.068  0.00  0.00    -0.335 N 
HETATM   12  H   UNK N   1      31.919  18.441   5.152  0.00  0.00     0.168 HD
BRANCH  10  13
HETATM   13  N   UNK N   1      32.057  17.221   2.831  0.00  0.00    -0.380 N 
HETATM   14  H   UNK N   1      31.366  17.906   2.679  0.00  0.00     0.158 HD
ATOM     15  HN  UNK N   1      32.320  16.660   2.020  1.00  0.00     0.158 HD
ENDBRANCH  10  13
ENDBRANCH   4   7
BRANCH   5  16
HETATM   16  O   UNK N   1      30.831  17.470   7.506  0.00  0.00    -0.285 OA
HETATM   17  C   UNK N   1      29.649  17.870   8.075  0.00  0.00     0.237 C 
ENDBRANCH   5  16
ENDBRANCH   1   4
BRANCH   1  18
HETATM   18  O   UNK N   1      34.911  19.087   8.244  0.00  0.00    -0.344 OA
HETATM   19  H   UNK N   1      35.048  19.972   7.968  0.00  0.00     0.219 HD
ENDBRANCH   1  18
BRANCH   2  20
HETATM   20  C   UNK N   1      34.598  15.551   9.108  0.00  0.00     0.177 C 
BRANCH  20  21
HETATM   21  C   UNK N   1      33.414  15.345  10.009  0.00  0.00     0.259 C 
HETATM   22  O   UNK N   1      32.347  14.955   9.562  0.00  0.00    -0.305 OA
ENDBRANCH  20  21
BRANCH  20  23
HETATM   23  C   UNK N   1      35.832  14.802   9.647  0.00  0.00     0.173 C 
HETATM   24  N   UNK N   1      35.748  14.810  11.101  0.00  0.00    -0.368 N 
HETATM   25  C   UNK N   1      36.329  13.972  11.902  0.00  0.00     0.109 C 
ATOM     26  HN  UNK N   1      35.181  15.542  11.528  1.00  0.00     0.161 HD
HETATM   27  C   UNK N   1      37.171  12.857  11.354  0.00  0.00    -0.025 C 
HETATM   28  C   UNK N   1      37.670  11.895  12.132  0.00  0.00     0.022 C 
HETATM   29  C   UNK N   1      37.437  12.787   9.889  0.00  0.00     0.116 C 
HETATM   30  S   UNK N   1      35.882  13.076   9.008  0.00  0.00    -0.137 SA
BRANCH  25  31
HETATM   31  C   UNK N   1      36.071  14.123  13.362  0.00  0.00     0.193 C 
HETATM   32  O   UNK N   1      35.062  13.638  13.851  0.00  0.00    -0.645 OA
BRANCH  31  33
HETATM   33  O   UNK N   1      36.934  14.777  14.160  0.00  0.00    -0.772 OA
HETATM   34  H   UNK N   1      36.878  15.708  14.253  0.00  0.00     0.167 HD
ENDBRANCH  31  33
ENDBRANCH  25  31
ENDBRANCH  20  23
ENDBRANCH   2  20
TORSDOF 10
ENDMDL
MODEL 6
REMARK VINA RESULT:      -6.3      2.989      7.324
REMARK  10 active torsions:
REMARK  status: ('A' for Active; 'I' for Inactive)
REMARK    1  A    between atoms: C_7  and  C_3 
REMARK    2  A    between atoms: C_12  and  C_7 
REMARK    3  A    between atoms: C_7  and  N_17 
REMARK    4  A    between atoms: C_10  and  C_8 
REMARK    5  A    between atoms: C_13  and  C_9 
REMARK    6  A    between atoms: C_11  and  C_10 
REMARK    7  A    between atoms: C_11  and  O_25 
REMARK    8  A    between atoms: O_26  and  C_13 
REMARK    9  A    between atoms: N_15  and  C_14 
REMARK   10  A    between atoms: O_28  and  N_22 
ROOT
HETATM    1  C   UNK N   1      26.528  18.841   5.134  0.00  0.00     0.168 C 
HETATM    2  N   UNK N   1      25.553  19.567   4.683  0.00  0.00    -0.355 N 
ATOM      3  HN  UNK N   1      25.264  20.354   5.265  1.00  0.00     0.162 HD
ENDROOT
BRANCH   1   4
HETATM    4  C   UNK N   1      27.141  17.710   4.385  0.00  0.00     0.132 C 
HETATM    5  N   UNK N   1      28.284  17.925   3.817  0.00  0.00    -0.261 N 
ATOM      6  HN  UNK N   1      28.728  18.834   3.939  1.00  0.00     0.194 HD
BRANCH   4   7
HETATM    7  C   UNK N   1      26.369  16.448   4.139  0.00  0.00     0.074 A 
HETATM    8  C   UNK N   1      25.794  15.689   5.186  0.00  0.00     0.085 A 
HETATM    9  S   UNK N   1      24.929  14.490   4.429  0.00  0.00    -0.064 SA
HETATM   10  C   UNK N   1      25.257  14.925   2.882  0.00  0.00     0.142 A 
HETATM   11  N   UNK N   1      26.053  16.015   2.864  0.00  0.00    -0.335 N 
HETATM   12  H   UNK N   1      26.372  16.451   2.040  0.00  0.00     0.168 HD
BRANCH  10  13
HETATM   13  N   UNK N   1      24.790  14.366   1.833  0.00  0.00    -0.380 N 
HETATM   14  H   UNK N   1      23.941  13.878   1.740  0.00  0.00     0.158 HD
ATOM     15  HN  UNK N   1      25.366  14.432   0.993  1.00  0.00     0.158 HD
ENDBRANCH  10  13
ENDBRANCH   4   7
BRANCH   5  16
HETATM   16  O   UNK N   1      28.896  17.017   3.088  0.00  0.00    -0.285 OA
HETATM   17  C   UNK N   1      30.003  16.374   3.579  0.00  0.00     0.237 C 
ENDBRANCH   5  16
ENDBRANCH   1   4
BRANCH   1  18
HETATM   18  O   UNK N   1      26.939  19.048   6.398  0.00  0.00    -0.344 OA
HETATM   19  H   UNK N   1      26.918  19.052   7.335  0.00  0.00     0.219 HD
ENDBRANCH   1  18
BRANCH   2  20
HETATM   20  C   UNK N   1      24.827  19.382   3.436  0.00  0.00     0.177 C 
BRANCH  20  21
HETATM   21  C   UNK N   1      25.179  20.474   2.467  0.00  0.00     0.259 C 
HETATM   22  O   UNK N   1      26.232  21.083   2.566  0.00  0.00    -0.305 OA
ENDBRANCH  20  21
BRANCH  20  23
HETATM   23  C   UNK N   1      23.321  19.405   3.762  0.00  0.00     0.173 C 
HETATM   24  N   UNK N   1      22.642  20.055   2.649  0.00  0.00    -0.368 N 
HETATM   25  C   UNK N   1      21.392  19.916   2.333  0.00  0.00     0.109 C 
ATOM     26  HN  UNK N   1      23.201  20.677   2.066  1.00  0.00     0.161 HD
HETATM   27  C   UNK N   1      20.503  19.009   3.132  0.00  0.00    -0.025 C 
HETATM   28  C   UNK N   1      19.253  18.731   2.760  0.00  0.00     0.022 C 
HETATM   29  C   UNK N   1      21.032  18.360   4.365  0.00  0.00     0.116 C 
HETATM   30  S   UNK N   1      22.677  17.697   4.006  0.00  0.00    -0.137 SA
BRANCH  25  31
HETATM   31  C   UNK N   1      20.905  20.633   1.120  0.00  0.00     0.193 C 
HETATM   32  O   UNK N   1      20.721  21.839   1.163  0.00  0.00    -0.645 OA
BRANCH  31  33
HETATM   33  O   UNK N   1      20.671  19.977  -0.032  0.00  0.00    -0.772 OA
HETATM   34  H   UNK N   1      20.065  19.263  -0.053  0.00  0.00     0.167 HD
ENDBRANCH  31  33
ENDBRANCH  25  31
ENDBRANCH  20  23
ENDBRANCH   2  20
TORSDOF 10
ENDMDL
MODEL 7
REMARK VINA RESULT:      -6.2      4.527      6.499
REMARK  10 active torsions:
REMARK  status: ('A' for Active; 'I' for Inactive)
REMARK    1  A    between atoms: C_7  and  C_3 
REMARK    2  A    between atoms: C_12  and  C_7 
REMARK    3  A    between atoms: C_7  and  N_17 
REMARK    4  A    between atoms: C_10  and  C_8 
REMARK    5  A    between atoms: C_13  and  C_9 
REMARK    6  A    between atoms: C_11  and  C_10 
REMARK    7  A    between atoms: C_11  and  O_25 
REMARK    8  A    between atoms: O_26  and  C_13 
REMARK    9  A    between atoms: N_15  and  C_14 
REMARK   10  A    between atoms: O_28  and  N_22 
ROOT
HETATM    1  C   UNK N   1      22.643  16.303   5.704  0.00  0.00     0.168 C 
HETATM    2  N   UNK N   1      21.997  15.742   6.678  0.00  0.00    -0.355 N 
ATOM      3  HN  UNK N   1      22.420  15.807   7.604  1.00  0.00     0.162 HD
ENDROOT
BRANCH   1   4
HETATM    4  C   UNK N   1      22.139  16.385   4.306  0.00  0.00     0.132 C 
HETATM    5  N   UNK N   1      22.553  15.486   3.472  0.00  0.00    -0.261 N 
ATOM      6  HN  UNK N   1      23.166  14.746   3.814  1.00  0.00     0.194 HD
BRANCH   4   7
HETATM    7  C   UNK N   1      21.349  17.573   3.847  0.00  0.00     0.074 A 
HETATM    8  C   UNK N   1      21.890  18.880   3.805  0.00  0.00     0.085 A 
HETATM    9  S   UNK N   1      20.714  19.816   3.099  0.00  0.00    -0.064 SA
HETATM   10  C   UNK N   1      19.607  18.630   2.854  0.00  0.00     0.142 A 
HETATM   11  N   UNK N   1      20.082  17.450   3.305  0.00  0.00    -0.335 N 
HETATM   12  H   UNK N   1      19.585  16.601   3.255  0.00  0.00     0.168 HD
BRANCH  10  13
HETATM   13  N   UNK N   1      18.480  18.769   2.268  0.00  0.00    -0.380 N 
HETATM   14  H   UNK N   1      18.124  18.242   1.518  0.00  0.00     0.158 HD
ATOM     15  HN  UNK N   1      17.878  19.514   2.622  1.00  0.00     0.158 HD
ENDBRANCH  10  13
ENDBRANCH   4   7
BRANCH   5  16
HETATM   16  O   UNK N   1      22.215  15.487   2.201  0.00  0.00    -0.285 OA
HETATM   17  C   UNK N   1      22.054  14.301   1.532  0.00  0.00     0.237 C 
ENDBRANCH   5  16
ENDBRANCH   1   4
BRANCH   1  18
HETATM   18  O   UNK N   1      23.893  16.742   5.944  0.00  0.00    -0.344 OA
HETATM   19  H   UNK N   1      24.805  16.902   5.803  0.00  0.00     0.219 HD
ENDBRANCH   1  18
BRANCH   2  20
HETATM   20  C   UNK N   1      20.733  15.027   6.593  0.00  0.00     0.177 C 
BRANCH  20  21
HETATM   21  C   UNK N   1      19.587  15.994   6.687  0.00  0.00     0.259 C 
HETATM   22  O   UNK N   1      18.679  15.971   5.872  0.00  0.00    -0.305 OA
ENDBRANCH  20  21
BRANCH  20  23
HETATM   23  C   UNK N   1      20.688  14.011   7.751  0.00  0.00     0.173 C 
HETATM   24  N   UNK N   1      21.938  13.264   7.725  0.00  0.00    -0.368 N 
HETATM   25  C   UNK N   1      22.469  12.632   8.726  0.00  0.00     0.109 C 
ATOM     26  HN  UNK N   1      22.441  13.233   6.838  1.00  0.00     0.161 HD
HETATM   27  C   UNK N   1      21.800  12.639  10.069  0.00  0.00    -0.025 C 
HETATM   28  C   UNK N   1      22.378  12.123  11.154  0.00  0.00     0.022 C 
HETATM   29  C   UNK N   1      20.459  13.273  10.220  0.00  0.00     0.116 C 
HETATM   30  S   UNK N   1      20.478  14.869   9.366  0.00  0.00    -0.137 SA
BRANCH  25  31
HETATM   31  C   UNK N   1      23.785  11.970   8.502  0.00  0.00     0.193 C 
HETATM   32  O   UNK N   1      24.816  12.612   8.637  0.00  0.00    -0.645 OA
BRANCH  31  33
HETATM   33  O   UNK N   1      23.864  10.670   8.163  0.00  0.00    -0.772 OA
HETATM   34  H   UNK N   1      24.676  10.310   7.864  0.00  0.00     0.167 HD
ENDBRANCH  31  33
ENDBRANCH  25  31
ENDBRANCH  20  23
ENDBRANCH   2  20
TORSDOF 10
ENDMDL
MODEL 8
REMARK VINA RESULT:      -6.1      7.610     11.598
REMARK  10 active torsions:
REMARK  status: ('A' for Active; 'I' for Inactive)
REMARK    1  A    between atoms: C_7  and  C_3 
REMARK    2  A    between atoms: C_12  and  C_7 
REMARK    3  A    between atoms: C_7  and  N_17 
REMARK    4  A    between atoms: C_10  and  C_8 
REMARK    5  A    between atoms: C_13  and  C_9 
REMARK    6  A    between atoms: C_11  and  C_10 
REMARK    7  A    between atoms: C_11  and  O_25 
REMARK    8  A    between atoms: O_26  and  C_13 
REMARK    9  A    between atoms: N_15  and  C_14 
REMARK   10  A    between atoms: O_28  and  N_22 
ROOT
HETATM    1  C   UNK N   1      32.223  15.410   9.667  0.00  0.00     0.168 C 
HETATM    2  N   UNK N   1      32.196  16.460   8.906  0.00  0.00    -0.355 N 
ATOM      3  HN  UNK N   1      31.507  17.175   9.139  1.00  0.00     0.162 HD
ENDROOT
BRANCH   1   4
HETATM    4  C   UNK N   1      33.215  14.309   9.534  0.00  0.00     0.132 C 
HETATM    5  N   UNK N   1      32.824  13.227   8.940  0.00  0.00    -0.261 N 
ATOM      6  HN  UNK N   1      31.879  13.192   8.558  1.00  0.00     0.194 HD
BRANCH   4   7
HETATM    7  C   UNK N   1      34.538  14.383  10.235  0.00  0.00     0.074 A 
HETATM    8  C   UNK N   1      34.674  14.184  11.630  0.00  0.00     0.085 A 
HETATM    9  S   UNK N   1      36.310  14.210  11.915  0.00  0.00    -0.064 SA
HETATM   10  C   UNK N   1      36.799  14.442  10.367  0.00  0.00     0.142 A 
HETATM   11  N   UNK N   1      35.730  14.515   9.546  0.00  0.00    -0.335 N 
HETATM   12  H   UNK N   1      35.791  14.646   8.572  0.00  0.00     0.168 HD
BRANCH  10  13
HETATM   13  N   UNK N   1      38.011  14.488   9.964  0.00  0.00    -0.380 N 
HETATM   14  H   UNK N   1      38.828  14.407  10.507  0.00  0.00     0.158 HD
ATOM     15  HN  UNK N   1      38.148  14.626   8.962  1.00  0.00     0.158 HD
ENDBRANCH  10  13
ENDBRANCH   4   7
BRANCH   5  16
HETATM   16  O   UNK N   1      33.597  12.171   8.809  0.00  0.00    -0.285 OA
HETATM   17  C   UNK N   1      33.268  10.997   9.436  0.00  0.00     0.237 C 
ENDBRANCH   5  16
ENDBRANCH   1   4
BRANCH   1  18
HETATM   18  O   UNK N   1      31.229  15.251  10.560  0.00  0.00    -0.344 OA
HETATM   19  H   UNK N   1      30.541  15.483  11.153  0.00  0.00     0.219 HD
ENDBRANCH   1  18
BRANCH   2  20
HETATM   20  C   UNK N   1      33.044  16.729   7.754  0.00  0.00     0.177 C 
BRANCH  20  21
HETATM   21  C   UNK N   1      34.043  17.799   8.089  0.00  0.00     0.259 C 
HETATM   22  O   UNK N   1      34.696  18.342   7.212  0.00  0.00    -0.305 OA
ENDBRANCH  20  21
BRANCH  20  23
HETATM   23  C   UNK N   1      32.132  17.175   6.594  0.00  0.00     0.173 C 
HETATM   24  N   UNK N   1      32.634  16.547   5.379  0.00  0.00    -0.368 N 
HETATM   25  C   UNK N   1      31.951  16.326   4.299  0.00  0.00     0.109 C 
ATOM     26  HN  UNK N   1      33.611  16.257   5.377  1.00  0.00     0.161 HD
HETATM   27  C   UNK N   1      30.502  16.711   4.223  0.00  0.00    -0.025 C 
HETATM   28  C   UNK N   1      29.731  16.376   3.188  0.00  0.00     0.022 C 
HETATM   29  C   UNK N   1      29.881  17.460   5.352  0.00  0.00     0.116 C 
HETATM   30  S   UNK N   1      30.386  16.682   6.906  0.00  0.00    -0.137 SA
BRANCH  25  31
HETATM   31  C   UNK N   1      32.640  15.621   3.181  0.00  0.00     0.193 C 
HETATM   32  O   UNK N   1      33.349  16.253   2.413  0.00  0.00    -0.645 OA
BRANCH  31  33
HETATM   33  O   UNK N   1      32.505  14.294   3.003  0.00  0.00    -0.772 OA
HETATM   34  H   UNK N   1      31.661  13.893   3.069  0.00  0.00     0.167 HD
ENDBRANCH  31  33
ENDBRANCH  25  31
ENDBRANCH  20  23
ENDBRANCH   2  20
TORSDOF 10
ENDMDL
MODEL 9
REMARK VINA RESULT:      -6.1      2.947      4.500
REMARK  10 active torsions:
REMARK  status: ('A' for Active; 'I' for Inactive)
REMARK    1  A    between atoms: C_7  and  C_3 
REMARK    2  A    between atoms: C_12  and  C_7 
REMARK    3  A    between atoms: C_7  and  N_17 
REMARK    4  A    between atoms: C_10  and  C_8 
REMARK    5  A    between atoms: C_13  and  C_9 
REMARK    6  A    between atoms: C_11  and  C_10 
REMARK    7  A    between atoms: C_11  and  O_25 
REMARK    8  A    between atoms: O_26  and  C_13 
REMARK    9  A    between atoms: N_15  and  C_14 
REMARK   10  A    between atoms: O_28  and  N_22 
ROOT
HETATM    1  C   UNK N   1      21.760  17.470   6.029  0.00  0.00     0.168 C 
HETATM    2  N   UNK N   1      22.965  17.001   5.929  0.00  0.00    -0.355 N 
ATOM      3  HN  UNK N   1      23.629  17.293   6.647  1.00  0.00     0.162 HD
ENDROOT
BRANCH   1   4
HETATM    4  C   UNK N   1      20.639  17.087   5.129  0.00  0.00     0.132 C 
HETATM    5  N   UNK N   1      19.938  16.051   5.462  0.00  0.00    -0.261 N 
ATOM      6  HN  UNK N   1      20.155  15.573   6.336  1.00  0.00     0.194 HD
BRANCH   4   7
HETATM    7  C   UNK N   1      20.463  17.756   3.799  0.00  0.00     0.074 A 
HETATM    8  C   UNK N   1      20.719  19.133   3.599  0.00  0.00     0.085 A 
HETATM    9  S   UNK N   1      20.536  19.376   1.966  0.00  0.00    -0.064 SA
HETATM   10  C   UNK N   1      20.174  17.831   1.553  0.00  0.00     0.142 A 
HETATM   11  N   UNK N   1      20.171  17.045   2.650  0.00  0.00    -0.335 N 
HETATM   12  H   UNK N   1      19.982  16.078   2.634  0.00  0.00     0.168 HD
BRANCH  10  13
HETATM   13  N   UNK N   1      19.979  17.400   0.366  0.00  0.00    -0.380 N 
HETATM   14  H   UNK N   1      20.220  16.520  -0.001  0.00  0.00     0.158 HD
ATOM     15  HN  UNK N   1      19.519  18.045  -0.278  1.00  0.00     0.158 HD
ENDBRANCH  10  13
ENDBRANCH   4   7
BRANCH   5  16
HETATM   16  O   UNK N   1      18.955  15.590   4.719  0.00  0.00    -0.285 OA
HETATM   17  C   UNK N   1      18.845  14.244   4.482  0.00  0.00     0.237 C 
ENDBRANCH   5  16
ENDBRANCH   1   4
BRANCH   1  18
HETATM   18  O   UNK N   1      21.533  18.443   6.931  0.00  0.00    -0.344 OA
HETATM   19  H   UNK N   1      21.398  19.306   7.271  0.00  0.00     0.219 HD
ENDBRANCH   1  18
BRANCH   2  20
HETATM   20  C   UNK N   1      23.473  16.104   4.903  0.00  0.00     0.177 C 
BRANCH  20  21
HETATM   21  C   UNK N   1      23.750  14.750   5.493  0.00  0.00     0.259 C 
HETATM   22  O   UNK N   1      22.875  14.131   6.078  0.00  0.00    -0.305 OA
ENDBRANCH  20  21
BRANCH  20  23
HETATM   23  C   UNK N   1      24.762  16.726   4.331  0.00  0.00     0.173 C 
HETATM   24  N   UNK N   1      24.405  18.011   3.747  0.00  0.00    -0.368 N 
HETATM   25  C   UNK N   1      25.212  19.005   3.541  0.00  0.00     0.109 C 
ATOM     26  HN  UNK N   1      23.431  18.141   3.473  1.00  0.00     0.161 HD
HETATM   27  C   UNK N   1      26.659  18.901   3.927  0.00  0.00    -0.025 C 
HETATM   28  C   UNK N   1      27.489  19.942   3.862  0.00  0.00     0.022 C 
HETATM   29  C   UNK N   1      27.192  17.605   4.437  0.00  0.00     0.116 C 
HETATM   30  S   UNK N   1      26.026  16.942   5.652  0.00  0.00    -0.137 SA
BRANCH  25  31
HETATM   31  C   UNK N   1      24.634  20.258   2.978  0.00  0.00     0.193 C 
HETATM   32  O   UNK N   1      23.774  20.861   3.602  0.00  0.00    -0.645 OA
BRANCH  31  33
HETATM   33  O   UNK N   1      25.046  20.747   1.794  0.00  0.00    -0.772 OA
HETATM   34  H   UNK N   1      25.517  20.200   1.196  0.00  0.00     0.167 HD
ENDBRANCH  31  33
ENDBRANCH  25  31
ENDBRANCH  20  23
ENDBRANCH   2  20
TORSDOF 10
ENDMDL
