REMARK  13 active torsions:
REMARK  status: ('A' for Active; 'I' for Inactive)
REMARK    1  A    between atoms: C_15  and  C_11 
REMARK    2  A    between atoms: C_18  and  C_11 
REMARK    3  A    between atoms: C_19  and  C_12 
REMARK    4  A    between atoms: C_16  and  C_13 
REMARK    5  A    between atoms: O_31  and  C_13 
REMARK    6  A    between atoms: C_19  and  C_14 
REMARK    7  A    between atoms: N_23  and  C_14 
REMARK    8  A    between atoms: O_27  and  C_17 
REMARK    9  A    between atoms: C_20  and  C_18 
REMARK   10  A    between atoms: C_18  and  N_25 
REMARK   11  A    between atoms: C_20  and  O_29 
REMARK   12  A    between atoms: C_21  and  O_30 
REMARK   13  A    between atoms: O_31  and  C_21 
ROOT
HETATM    1  C   UNK N   1      -1.522   1.626  -0.210  0.00  0.00     0.164 C 
ENDROOT
BRANCH   1   2
HETATM    2  C   UNK N   1      -0.096   1.949  -0.694  0.00  0.00     0.072 C 
BRANCH   2   3
HETATM    3  C   UNK N   1       1.064   1.108  -0.205  0.00  0.00    -0.056 A 
HETATM    4  C   UNK N   1       0.910   0.054   0.712  0.00  0.00     0.010 A 
HETATM    5  C   UNK N   1       2.002  -0.748   1.061  0.00  0.00     0.037 A 
HETATM    6  C   UNK N   1       3.257  -0.502   0.497  0.00  0.00     0.065 A 
HETATM    7  C   UNK N   1       3.421   0.552  -0.404  0.00  0.00     0.037 A 
HETATM    8  C   UNK N   1       2.328   1.351  -0.755  0.00  0.00     0.010 A 
BRANCH   6   9
HETATM    9  O   UNK N   1       4.302  -1.281   0.818  0.00  0.00    -0.361 OA
HETATM   10  H   UNK N   1       4.197  -2.185   1.043  0.00  0.00     0.217 HD
ENDBRANCH   6   9
ENDBRANCH   2   3
ENDBRANCH   1   2
BRANCH   1  11
HETATM   11  C   UNK N   1      -2.474   2.217  -1.241  0.00  0.00     0.135 C 
HETATM   12  N   UNK N   1      -3.378   3.111  -0.995  0.00  0.00    -0.362 N 
ATOM     13  HN  UNK N   1      -3.961   3.376  -1.789  1.00  0.00     0.162 HD
BRANCH  12  14
HETATM   14  C   UNK N   1      -3.678   3.787   0.252  0.00  0.00     0.151 C 
HETATM   15  C   UNK N   1      -3.609   5.284   0.013  0.00  0.00     0.040 C 
BRANCH  14  16
HETATM   16  C   UNK N   1      -5.063   3.398   0.700  0.00  0.00     0.177 C 
HETATM   17  O   UNK N   1      -5.226   2.910   1.807  0.00  0.00    -0.293 OA
BRANCH  16  18
HETATM   18  C   UNK N   1      -6.248   3.554  -0.207  0.00  0.00     0.302 C 
HETATM   19  F   UNK N   1      -6.454   4.882  -0.527  0.00  0.00    -0.247 F 
ENDBRANCH  16  18
ENDBRANCH  14  16
ENDBRANCH  12  14
BRANCH  11  20
HETATM   20  O   UNK N   1      -2.378   1.752  -2.503  0.00  0.00    -0.348 OA
HETATM   21  H   UNK N   1      -2.625   1.533  -3.381  0.00  0.00     0.219 HD
ENDBRANCH  11  20
ENDBRANCH   1  11
BRANCH   1  22
HETATM   22  N   UNK N   1      -1.703   0.191  -0.194  0.00  0.00    -0.338 N 
HETATM   23  C   UNK N   1      -2.761  -0.424   0.201  0.00  0.00     0.259 C 
ATOM     24  HN  UNK N   1      -0.926  -0.382  -0.524  1.00  0.00     0.164 HD
BRANCH  23  25
HETATM   25  O   UNK N   1      -3.838   0.260   0.652  0.00  0.00    -0.327 OA
HETATM   26  H   UNK N   1      -3.802   1.143   0.965  0.00  0.00     0.221 HD
ENDBRANCH  23  25
BRANCH  23  27
HETATM   27  O   UNK N   1      -2.770  -1.769   0.150  0.00  0.00    -0.312 OA
BRANCH  27  28
HETATM   28  C   UNK N   1      -3.849  -2.557   0.463  0.00  0.00     0.218 C 
BRANCH  28  29
HETATM   29  C   UNK N   1      -3.493  -3.996   0.234  0.00  0.00    -0.034 A 
HETATM   30  C   UNK N   1      -2.194  -4.364  -0.158  0.00  0.00     0.009 A 
HETATM   31  C   UNK N   1      -1.873  -5.704  -0.377  0.00  0.00     0.001 A 
HETATM   32  C   UNK N   1      -2.849  -6.688  -0.209  0.00  0.00     0.000 A 
HETATM   33  C   UNK N   1      -4.144  -6.330   0.180  0.00  0.00     0.001 A 
HETATM   34  C   UNK N   1      -4.466  -4.987   0.402  0.00  0.00     0.009 A 
ENDBRANCH  28  29
ENDBRANCH  27  28
ENDBRANCH  23  27
ENDBRANCH   1  22
TORSDOF 13
