MODEL 1
REMARK VINA RESULT:      -7.1      0.000      0.000
REMARK  12 active torsions:
REMARK  status: ('A' for Active; 'I' for Inactive)
REMARK    1  A    between atoms: C_1  and  C_2 
REMARK    2  A    between atoms: N_7  and  C_12 
REMARK    3  A    between atoms: C_12  and  C_15 
REMARK    4  A    between atoms: C_13  and  N_16 
REMARK    5  A    between atoms: C_15  and  O_17 
REMARK    6  A    between atoms: N_16  and  C_19 
REMARK    7  A    between atoms: C_19  and  C_20 
REMARK    8  A    between atoms: C_19  and  C_21 
REMARK    9  A    between atoms: C_20  and  C_22 
REMARK   10  A    between atoms: C_21  and  O_23 
REMARK   11  A    between atoms: C_22  and  C_25 
REMARK   12  A    between atoms: O_23  and  C_26 
ROOT
HETATM    1  C   UNK N   1      24.316  18.852   4.391  0.00  0.00     0.105 C 
HETATM    2  C   UNK N   1      23.588  19.658   3.322  0.00  0.00     0.146 C 
HETATM    3  S   UNK N   1      24.378  17.108   3.874  0.00  0.00    -0.155 SA
HETATM    4  N   UNK N   1      22.131  19.749   3.436  0.00  0.00    -0.339 N 
HETATM    5  C   UNK N   1      22.594  16.784   4.032  0.00  0.00     0.109 C 
HETATM    6  C   UNK N   1      21.338  18.909   4.193  0.00  0.00     0.243 C 
HETATM    7  C   UNK N   1      21.890  17.737   4.985  0.00  0.00     0.179 C 
HETATM    8  O   UNK N   1      20.124  19.087   4.201  0.00  0.00    -0.271 OA
ENDROOT
BRANCH   7   9
HETATM    9  N   UNK N   1      20.817  16.980   5.619  0.00  0.00    -0.396 N 
HETATM   10  H   UNK N   1      19.896  17.371   5.817  0.00  0.00     0.155 HD
BRANCH   9  11
HETATM   11  C   UNK N   1      21.194  15.599   5.945  0.00  0.00     0.178 C 
BRANCH  11  12
HETATM   12  C   UNK N   1      21.832  15.628   7.334  0.00  0.00     0.039 C 
BRANCH  12  13
HETATM   13  C   UNK N   1      20.790  15.324   8.409  0.00  0.00     0.041 C 
BRANCH  13  14
HETATM   14  C   UNK N   1      21.195  14.196   9.284  0.00  0.00    -0.058 A 
HETATM   15  C   UNK N   1      22.528  13.774   9.323  0.00  0.00     0.007 A 
HETATM   16  C   UNK N   1      22.909  12.742  10.185  0.00  0.00     0.001 A 
HETATM   17  C   UNK N   1      21.958  12.135  11.010  0.00  0.00     0.000 A 
HETATM   18  C   UNK N   1      20.625  12.559  10.974  0.00  0.00     0.001 A 
HETATM   19  C   UNK N   1      20.245  13.594  10.115  0.00  0.00     0.007 A 
ENDBRANCH  13  14
ENDBRANCH  12  13
ENDBRANCH  11  12
BRANCH  11  20
HETATM   20  C   UNK N   1      20.056  14.583   5.709  0.00  0.00     0.281 C 
HETATM   21  O   UNK N   1      18.912  14.971   5.871  0.00  0.00    -0.263 OA
BRANCH  20  22
HETATM   22  O   UNK N   1      20.220  13.294   5.287  0.00  0.00    -0.320 OA
BRANCH  22  23
HETATM   23  C   UNK N   1      21.335  12.503   5.422  0.00  0.00     0.174 C 
HETATM   24  C   UNK N   1      21.199  11.645   6.665  0.00  0.00     0.034 C 
ENDBRANCH  22  23
ENDBRANCH  20  22
ENDBRANCH  11  20
ENDBRANCH   9  11
ENDBRANCH   7   9
BRANCH   4  25
HETATM   25  C   UNK N   1      21.480  20.741   2.599  0.00  0.00     0.235 C 
BRANCH  25  26
HETATM   26  C   UNK N   1      21.076  20.224   1.245  0.00  0.00     0.158 C 
HETATM   27  O   UNK N   1      21.482  20.793   0.245  0.00  0.00    -0.649 OA
BRANCH  26  28
HETATM   28  O   UNK N   1      20.260  19.160   1.119  0.00  0.00    -0.775 OA
HETATM   29  H   UNK N   1      20.378  18.268   0.859  0.00  0.00     0.167 HD
ENDBRANCH  26  28
ENDBRANCH  25  26
ENDBRANCH   4  25
BRANCH   1  30
HETATM   30  C   UNK N   1      25.714  19.346   4.615  0.00  0.00    -0.002 A 
HETATM   31  C   UNK N   1      26.058  20.545   5.238  0.00  0.00     0.016 A 
HETATM   32  C   UNK N   1      27.466  20.745   5.318  0.00  0.00     0.008 A 
HETATM   33  C   UNK N   1      28.225  19.708   4.757  0.00  0.00     0.050 A 
HETATM   34  S   UNK N   1      27.131  18.598   4.191  0.00  0.00    -0.105 SA
ENDBRANCH   1  30
TORSDOF 12
ENDMDL
MODEL 2
REMARK VINA RESULT:      -7.1      4.029      6.697
REMARK  12 active torsions:
REMARK  status: ('A' for Active; 'I' for Inactive)
REMARK    1  A    between atoms: C_1  and  C_2 
REMARK    2  A    between atoms: N_7  and  C_12 
REMARK    3  A    between atoms: C_12  and  C_15 
REMARK    4  A    between atoms: C_13  and  N_16 
REMARK    5  A    between atoms: C_15  and  O_17 
REMARK    6  A    between atoms: N_16  and  C_19 
REMARK    7  A    between atoms: C_19  and  C_20 
REMARK    8  A    between atoms: C_19  and  C_21 
REMARK    9  A    between atoms: C_20  and  C_22 
REMARK   10  A    between atoms: C_21  and  O_23 
REMARK   11  A    between atoms: C_22  and  C_25 
REMARK   12  A    between atoms: O_23  and  C_26 
ROOT
HETATM    1  C   UNK N   1      21.355  16.926   3.159  0.00  0.00     0.105 C 
HETATM    2  C   UNK N   1      20.642  18.268   3.047  0.00  0.00     0.146 C 
HETATM    3  S   UNK N   1      21.618  16.543   4.918  0.00  0.00    -0.155 SA
HETATM    4  N   UNK N   1      21.483  19.466   3.006  0.00  0.00    -0.339 N 
HETATM    5  C   UNK N   1      22.832  17.862   5.235  0.00  0.00     0.109 C 
HETATM    6  C   UNK N   1      22.805  19.524   3.404  0.00  0.00     0.243 C 
HETATM    7  C   UNK N   1      23.551  18.335   3.981  0.00  0.00     0.179 C 
HETATM    8  O   UNK N   1      23.401  20.594   3.325  0.00  0.00    -0.271 OA
ENDROOT
BRANCH   7   9
HETATM    9  N   UNK N   1      24.901  18.708   4.387  0.00  0.00    -0.396 N 
HETATM   10  H   UNK N   1      25.100  19.305   5.189  0.00  0.00     0.155 HD
BRANCH   9  11
HETATM   11  C   UNK N   1      25.945  18.139   3.525  0.00  0.00     0.178 C 
BRANCH  11  12
HETATM   12  C   UNK N   1      27.278  18.713   4.003  0.00  0.00     0.039 C 
BRANCH  12  13
HETATM   13  C   UNK N   1      27.123  19.352   5.384  0.00  0.00     0.041 C 
BRANCH  13  14
HETATM   14  C   UNK N   1      28.073  18.789   6.375  0.00  0.00    -0.058 A 
HETATM   15  C   UNK N   1      27.957  19.115   7.730  0.00  0.00     0.007 A 
HETATM   16  C   UNK N   1      28.827  18.544   8.663  0.00  0.00     0.001 A 
HETATM   17  C   UNK N   1      29.810  17.644   8.241  0.00  0.00     0.000 A 
HETATM   18  C   UNK N   1      29.924  17.315   6.886  0.00  0.00     0.001 A 
HETATM   19  C   UNK N   1      29.051  17.883   5.954  0.00  0.00     0.007 A 
ENDBRANCH  13  14
ENDBRANCH  12  13
ENDBRANCH  11  12
BRANCH  11  20
HETATM   20  C   UNK N   1      25.846  16.606   3.376  0.00  0.00     0.281 C 
HETATM   21  O   UNK N   1      25.975  16.139   2.258  0.00  0.00    -0.263 OA
BRANCH  20  22
HETATM   22  O   UNK N   1      25.672  15.721   4.401  0.00  0.00    -0.320 OA
BRANCH  22  23
HETATM   23  C   UNK N   1      26.618  15.268   5.288  0.00  0.00     0.174 C 
HETATM   24  C   UNK N   1      26.183  15.597   6.704  0.00  0.00     0.034 C 
ENDBRANCH  22  23
ENDBRANCH  20  22
ENDBRANCH  11  20
ENDBRANCH   9  11
ENDBRANCH   7   9
BRANCH   4  25
HETATM   25  C   UNK N   1      20.827  20.700   2.613  0.00  0.00     0.235 C 
BRANCH  25  26
HETATM   26  C   UNK N   1      20.736  20.894   1.124  0.00  0.00     0.158 C 
HETATM   27  O   UNK N   1      20.687  22.026   0.673  0.00  0.00    -0.649 OA
BRANCH  26  28
HETATM   28  O   UNK N   1      20.687  19.841   0.285  0.00  0.00    -0.775 OA
HETATM   29  H   UNK N   1      21.318  19.389  -0.240  0.00  0.00     0.167 HD
ENDBRANCH  26  28
ENDBRANCH  25  26
ENDBRANCH   4  25
BRANCH   1  30
HETATM   30  C   UNK N   1      20.569  15.815   2.528  0.00  0.00    -0.002 A 
HETATM   31  C   UNK N   1      20.383  15.633   1.159  0.00  0.00     0.016 A 
HETATM   32  C   UNK N   1      19.598  14.483   0.854  0.00  0.00     0.008 A 
HETATM   33  C   UNK N   1      19.165  13.769   1.981  0.00  0.00     0.050 A 
HETATM   34  S   UNK N   1      19.768  14.583   3.294  0.00  0.00    -0.105 SA
ENDBRANCH   1  30
TORSDOF 12
ENDMDL
MODEL 3
REMARK VINA RESULT:      -7.0      4.372      6.825
REMARK  12 active torsions:
REMARK  status: ('A' for Active; 'I' for Inactive)
REMARK    1  A    between atoms: C_1  and  C_2 
REMARK    2  A    between atoms: N_7  and  C_12 
REMARK    3  A    between atoms: C_12  and  C_15 
REMARK    4  A    between atoms: C_13  and  N_16 
REMARK    5  A    between atoms: C_15  and  O_17 
REMARK    6  A    between atoms: N_16  and  C_19 
REMARK    7  A    between atoms: C_19  and  C_20 
REMARK    8  A    between atoms: C_19  and  C_21 
REMARK    9  A    between atoms: C_20  and  C_22 
REMARK   10  A    between atoms: C_21  and  O_23 
REMARK   11  A    between atoms: C_22  and  C_25 
REMARK   12  A    between atoms: O_23  and  C_26 
ROOT
HETATM    1  C   UNK N   1      22.283  16.942   3.305  0.00  0.00     0.105 C 
HETATM    2  C   UNK N   1      21.197  18.002   3.169  0.00  0.00     0.146 C 
HETATM    3  S   UNK N   1      22.778  16.826   5.053  0.00  0.00    -0.155 SA
HETATM    4  N   UNK N   1      21.639  19.382   2.959  0.00  0.00    -0.339 N 
HETATM    5  C   UNK N   1      23.564  18.465   5.152  0.00  0.00     0.109 C 
HETATM    6  C   UNK N   1      22.909  19.860   3.218  0.00  0.00     0.243 C 
HETATM    7  C   UNK N   1      24.015  19.000   3.802  0.00  0.00     0.179 C 
HETATM    8  O   UNK N   1      23.152  21.043   3.004  0.00  0.00    -0.271 OA
ENDROOT
BRANCH   7   9
HETATM    9  N   UNK N   1      25.219  19.787   4.044  0.00  0.00    -0.396 N 
HETATM   10  H   UNK N   1      25.378  20.708   3.635  0.00  0.00     0.155 HD
BRANCH   9  11
HETATM   11  C   UNK N   1      26.180  19.121   4.933  0.00  0.00     0.178 C 
BRANCH  11  12
HETATM   12  C   UNK N   1      26.965  18.129   4.076  0.00  0.00     0.039 C 
BRANCH  12  13
HETATM   13  C   UNK N   1      26.886  16.724   4.673  0.00  0.00     0.041 C 
BRANCH  13  14
HETATM   14  C   UNK N   1      26.210  15.763   3.767  0.00  0.00    -0.058 A 
HETATM   15  C   UNK N   1      26.041  16.067   2.412  0.00  0.00     0.007 A 
HETATM   16  C   UNK N   1      25.446  15.136   1.557  0.00  0.00     0.001 A 
HETATM   17  C   UNK N   1      25.022  13.901   2.055  0.00  0.00     0.000 A 
HETATM   18  C   UNK N   1      25.194  13.595   3.409  0.00  0.00     0.001 A 
HETATM   19  C   UNK N   1      25.793  14.524   4.264  0.00  0.00     0.007 A 
ENDBRANCH  13  14
ENDBRANCH  12  13
ENDBRANCH  11  12
BRANCH  11  20
HETATM   20  C   UNK N   1      26.992  20.105   5.801  0.00  0.00     0.281 C 
HETATM   21  O   UNK N   1      26.638  21.272   5.810  0.00  0.00    -0.263 OA
BRANCH  20  22
HETATM   22  O   UNK N   1      28.048  19.771   6.599  0.00  0.00    -0.320 OA
BRANCH  22  23
HETATM   23  C   UNK N   1      28.024  19.033   7.757  0.00  0.00     0.174 C 
HETATM   24  C   UNK N   1      28.908  17.811   7.597  0.00  0.00     0.034 C 
ENDBRANCH  22  23
ENDBRANCH  20  22
ENDBRANCH  11  20
ENDBRANCH   9  11
ENDBRANCH   7   9
BRANCH   4  25
HETATM   25  C   UNK N   1      20.618  20.328   2.545  0.00  0.00     0.235 C 
BRANCH  25  26
HETATM   26  C   UNK N   1      20.672  20.682   1.084  0.00  0.00     0.158 C 
HETATM   27  O   UNK N   1      20.775  21.853   0.759  0.00  0.00    -0.649 OA
BRANCH  26  28
HETATM   28  O   UNK N   1      20.588  19.732   0.132  0.00  0.00    -0.775 OA
HETATM   29  H   UNK N   1      19.887  19.238  -0.244  0.00  0.00     0.167 HD
ENDBRANCH  26  28
ENDBRANCH  25  26
ENDBRANCH   4  25
BRANCH   1  30
HETATM   30  C   UNK N   1      21.819  15.595   2.838  0.00  0.00    -0.002 A 
HETATM   31  C   UNK N   1      21.618  15.225   1.509  0.00  0.00     0.016 A 
HETATM   32  C   UNK N   1      21.184  13.875   1.367  0.00  0.00     0.008 A 
HETATM   33  C   UNK N   1      21.040  13.190   2.582  0.00  0.00     0.050 A 
HETATM   34  S   UNK N   1      21.453  14.273   3.768  0.00  0.00    -0.105 SA
ENDBRANCH   1  30
TORSDOF 12
ENDMDL
MODEL 4
REMARK VINA RESULT:      -7.0      4.294      6.995
REMARK  12 active torsions:
REMARK  status: ('A' for Active; 'I' for Inactive)
REMARK    1  A    between atoms: C_1  and  C_2 
REMARK    2  A    between atoms: N_7  and  C_12 
REMARK    3  A    between atoms: C_12  and  C_15 
REMARK    4  A    between atoms: C_13  and  N_16 
REMARK    5  A    between atoms: C_15  and  O_17 
REMARK    6  A    between atoms: N_16  and  C_19 
REMARK    7  A    between atoms: C_19  and  C_20 
REMARK    8  A    between atoms: C_19  and  C_21 
REMARK    9  A    between atoms: C_20  and  C_22 
REMARK   10  A    between atoms: C_21  and  O_23 
REMARK   11  A    between atoms: C_22  and  C_25 
REMARK   12  A    between atoms: O_23  and  C_26 
ROOT
HETATM    1  C   UNK N   1      21.188  16.830   3.111  0.00  0.00     0.105 C 
HETATM    2  C   UNK N   1      20.424  18.143   2.992  0.00  0.00     0.146 C 
HETATM    3  S   UNK N   1      21.465  16.466   4.872  0.00  0.00    -0.155 SA
HETATM    4  N   UNK N   1      21.218  19.372   2.946  0.00  0.00    -0.339 N 
HETATM    5  C   UNK N   1      22.627  17.833   5.183  0.00  0.00     0.109 C 
HETATM    6  C   UNK N   1      22.536  19.483   3.343  0.00  0.00     0.243 C 
HETATM    7  C   UNK N   1      23.327  18.326   3.926  0.00  0.00     0.179 C 
HETATM    8  O   UNK N   1      23.091  20.574   3.259  0.00  0.00    -0.271 OA
ENDROOT
BRANCH   7   9
HETATM    9  N   UNK N   1      24.662  18.753   4.330  0.00  0.00    -0.396 N 
HETATM   10  H   UNK N   1      24.916  19.729   4.483  0.00  0.00     0.155 HD
BRANCH   9  11
HETATM   11  C   UNK N   1      25.604  17.639   4.493  0.00  0.00     0.178 C 
BRANCH  11  12
HETATM   12  C   UNK N   1      25.463  16.752   3.257  0.00  0.00     0.039 C 
BRANCH  12  13
HETATM   13  C   UNK N   1      25.347  15.282   3.661  0.00  0.00     0.041 C 
BRANCH  13  14
HETATM   14  C   UNK N   1      24.505  14.503   2.720  0.00  0.00    -0.058 A 
HETATM   15  C   UNK N   1      24.634  14.684   1.339  0.00  0.00     0.007 A 
HETATM   16  C   UNK N   1      23.870  13.912   0.459  0.00  0.00     0.001 A 
HETATM   17  C   UNK N   1      22.981  12.957   0.960  0.00  0.00     0.000 A 
HETATM   18  C   UNK N   1      22.855  12.773   2.341  0.00  0.00     0.001 A 
HETATM   19  C   UNK N   1      23.621  13.542   3.220  0.00  0.00     0.007 A 
ENDBRANCH  13  14
ENDBRANCH  12  13
ENDBRANCH  11  12
BRANCH  11  20
HETATM   20  C   UNK N   1      27.028  18.094   4.880  0.00  0.00     0.281 C 
HETATM   21  O   UNK N   1      27.965  17.474   4.408  0.00  0.00    -0.263 OA
BRANCH  20  22
HETATM   22  O   UNK N   1      27.329  19.165   5.671  0.00  0.00    -0.320 OA
BRANCH  22  23
HETATM   23  C   UNK N   1      27.644  20.441   5.271  0.00  0.00     0.174 C 
HETATM   24  C   UNK N   1      27.126  21.434   6.294  0.00  0.00     0.034 C 
ENDBRANCH  22  23
ENDBRANCH  20  22
ENDBRANCH  11  20
ENDBRANCH   9  11
ENDBRANCH   7   9
BRANCH   4  25
HETATM   25  C   UNK N   1      20.515  20.578   2.547  0.00  0.00     0.235 C 
BRANCH  25  26
HETATM   26  C   UNK N   1      20.627  20.892   1.079  0.00  0.00     0.158 C 
HETATM   27  O   UNK N   1      20.683  22.056   0.722  0.00  0.00    -0.649 OA
BRANCH  26  28
HETATM   28  O   UNK N   1      20.647  19.911   0.156  0.00  0.00    -0.775 OA
HETATM   29  H   UNK N   1      20.461  18.993   0.167  0.00  0.00     0.167 HD
ENDBRANCH  26  28
ENDBRANCH  25  26
ENDBRANCH   4  25
BRANCH   1  30
HETATM   30  C   UNK N   1      20.445  15.687   2.486  0.00  0.00    -0.002 A 
HETATM   31  C   UNK N   1      20.315  15.459   1.116  0.00  0.00     0.016 A 
HETATM   32  C   UNK N   1      19.561  14.287   0.818  0.00  0.00     0.008 A 
HETATM   33  C   UNK N   1      19.097  13.600   1.949  0.00  0.00     0.050 A 
HETATM   34  S   UNK N   1      19.635  14.464   3.258  0.00  0.00    -0.105 SA
ENDBRANCH   1  30
TORSDOF 12
ENDMDL
MODEL 5
REMARK VINA RESULT:      -6.8     13.376     15.709
REMARK  12 active torsions:
REMARK  status: ('A' for Active; 'I' for Inactive)
REMARK    1  A    between atoms: C_1  and  C_2 
REMARK    2  A    between atoms: N_7  and  C_12 
REMARK    3  A    between atoms: C_12  and  C_15 
REMARK    4  A    between atoms: C_13  and  N_16 
REMARK    5  A    between atoms: C_15  and  O_17 
REMARK    6  A    between atoms: N_16  and  C_19 
REMARK    7  A    between atoms: C_19  and  C_20 
REMARK    8  A    between atoms: C_19  and  C_21 
REMARK    9  A    between atoms: C_20  and  C_22 
REMARK   10  A    between atoms: C_21  and  O_23 
REMARK   11  A    between atoms: C_22  and  C_25 
REMARK   12  A    between atoms: O_23  and  C_26 
ROOT
HETATM    1  C   UNK N   1      34.524  14.771   9.930  0.00  0.00     0.105 C 
HETATM    2  C   UNK N   1      34.622  13.547   9.027  0.00  0.00     0.146 C 
HETATM    3  S   UNK N   1      36.190  15.196  10.528  0.00  0.00    -0.155 SA
HETATM    4  N   UNK N   1      34.538  12.236   9.673  0.00  0.00    -0.339 N 
HETATM    5  C   UNK N   1      36.410  13.726  11.580  0.00  0.00     0.109 C 
HETATM    6  C   UNK N   1      34.730  11.999  11.021  0.00  0.00     0.243 C 
HETATM    7  C   UNK N   1      35.098  13.090  12.010  0.00  0.00     0.179 C 
HETATM    8  O   UNK N   1      34.638  10.850  11.440  0.00  0.00    -0.271 OA
ENDROOT
BRANCH   7   9
HETATM    9  N   UNK N   1      35.316  12.538  13.343  0.00  0.00    -0.396 N 
HETATM   10  H   UNK N   1      34.589  12.067  13.880  0.00  0.00     0.155 HD
BRANCH   9  11
HETATM   11  C   UNK N   1      36.688  12.729  13.833  0.00  0.00     0.178 C 
BRANCH  11  12
HETATM   12  C   UNK N   1      36.588  13.515  15.140  0.00  0.00     0.039 C 
BRANCH  12  13
HETATM   13  C   UNK N   1      35.219  13.306  15.788  0.00  0.00     0.041 C 
BRANCH  13  14
HETATM   14  C   UNK N   1      35.317  12.645  17.112  0.00  0.00    -0.058 A 
HETATM   15  C   UNK N   1      35.173  13.390  18.288  0.00  0.00     0.007 A 
HETATM   16  C   UNK N   1      35.220  12.750  19.529  0.00  0.00     0.001 A 
HETATM   17  C   UNK N   1      35.407  11.367  19.596  0.00  0.00     0.000 A 
HETATM   18  C   UNK N   1      35.547  10.621  18.421  0.00  0.00     0.001 A 
HETATM   19  C   UNK N   1      35.496  11.260  17.179  0.00  0.00     0.007 A 
ENDBRANCH  13  14
ENDBRANCH  12  13
ENDBRANCH  11  12
BRANCH  11  20
HETATM   20  C   UNK N   1      37.516  11.427  13.851  0.00  0.00     0.281 C 
HETATM   21  O   UNK N   1      38.403  11.334  14.682  0.00  0.00    -0.263 OA
BRANCH  20  22
HETATM   22  O   UNK N   1      37.310  10.346  13.042  0.00  0.00    -0.320 OA
BRANCH  22  23
HETATM   23  C   UNK N   1      37.035   9.055  13.421  0.00  0.00     0.174 C 
HETATM   24  C   UNK N   1      35.754   9.029  14.233  0.00  0.00     0.034 C 
ENDBRANCH  22  23
ENDBRANCH  20  22
ENDBRANCH  11  20
ENDBRANCH   9  11
ENDBRANCH   7   9
BRANCH   4  25
HETATM   25  C   UNK N   1      34.342  11.097   8.795  0.00  0.00     0.235 C 
BRANCH  25  26
HETATM   26  C   UNK N   1      32.897  10.747   8.565  0.00  0.00     0.158 C 
HETATM   27  O   UNK N   1      32.527  10.454   7.441  0.00  0.00    -0.649 OA
BRANCH  26  28
HETATM   28  O   UNK N   1      32.003  10.773   9.573  0.00  0.00    -0.775 OA
HETATM   29  H   UNK N   1      31.095  10.993   9.641  0.00  0.00     0.167 HD
ENDBRANCH  26  28
ENDBRANCH  25  26
ENDBRANCH   4  25
BRANCH   1  30
HETATM   30  C   UNK N   1      33.945  15.955   9.216  0.00  0.00    -0.002 A 
HETATM   31  C   UNK N   1      34.591  17.174   9.014  0.00  0.00     0.016 A 
HETATM   32  C   UNK N   1      33.796  18.111   8.294  0.00  0.00     0.008 A 
HETATM   33  C   UNK N   1      32.528  17.631   7.935  0.00  0.00     0.050 A 
HETATM   34  S   UNK N   1      32.446  16.082   8.519  0.00  0.00    -0.105 SA
ENDBRANCH   1  30
TORSDOF 12
ENDMDL
MODEL 6
REMARK VINA RESULT:      -6.6     13.662     16.104
REMARK  12 active torsions:
REMARK  status: ('A' for Active; 'I' for Inactive)
REMARK    1  A    between atoms: C_1  and  C_2 
REMARK    2  A    between atoms: N_7  and  C_12 
REMARK    3  A    between atoms: C_12  and  C_15 
REMARK    4  A    between atoms: C_13  and  N_16 
REMARK    5  A    between atoms: C_15  and  O_17 
REMARK    6  A    between atoms: N_16  and  C_19 
REMARK    7  A    between atoms: C_19  and  C_20 
REMARK    8  A    between atoms: C_19  and  C_21 
REMARK    9  A    between atoms: C_20  and  C_22 
REMARK   10  A    between atoms: C_21  and  O_23 
REMARK   11  A    between atoms: C_22  and  C_25 
REMARK   12  A    between atoms: O_23  and  C_26 
ROOT
HETATM    1  C   UNK N   1      35.347  14.251   9.528  0.00  0.00     0.105 C 
HETATM    2  C   UNK N   1      35.142  12.920   8.816  0.00  0.00     0.146 C 
HETATM    3  S   UNK N   1      37.105  14.423   9.962  0.00  0.00    -0.155 SA
HETATM    4  N   UNK N   1      34.873  11.752   9.656  0.00  0.00    -0.339 N 
HETATM    5  C   UNK N   1      37.139  13.098  11.210  0.00  0.00     0.109 C 
HETATM    6  C   UNK N   1      35.129  11.670  11.011  0.00  0.00     0.243 C 
HETATM    7  C   UNK N   1      35.772  12.795  11.803  0.00  0.00     0.179 C 
HETATM    8  O   UNK N   1      34.862  10.629  11.604  0.00  0.00    -0.271 OA
ENDROOT
BRANCH   7   9
HETATM    9  N   UNK N   1      35.995  12.399  13.189  0.00  0.00    -0.396 N 
HETATM   10  H   UNK N   1      36.465  11.535  13.457  0.00  0.00     0.155 HD
BRANCH   9  11
HETATM   11  C   UNK N   1      35.475  13.370  14.161  0.00  0.00     0.178 C 
BRANCH  11  12
HETATM   12  C   UNK N   1      34.852  12.567  15.302  0.00  0.00     0.039 C 
BRANCH  12  13
HETATM   13  C   UNK N   1      35.809  11.472  15.772  0.00  0.00     0.041 C 
BRANCH  13  14
HETATM   14  C   UNK N   1      35.791  11.301  17.246  0.00  0.00    -0.058 A 
HETATM   15  C   UNK N   1      36.370  10.172  17.835  0.00  0.00     0.007 A 
HETATM   16  C   UNK N   1      36.390  10.043  19.226  0.00  0.00     0.001 A 
HETATM   17  C   UNK N   1      35.835  11.045  20.029  0.00  0.00     0.000 A 
HETATM   18  C   UNK N   1      35.260  12.176  19.440  0.00  0.00     0.001 A 
HETATM   19  C   UNK N   1      35.244  12.307  18.049  0.00  0.00     0.007 A 
ENDBRANCH  13  14
ENDBRANCH  12  13
ENDBRANCH  11  12
BRANCH  11  20
HETATM   20  C   UNK N   1      36.497  14.463  14.539  0.00  0.00     0.281 C 
HETATM   21  O   UNK N   1      36.648  15.388  13.759  0.00  0.00    -0.263 OA
BRANCH  20  22
HETATM   22  O   UNK N   1      37.216  14.507  15.699  0.00  0.00    -0.320 OA
BRANCH  22  23
HETATM   23  C   UNK N   1      37.466  15.603  16.490  0.00  0.00     0.174 C 
HETATM   24  C   UNK N   1      36.508  15.607  17.666  0.00  0.00     0.034 C 
ENDBRANCH  22  23
ENDBRANCH  20  22
ENDBRANCH  11  20
ENDBRANCH   9  11
ENDBRANCH   7   9
BRANCH   4  25
HETATM   25  C   UNK N   1      34.398  10.562   8.972  0.00  0.00     0.235 C 
BRANCH  25  26
HETATM   26  C   UNK N   1      32.929  10.593   8.646  0.00  0.00     0.158 C 
HETATM   27  O   UNK N   1      32.576  10.499   7.483  0.00  0.00    -0.649 OA
BRANCH  26  28
HETATM   28  O   UNK N   1      32.002  10.741   9.613  0.00  0.00    -0.775 OA
HETATM   29  H   UNK N   1      31.548  11.473   9.981  0.00  0.00     0.167 HD
ENDBRANCH  26  28
ENDBRANCH  25  26
ENDBRANCH   4  25
BRANCH   1  30
HETATM   30  C   UNK N   1      34.937  15.416   8.676  0.00  0.00    -0.002 A 
HETATM   31  C   UNK N   1      34.738  15.378   7.296  0.00  0.00     0.016 A 
HETATM   32  C   UNK N   1      34.343  16.637   6.758  0.00  0.00     0.008 A 
HETATM   33  C   UNK N   1      34.238  17.660   7.711  0.00  0.00     0.050 A 
HETATM   34  S   UNK N   1      34.633  16.969   9.166  0.00  0.00    -0.105 SA
ENDBRANCH   1  30
TORSDOF 12
ENDMDL
MODEL 7
REMARK VINA RESULT:      -6.6      2.990      7.316
REMARK  12 active torsions:
REMARK  status: ('A' for Active; 'I' for Inactive)
REMARK    1  A    between atoms: C_1  and  C_2 
REMARK    2  A    between atoms: N_7  and  C_12 
REMARK    3  A    between atoms: C_12  and  C_15 
REMARK    4  A    between atoms: C_13  and  N_16 
REMARK    5  A    between atoms: C_15  and  O_17 
REMARK    6  A    between atoms: N_16  and  C_19 
REMARK    7  A    between atoms: C_19  and  C_20 
REMARK    8  A    between atoms: C_19  and  C_21 
REMARK    9  A    between atoms: C_20  and  C_22 
REMARK   10  A    between atoms: C_21  and  O_23 
REMARK   11  A    between atoms: C_22  and  C_25 
REMARK   12  A    between atoms: O_23  and  C_26 
ROOT
HETATM    1  C   UNK N   1      23.570  14.597   3.158  0.00  0.00     0.105 C 
HETATM    2  C   UNK N   1      23.396  13.923   4.513  0.00  0.00     0.146 C 
HETATM    3  S   UNK N   1      25.161  15.480   3.138  0.00  0.00    -0.155 SA
HETATM    4  N   UNK N   1      22.774  14.717   5.575  0.00  0.00    -0.339 N 
HETATM    5  C   UNK N   1      24.703  16.754   4.355  0.00  0.00     0.109 C 
HETATM    6  C   UNK N   1      22.655  16.093   5.574  0.00  0.00     0.243 C 
HETATM    7  C   UNK N   1      23.202  16.972   4.463  0.00  0.00     0.179 C 
HETATM    8  O   UNK N   1      22.116  16.643   6.529  0.00  0.00    -0.271 OA
ENDROOT
BRANCH   7   9
HETATM    9  N   UNK N   1      23.004  18.385   4.766  0.00  0.00    -0.396 N 
HETATM   10  H   UNK N   1      23.201  18.795   5.679  0.00  0.00     0.155 HD
BRANCH   9  11
HETATM   11  C   UNK N   1      22.492  19.158   3.627  0.00  0.00     0.178 C 
BRANCH  11  12
HETATM   12  C   UNK N   1      21.014  19.433   3.904  0.00  0.00     0.039 C 
BRANCH  12  13
HETATM   13  C   UNK N   1      20.152  18.961   2.733  0.00  0.00     0.041 C 
BRANCH  13  14
HETATM   14  C   UNK N   1      19.995  17.486   2.707  0.00  0.00    -0.058 A 
HETATM   15  C   UNK N   1      20.325  16.760   1.558  0.00  0.00     0.007 A 
HETATM   16  C   UNK N   1      20.219  15.366   1.558  0.00  0.00     0.001 A 
HETATM   17  C   UNK N   1      19.788  14.699   2.709  0.00  0.00     0.000 A 
HETATM   18  C   UNK N   1      19.462  15.425   3.859  0.00  0.00     0.001 A 
HETATM   19  C   UNK N   1      19.572  16.818   3.860  0.00  0.00     0.007 A 
ENDBRANCH  13  14
ENDBRANCH  12  13
ENDBRANCH  11  12
BRANCH  11  20
HETATM   20  C   UNK N   1      23.381  20.365   3.259  0.00  0.00     0.281 C 
HETATM   21  O   UNK N   1      22.857  21.289   2.661  0.00  0.00    -0.263 OA
BRANCH  20  22
HETATM   22  O   UNK N   1      24.698  20.508   3.589  0.00  0.00    -0.320 OA
BRANCH  22  23
HETATM   23  C   UNK N   1      25.791  20.051   2.893  0.00  0.00     0.174 C 
HETATM   24  C   UNK N   1      27.013  20.085   3.791  0.00  0.00     0.034 C 
ENDBRANCH  22  23
ENDBRANCH  20  22
ENDBRANCH  11  20
ENDBRANCH   9  11
ENDBRANCH   7   9
BRANCH   4  25
HETATM   25  C   UNK N   1      22.352  13.990   6.759  0.00  0.00     0.235 C 
BRANCH  25  26
HETATM   26  C   UNK N   1      20.885  13.657   6.778  0.00  0.00     0.158 C 
HETATM   27  O   UNK N   1      20.517  12.566   6.378  0.00  0.00    -0.649 OA
BRANCH  26  28
HETATM   28  O   UNK N   1      19.972  14.550   7.210  0.00  0.00    -0.775 OA
HETATM   29  H   UNK N   1      19.580  14.740   8.039  0.00  0.00     0.167 HD
ENDBRANCH  26  28
ENDBRANCH  25  26
ENDBRANCH   4  25
BRANCH   1  30
HETATM   30  C   UNK N   1      23.544  13.610   2.029  0.00  0.00    -0.002 A 
HETATM   31  C   UNK N   1      23.441  13.932   0.676  0.00  0.00     0.016 A 
HETATM   32  C   UNK N   1      23.451  12.785  -0.169  0.00  0.00     0.008 A 
HETATM   33  C   UNK N   1      23.557  11.567   0.518  0.00  0.00     0.050 A 
HETATM   34  S   UNK N   1      23.633  11.958   2.128  0.00  0.00    -0.105 SA
ENDBRANCH   1  30
TORSDOF 12
ENDMDL
MODEL 8
REMARK VINA RESULT:      -6.5      3.366      7.521
REMARK  12 active torsions:
REMARK  status: ('A' for Active; 'I' for Inactive)
REMARK    1  A    between atoms: C_1  and  C_2 
REMARK    2  A    between atoms: N_7  and  C_12 
REMARK    3  A    between atoms: C_12  and  C_15 
REMARK    4  A    between atoms: C_13  and  N_16 
REMARK    5  A    between atoms: C_15  and  O_17 
REMARK    6  A    between atoms: N_16  and  C_19 
REMARK    7  A    between atoms: C_19  and  C_20 
REMARK    8  A    between atoms: C_19  and  C_21 
REMARK    9  A    between atoms: C_20  and  C_22 
REMARK   10  A    between atoms: C_21  and  O_23 
REMARK   11  A    between atoms: C_22  and  C_25 
REMARK   12  A    between atoms: O_23  and  C_26 
ROOT
HETATM    1  C   UNK N   1      21.660  14.480   7.999  0.00  0.00     0.105 C 
HETATM    2  C   UNK N   1      20.925  15.613   8.703  0.00  0.00     0.146 C 
HETATM    3  S   UNK N   1      22.886  15.191   6.858  0.00  0.00    -0.155 SA
HETATM    4  N   UNK N   1      19.738  16.152   8.034  0.00  0.00    -0.339 N 
HETATM    5  C   UNK N   1      21.687  15.906   5.689  0.00  0.00     0.109 C 
HETATM    6  C   UNK N   1      19.431  15.980   6.699  0.00  0.00     0.243 C 
HETATM    7  C   UNK N   1      20.327  15.228   5.731  0.00  0.00     0.179 C 
HETATM    8  O   UNK N   1      18.405  16.489   6.256  0.00  0.00    -0.271 OA
ENDROOT
BRANCH   7   9
HETATM    9  N   UNK N   1      19.792  15.276   4.375  0.00  0.00    -0.396 N 
HETATM   10  H   UNK N   1      18.975  14.745   4.075  0.00  0.00     0.155 HD
BRANCH   9  11
HETATM   11  C   UNK N   1      20.547  16.168   3.484  0.00  0.00     0.178 C 
BRANCH  11  12
HETATM   12  C   UNK N   1      20.651  15.462   2.133  0.00  0.00     0.039 C 
BRANCH  12  13
HETATM   13  C   UNK N   1      20.717  13.946   2.323  0.00  0.00     0.041 C 
BRANCH  13  14
HETATM   14  C   UNK N   1      21.740  13.314   1.454  0.00  0.00    -0.058 A 
HETATM   15  C   UNK N   1      21.644  11.959   1.119  0.00  0.00     0.007 A 
HETATM   16  C   UNK N   1      22.586  11.383   0.262  0.00  0.00     0.001 A 
HETATM   17  C   UNK N   1      23.621  12.162  -0.262  0.00  0.00     0.000 A 
HETATM   18  C   UNK N   1      23.716  13.518   0.070  0.00  0.00     0.001 A 
HETATM   19  C   UNK N   1      22.771  14.095   0.923  0.00  0.00     0.007 A 
ENDBRANCH  13  14
ENDBRANCH  12  13
ENDBRANCH  11  12
BRANCH  11  20
HETATM   20  C   UNK N   1      20.024  17.620   3.487  0.00  0.00     0.281 C 
HETATM   21  O   UNK N   1      18.873  17.805   3.128  0.00  0.00    -0.263 OA
BRANCH  20  22
HETATM   22  O   UNK N   1      20.727  18.714   3.902  0.00  0.00    -0.320 OA
BRANCH  22  23
HETATM   23  C   UNK N   1      20.612  20.006   3.449  0.00  0.00     0.174 C 
HETATM   24  C   UNK N   1      21.138  20.093   2.029  0.00  0.00     0.034 C 
ENDBRANCH  22  23
ENDBRANCH  20  22
ENDBRANCH  11  20
ENDBRANCH   9  11
ENDBRANCH   7   9
BRANCH   4  25
HETATM   25  C   UNK N   1      18.887  17.017   8.831  0.00  0.00     0.235 C 
BRANCH  25  26
HETATM   26  C   UNK N   1      19.475  18.377   9.092  0.00  0.00     0.158 C 
HETATM   27  O   UNK N   1      20.303  18.826   8.318  0.00  0.00    -0.649 OA
BRANCH  26  28
HETATM   28  O   UNK N   1      19.116  19.098  10.173  0.00  0.00    -0.775 OA
HETATM   29  H   UNK N   1      19.079  20.012  10.371  0.00  0.00     0.167 HD
ENDBRANCH  26  28
ENDBRANCH  25  26
ENDBRANCH   4  25
BRANCH   1  30
HETATM   30  C   UNK N   1      22.361  13.574   8.967  0.00  0.00    -0.002 A 
HETATM   31  C   UNK N   1      21.786  13.004  10.102  0.00  0.00     0.016 A 
HETATM   32  C   UNK N   1      22.692  12.178  10.829  0.00  0.00     0.008 A 
HETATM   33  C   UNK N   1      23.975  12.105  10.268  0.00  0.00     0.050 A 
HETATM   34  S   UNK N   1      23.934  13.056   8.910  0.00  0.00    -0.105 SA
ENDBRANCH   1  30
TORSDOF 12
ENDMDL
MODEL 9
REMARK VINA RESULT:      -6.5      4.349      6.480
REMARK  12 active torsions:
REMARK  status: ('A' for Active; 'I' for Inactive)
REMARK    1  A    between atoms: C_1  and  C_2 
REMARK    2  A    between atoms: N_7  and  C_12 
REMARK    3  A    between atoms: C_12  and  C_15 
REMARK    4  A    between atoms: C_13  and  N_16 
REMARK    5  A    between atoms: C_15  and  O_17 
REMARK    6  A    between atoms: N_16  and  C_19 
REMARK    7  A    between atoms: C_19  and  C_20 
REMARK    8  A    between atoms: C_19  and  C_21 
REMARK    9  A    between atoms: C_20  and  C_22 
REMARK   10  A    between atoms: C_21  and  O_23 
REMARK   11  A    between atoms: C_22  and  C_25 
REMARK   12  A    between atoms: O_23  and  C_26 
ROOT
HETATM    1  C   UNK N   1      21.917  14.045   8.418  0.00  0.00     0.105 C 
HETATM    2  C   UNK N   1      21.188  15.304   8.871  0.00  0.00     0.146 C 
HETATM    3  S   UNK N   1      23.286  14.520   7.319  0.00  0.00    -0.155 SA
HETATM    4  N   UNK N   1      20.105  15.790   8.014  0.00  0.00    -0.339 N 
HETATM    5  C   UNK N   1      22.249  15.106   5.942  0.00  0.00     0.109 C 
HETATM    6  C   UNK N   1      19.916  15.434   6.693  0.00  0.00     0.243 C 
HETATM    7  C   UNK N   1      20.852  14.505   5.941  0.00  0.00     0.179 C 
HETATM    8  O   UNK N   1      18.970  15.917   6.078  0.00  0.00    -0.271 OA
ENDROOT
BRANCH   7   9
HETATM    9  N   UNK N   1      20.453  14.374   4.545  0.00  0.00    -0.396 N 
HETATM   10  H   UNK N   1      20.482  15.146   3.879  0.00  0.00     0.155 HD
BRANCH   9  11
HETATM   11  C   UNK N   1      20.004  13.020   4.194  0.00  0.00     0.178 C 
BRANCH  11  12
HETATM   12  C   UNK N   1      20.357  12.115   5.374  0.00  0.00     0.039 C 
BRANCH  12  13
HETATM   13  C   UNK N   1      20.716  10.712   4.885  0.00  0.00     0.041 C 
BRANCH  13  14
HETATM   14  C   UNK N   1      21.762  10.074   5.721  0.00  0.00    -0.058 A 
HETATM   15  C   UNK N   1      21.975   8.692   5.656  0.00  0.00     0.007 A 
HETATM   16  C   UNK N   1      22.994   8.107   6.412  0.00  0.00     0.001 A 
HETATM   17  C   UNK N   1      23.802   8.902   7.230  0.00  0.00     0.000 A 
HETATM   18  C   UNK N   1      23.591  10.284   7.292  0.00  0.00     0.001 A 
HETATM   19  C   UNK N   1      22.575  10.870   6.533  0.00  0.00     0.007 A 
ENDBRANCH  13  14
ENDBRANCH  12  13
ENDBRANCH  11  12
BRANCH  11  20
HETATM   20  C   UNK N   1      18.551  12.974   3.674  0.00  0.00     0.281 C 
HETATM   21  O   UNK N   1      17.656  13.002   4.502  0.00  0.00    -0.263 OA
BRANCH  20  22
HETATM   22  O   UNK N   1      18.181  12.951   2.360  0.00  0.00    -0.320 OA
BRANCH  22  23
HETATM   23  C   UNK N   1      18.851  13.492   1.290  0.00  0.00     0.174 C 
HETATM   24  C   UNK N   1      19.375  12.377   0.406  0.00  0.00     0.034 C 
ENDBRANCH  22  23
ENDBRANCH  20  22
ENDBRANCH  11  20
ENDBRANCH   9  11
ENDBRANCH   7   9
BRANCH   4  25
HETATM   25  C   UNK N   1      19.237  16.804   8.585  0.00  0.00     0.235 C 
BRANCH  25  26
HETATM   26  C   UNK N   1      19.874  18.162   8.695  0.00  0.00     0.158 C 
HETATM   27  O   UNK N   1      19.743  18.799   9.726  0.00  0.00    -0.649 OA
BRANCH  26  28
HETATM   28  O   UNK N   1      20.570  18.691   7.670  0.00  0.00    -0.775 OA
HETATM   29  H   UNK N   1      21.104  19.453   7.562  0.00  0.00     0.167 HD
ENDBRANCH  26  28
ENDBRANCH  25  26
ENDBRANCH   4  25
BRANCH   1  30
HETATM   30  C   UNK N   1      22.466  13.264   9.575  0.00  0.00    -0.002 A 
HETATM   31  C   UNK N   1      21.709  12.687  10.594  0.00  0.00     0.016 A 
HETATM   32  C   UNK N   1      22.504  11.997  11.553  0.00  0.00     0.008 A 
HETATM   33  C   UNK N   1      23.881  12.036  11.291  0.00  0.00     0.050 A 
HETATM   34  S   UNK N   1      24.054  12.914   9.895  0.00  0.00    -0.105 SA
ENDBRANCH   1  30
TORSDOF 12
ENDMDL
