MODEL 1
REMARK VINA RESULT:      -5.3      0.000      0.000
REMARK  5 active torsions:
REMARK  status: ('A' for Active; 'I' for Inactive)
REMARK    1  A    between atoms: C_1  and  C_4 
REMARK    2  A    between atoms: C_2  and  O_6 
REMARK    3  A    between atoms: C_4  and  C_8 
REMARK    4  A    between atoms: C_7  and  O_10 
REMARK    5  A    between atoms: C_8  and  O_11 
ROOT
HETATM    1  C   UNK N   1      31.697  17.606   8.048  0.00  0.00    -0.013 A 
HETATM    2  C   UNK N   1      31.264  17.018   6.828  0.00  0.00     0.072 A 
HETATM    3  C   UNK N   1      30.725  18.173   8.889  0.00  0.00     0.047 A 
HETATM    4  C   UNK N   1      29.906  17.016   6.495  0.00  0.00     0.040 A 
HETATM    5  C   UNK N   1      29.370  18.164   8.544  0.00  0.00     0.066 A 
HETATM    6  C   UNK N   1      28.962  17.585   7.347  0.00  0.00     0.039 A 
ENDROOT
BRANCH   1   7
HETATM    7  C   UNK N   1      33.124  17.698   8.568  0.00  0.00     0.151 C 
BRANCH   7   8
HETATM    8  C   UNK N   1      34.336  18.294   7.882  0.00  0.00     0.143 C 
HETATM    9  O   UNK N   1      34.541  18.002   6.716  0.00  0.00    -0.650 OA
BRANCH   8  10
HETATM   10  O   UNK N   1      35.192  19.125   8.496  0.00  0.00    -0.776 OA
HETATM   11  H   UNK N   1      36.063  18.841   8.688  0.00  0.00     0.167 HD
ENDBRANCH   8  10
ENDBRANCH   7   8
ENDBRANCH   1   7
BRANCH   2  12
HETATM   12  O   UNK N   1      32.114  16.454   5.963  0.00  0.00    -0.360 OA
HETATM   13  H   UNK N   1      32.836  15.949   6.279  0.00  0.00     0.217 HD
ENDBRANCH   2  12
BRANCH   5  14
HETATM   14  O   UNK N   1      28.462  18.713   9.366  0.00  0.00    -0.361 OA
HETATM   15  H   UNK N   1      28.193  19.602   9.241  0.00  0.00     0.217 HD
ENDBRANCH   5  14
TORSDOF 5
ENDMDL
MODEL 2
REMARK VINA RESULT:      -5.2      9.913     10.952
REMARK  5 active torsions:
REMARK  status: ('A' for Active; 'I' for Inactive)
REMARK    1  A    between atoms: C_1  and  C_4 
REMARK    2  A    between atoms: C_2  and  O_6 
REMARK    3  A    between atoms: C_4  and  C_8 
REMARK    4  A    between atoms: C_7  and  O_10 
REMARK    5  A    between atoms: C_8  and  O_11 
ROOT
HETATM    1  C   UNK N   1      22.134  12.889  10.177  0.00  0.00    -0.013 A 
HETATM    2  C   UNK N   1      22.874  13.328   9.044  0.00  0.00     0.072 A 
HETATM    3  C   UNK N   1      20.822  13.366  10.333  0.00  0.00     0.047 A 
HETATM    4  C   UNK N   1      22.292  14.208   8.126  0.00  0.00     0.040 A 
HETATM    5  C   UNK N   1      20.253  14.246   9.407  0.00  0.00     0.066 A 
HETATM    6  C   UNK N   1      20.989  14.665   8.304  0.00  0.00     0.039 A 
ENDROOT
BRANCH   1   7
HETATM    7  C   UNK N   1      22.604  11.941  11.270  0.00  0.00     0.151 C 
BRANCH   7   8
HETATM    8  C   UNK N   1      23.814  12.075  12.172  0.00  0.00     0.143 C 
HETATM    9  O   UNK N   1      23.646  12.009  13.377  0.00  0.00    -0.650 OA
BRANCH   8  10
HETATM   10  O   UNK N   1      25.058  12.261  11.706  0.00  0.00    -0.776 OA
HETATM   11  H   UNK N   1      25.328  13.111  11.420  0.00  0.00     0.167 HD
ENDBRANCH   8  10
ENDBRANCH   7   8
ENDBRANCH   1   7
BRANCH   2  12
HETATM   12  O   UNK N   1      24.129  12.929   8.810  0.00  0.00    -0.360 OA
HETATM   13  H   UNK N   1      24.577  13.220   8.041  0.00  0.00     0.217 HD
ENDBRANCH   2  12
BRANCH   5  14
HETATM   14  O   UNK N   1      18.996  14.686   9.579  0.00  0.00    -0.361 OA
HETATM   15  H   UNK N   1      18.840  15.584   9.799  0.00  0.00     0.217 HD
ENDBRANCH   5  14
TORSDOF 5
ENDMDL
MODEL 3
REMARK VINA RESULT:      -5.0      9.701     11.768
REMARK  5 active torsions:
REMARK  status: ('A' for Active; 'I' for Inactive)
REMARK    1  A    between atoms: C_1  and  C_4 
REMARK    2  A    between atoms: C_2  and  O_6 
REMARK    3  A    between atoms: C_4  and  C_8 
REMARK    4  A    between atoms: C_7  and  O_10 
REMARK    5  A    between atoms: C_8  and  O_11 
ROOT
HETATM    1  C   UNK N   1      21.859  13.460   9.782  0.00  0.00    -0.013 A 
HETATM    2  C   UNK N   1      21.111  12.705  10.727  0.00  0.00     0.072 A 
HETATM    3  C   UNK N   1      23.261  13.372   9.829  0.00  0.00     0.047 A 
HETATM    4  C   UNK N   1      21.771  11.906  11.666  0.00  0.00     0.040 A 
HETATM    5  C   UNK N   1      23.908  12.569  10.773  0.00  0.00     0.066 A 
HETATM    6  C   UNK N   1      23.162  11.837  11.690  0.00  0.00     0.039 A 
ENDROOT
BRANCH   1   7
HETATM    7  C   UNK N   1      21.312  14.375   8.697  0.00  0.00     0.151 C 
BRANCH   7   8
HETATM    8  C   UNK N   1      20.358  15.542   8.847  0.00  0.00     0.143 C 
HETATM    9  O   UNK N   1      19.204  15.307   9.161  0.00  0.00    -0.650 OA
BRANCH   8  10
HETATM   10  O   UNK N   1      20.723  16.818   8.652  0.00  0.00    -0.776 OA
HETATM   11  H   UNK N   1      21.296  17.239   9.262  0.00  0.00     0.167 HD
ENDBRANCH   8  10
ENDBRANCH   7   8
ENDBRANCH   1   7
BRANCH   2  12
HETATM   12  O   UNK N   1      19.774  12.724  10.760  0.00  0.00    -0.360 OA
HETATM   13  H   UNK N   1      19.327  13.397  11.233  0.00  0.00     0.217 HD
ENDBRANCH   2  12
BRANCH   5  14
HETATM   14  O   UNK N   1      25.249  12.504  10.796  0.00  0.00    -0.361 OA
HETATM   15  H   UNK N   1      25.703  12.471  11.616  0.00  0.00     0.217 HD
ENDBRANCH   5  14
TORSDOF 5
ENDMDL
MODEL 4
REMARK VINA RESULT:      -5.0      6.928      8.489
REMARK  5 active torsions:
REMARK  status: ('A' for Active; 'I' for Inactive)
REMARK    1  A    between atoms: C_1  and  C_4 
REMARK    2  A    between atoms: C_2  and  O_6 
REMARK    3  A    between atoms: C_4  and  C_8 
REMARK    4  A    between atoms: C_7  and  O_10 
REMARK    5  A    between atoms: C_8  and  O_11 
ROOT
HETATM    1  C   UNK N   1      35.562  14.015  12.973  0.00  0.00    -0.013 A 
HETATM    2  C   UNK N   1      35.129  12.721  13.375  0.00  0.00     0.072 A 
HETATM    3  C   UNK N   1      36.428  14.716  13.828  0.00  0.00     0.047 A 
HETATM    4  C   UNK N   1      35.566  12.183  14.590  0.00  0.00     0.040 A 
HETATM    5  C   UNK N   1      36.857  14.166  15.039  0.00  0.00     0.066 A 
HETATM    6  C   UNK N   1      36.426  12.900  15.419  0.00  0.00     0.039 A 
ENDROOT
BRANCH   1   7
HETATM    7  C   UNK N   1      35.190  14.751  11.694  0.00  0.00     0.151 C 
BRANCH   7   8
HETATM    8  C   UNK N   1      35.855  15.969  11.086  0.00  0.00     0.143 C 
HETATM    9  O   UNK N   1      35.184  16.974  10.927  0.00  0.00    -0.650 OA
BRANCH   8  10
HETATM   10  O   UNK N   1      37.144  15.992  10.715  0.00  0.00    -0.776 OA
HETATM   11  H   UNK N   1      37.452  16.659  10.135  0.00  0.00     0.167 HD
ENDBRANCH   8  10
ENDBRANCH   7   8
ENDBRANCH   1   7
BRANCH   2  12
HETATM   12  O   UNK N   1      34.305  11.978  12.629  0.00  0.00    -0.360 OA
HETATM   13  H   UNK N   1      33.389  12.169  12.612  0.00  0.00     0.217 HD
ENDBRANCH   2  12
BRANCH   5  14
HETATM   14  O   UNK N   1      37.686  14.858  15.838  0.00  0.00    -0.361 OA
HETATM   15  H   UNK N   1      38.095  14.436  16.568  0.00  0.00     0.217 HD
ENDBRANCH   5  14
TORSDOF 5
ENDMDL
MODEL 5
REMARK VINA RESULT:      -4.8      1.906      4.597
REMARK  5 active torsions:
REMARK  status: ('A' for Active; 'I' for Inactive)
REMARK    1  A    between atoms: C_1  and  C_4 
REMARK    2  A    between atoms: C_2  and  O_6 
REMARK    3  A    between atoms: C_4  and  C_8 
REMARK    4  A    between atoms: C_7  and  O_10 
REMARK    5  A    between atoms: C_8  and  O_11 
ROOT
HETATM    1  C   UNK N   1      30.599  17.279   7.236  0.00  0.00    -0.013 A 
HETATM    2  C   UNK N   1      31.935  17.377   7.715  0.00  0.00     0.072 A 
HETATM    3  C   UNK N   1      30.395  17.277   5.846  0.00  0.00     0.047 A 
HETATM    4  C   UNK N   1      32.997  17.468   6.810  0.00  0.00     0.040 A 
HETATM    5  C   UNK N   1      31.467  17.368   4.953  0.00  0.00     0.066 A 
HETATM    6  C   UNK N   1      32.767  17.463   5.436  0.00  0.00     0.039 A 
ENDROOT
BRANCH   1   7
HETATM    7  C   UNK N   1      29.330  17.173   8.069  0.00  0.00     0.151 C 
BRANCH   7   8
HETATM    8  C   UNK N   1      28.814  18.136   9.119  0.00  0.00     0.143 C 
HETATM    9  O   UNK N   1      29.626  18.749   9.789  0.00  0.00    -0.650 OA
BRANCH   8  10
HETATM   10  O   UNK N   1      27.508  18.345   9.343  0.00  0.00    -0.776 OA
HETATM   11  H   UNK N   1      26.951  18.620   8.642  0.00  0.00     0.167 HD
ENDBRANCH   8  10
ENDBRANCH   7   8
ENDBRANCH   1   7
BRANCH   2  12
HETATM   12  O   UNK N   1      32.229  17.387   9.019  0.00  0.00    -0.360 OA
HETATM   13  H   UNK N   1      31.545  17.469   9.652  0.00  0.00     0.217 HD
ENDBRANCH   2  12
BRANCH   5  14
HETATM   14  O   UNK N   1      31.243  17.363   3.629  0.00  0.00    -0.361 OA
HETATM   15  H   UNK N   1      30.597  16.791   3.264  0.00  0.00     0.217 HD
ENDBRANCH   5  14
TORSDOF 5
ENDMDL
MODEL 6
REMARK VINA RESULT:      -4.8      1.331      4.442
REMARK  5 active torsions:
REMARK  status: ('A' for Active; 'I' for Inactive)
REMARK    1  A    between atoms: C_1  and  C_4 
REMARK    2  A    between atoms: C_2  and  O_6 
REMARK    3  A    between atoms: C_4  and  C_8 
REMARK    4  A    between atoms: C_7  and  O_10 
REMARK    5  A    between atoms: C_8  and  O_11 
ROOT
HETATM    1  C   UNK N   1      31.168  17.576   7.729  0.00  0.00    -0.013 A 
HETATM    2  C   UNK N   1      31.064  17.055   6.410  0.00  0.00     0.072 A 
HETATM    3  C   UNK N   1      32.426  18.027   8.163  0.00  0.00     0.047 A 
HETATM    4  C   UNK N   1      32.194  17.004   5.587  0.00  0.00     0.040 A 
HETATM    5  C   UNK N   1      33.547  17.970   7.330  0.00  0.00     0.066 A 
HETATM    6  C   UNK N   1      33.429  17.458   6.042  0.00  0.00     0.039 A 
ENDROOT
BRANCH   1   7
HETATM    7  C   UNK N   1      30.052  17.707   8.755  0.00  0.00     0.151 C 
BRANCH   7   8
HETATM    8  C   UNK N   1      28.668  18.294   8.566  0.00  0.00     0.143 C 
HETATM    9  O   UNK N   1      28.450  18.945   7.560  0.00  0.00    -0.650 OA
BRANCH   8  10
HETATM   10  O   UNK N   1      27.675  18.130   9.453  0.00  0.00    -0.776 OA
HETATM   11  H   UNK N   1      27.621  17.342   9.955  0.00  0.00     0.167 HD
ENDBRANCH   8  10
ENDBRANCH   7   8
ENDBRANCH   1   7
BRANCH   2  12
HETATM   12  O   UNK N   1      29.911  16.602   5.907  0.00  0.00    -0.360 OA
HETATM   13  H   UNK N   1      29.452  15.911   6.340  0.00  0.00     0.217 HD
ENDBRANCH   2  12
BRANCH   5  14
HETATM   14  O   UNK N   1      34.737  18.408   7.770  0.00  0.00    -0.361 OA
HETATM   15  H   UNK N   1      34.781  19.147   8.345  0.00  0.00     0.217 HD
ENDBRANCH   5  14
TORSDOF 5
ENDMDL
MODEL 7
REMARK VINA RESULT:      -4.8      7.067      9.797
REMARK  5 active torsions:
REMARK  status: ('A' for Active; 'I' for Inactive)
REMARK    1  A    between atoms: C_1  and  C_4 
REMARK    2  A    between atoms: C_2  and  O_6 
REMARK    3  A    between atoms: C_4  and  C_8 
REMARK    4  A    between atoms: C_7  and  O_10 
REMARK    5  A    between atoms: C_8  and  O_11 
ROOT
HETATM    1  C   UNK N   1      24.026  19.403   3.698  0.00  0.00    -0.013 A 
HETATM    2  C   UNK N   1      24.936  20.244   3.000  0.00  0.00     0.072 A 
HETATM    3  C   UNK N   1      24.537  18.576   4.713  0.00  0.00     0.047 A 
HETATM    4  C   UNK N   1      26.294  20.233   3.331  0.00  0.00     0.040 A 
HETATM    5  C   UNK N   1      25.897  18.575   5.034  0.00  0.00     0.066 A 
HETATM    6  C   UNK N   1      26.775  19.404   4.342  0.00  0.00     0.039 A 
ENDROOT
BRANCH   1   7
HETATM    7  C   UNK N   1      22.526  19.286   3.472  0.00  0.00     0.151 C 
BRANCH   7   8
HETATM    8  C   UNK N   1      21.507  20.399   3.340  0.00  0.00     0.143 C 
HETATM    9  O   UNK N   1      20.448  20.286   3.932  0.00  0.00    -0.650 OA
BRANCH   8  10
HETATM   10  O   UNK N   1      21.716  21.500   2.603  0.00  0.00    -0.776 OA
HETATM   11  H   UNK N   1      21.323  22.313   2.853  0.00  0.00     0.167 HD
ENDBRANCH   8  10
ENDBRANCH   7   8
ENDBRANCH   1   7
BRANCH   2  12
HETATM   12  O   UNK N   1      24.544  21.064   2.019  0.00  0.00    -0.360 OA
HETATM   13  H   UNK N   1      24.902  21.928   1.961  0.00  0.00     0.217 HD
ENDBRANCH   2  12
BRANCH   5  14
HETATM   14  O   UNK N   1      26.360  17.776   6.008  0.00  0.00    -0.361 OA
HETATM   15  H   UNK N   1      25.826  17.078   6.335  0.00  0.00     0.217 HD
ENDBRANCH   5  14
TORSDOF 5
ENDMDL
MODEL 8
REMARK VINA RESULT:      -4.7      1.786      2.921
REMARK  5 active torsions:
REMARK  status: ('A' for Active; 'I' for Inactive)
REMARK    1  A    between atoms: C_1  and  C_4 
REMARK    2  A    between atoms: C_2  and  O_6 
REMARK    3  A    between atoms: C_4  and  C_8 
REMARK    4  A    between atoms: C_7  and  O_10 
REMARK    5  A    between atoms: C_8  and  O_11 
ROOT
HETATM    1  C   UNK N   1      32.736  17.243   6.997  0.00  0.00    -0.013 A 
HETATM    2  C   UNK N   1      31.586  17.155   7.829  0.00  0.00     0.072 A 
HETATM    3  C   UNK N   1      32.541  17.326   5.608  0.00  0.00     0.047 A 
HETATM    4  C   UNK N   1      30.309  17.152   7.259  0.00  0.00     0.040 A 
HETATM    5  C   UNK N   1      31.259  17.322   5.052  0.00  0.00     0.066 A 
HETATM    6  C   UNK N   1      30.144  17.235   5.878  0.00  0.00     0.039 A 
ENDROOT
BRANCH   1   7
HETATM    7  C   UNK N   1      34.191  17.259   7.441  0.00  0.00     0.151 C 
BRANCH   7   8
HETATM    8  C   UNK N   1      34.824  18.069   8.555  0.00  0.00     0.143 C 
HETATM    9  O   UNK N   1      34.983  19.264   8.381  0.00  0.00    -0.650 OA
BRANCH   8  10
HETATM   10  O   UNK N   1      35.215  17.532   9.720  0.00  0.00    -0.776 OA
HETATM   11  H   UNK N   1      34.630  17.523  10.451  0.00  0.00     0.167 HD
ENDBRANCH   8  10
ENDBRANCH   7   8
ENDBRANCH   1   7
BRANCH   2  12
HETATM   12  O   UNK N   1      31.670  17.072   9.160  0.00  0.00    -0.360 OA
HETATM   13  H   UNK N   1      31.669  16.234   9.578  0.00  0.00     0.217 HD
ENDBRANCH   2  12
BRANCH   5  14
HETATM   14  O   UNK N   1      31.101  17.403   3.721  0.00  0.00    -0.361 OA
HETATM   15  H   UNK N   1      30.303  17.111   3.325  0.00  0.00     0.217 HD
ENDBRANCH   5  14
TORSDOF 5
ENDMDL
MODEL 9
REMARK VINA RESULT:      -4.7      2.932      4.374
REMARK  5 active torsions:
REMARK  status: ('A' for Active; 'I' for Inactive)
REMARK    1  A    between atoms: C_1  and  C_4 
REMARK    2  A    between atoms: C_2  and  O_6 
REMARK    3  A    between atoms: C_4  and  C_8 
REMARK    4  A    between atoms: C_7  and  O_10 
REMARK    5  A    between atoms: C_8  and  O_11 
ROOT
HETATM    1  C   UNK N   1      34.457  17.005   9.285  0.00  0.00    -0.013 A 
HETATM    2  C   UNK N   1      34.496  18.051   8.322  0.00  0.00     0.072 A 
HETATM    3  C   UNK N   1      33.625  15.902   9.029  0.00  0.00     0.047 A 
HETATM    4  C   UNK N   1      33.721  17.961   7.161  0.00  0.00     0.040 A 
HETATM    5  C   UNK N   1      32.856  15.826   7.864  0.00  0.00     0.066 A 
HETATM    6  C   UNK N   1      32.905  16.856   6.931  0.00  0.00     0.039 A 
ENDROOT
BRANCH   1   7
HETATM    7  C   UNK N   1      35.227  16.935  10.595  0.00  0.00     0.151 C 
BRANCH   7   8
HETATM    8  C   UNK N   1      36.145  15.834  11.086  0.00  0.00     0.143 C 
HETATM    9  O   UNK N   1      35.738  15.090  11.961  0.00  0.00    -0.650 OA
BRANCH   8  10
HETATM   10  O   UNK N   1      37.382  15.641  10.603  0.00  0.00    -0.776 OA
HETATM   11  H   UNK N   1      38.092  16.169  10.910  0.00  0.00     0.167 HD
ENDBRANCH   8  10
ENDBRANCH   7   8
ENDBRANCH   1   7
BRANCH   2  12
HETATM   12  O   UNK N   1      35.256  19.139   8.477  0.00  0.00    -0.360 OA
HETATM   13  H   UNK N   1      35.119  19.705   9.210  0.00  0.00     0.217 HD
ENDBRANCH   2  12
BRANCH   5  14
HETATM   14  O   UNK N   1      32.070  14.761   7.644  0.00  0.00    -0.361 OA
HETATM   15  H   UNK N   1      31.997  14.402   6.781  0.00  0.00     0.217 HD
ENDBRANCH   5  14
TORSDOF 5
ENDMDL
