MODEL 1
REMARK VINA RESULT:      -5.6      0.000      0.000
REMARK  7 active torsions:
REMARK  status: ('A' for Active; 'I' for Inactive)
REMARK    1  A    between atoms: C_7  and  C_5 
REMARK    2  A    between atoms: C_10  and  C_5 
REMARK    3  A    between atoms: C_6  and  O_11 
REMARK    4  A    between atoms: C_8  and  C_7 
REMARK    5  A    between atoms: O_13  and  C_8 
REMARK    6  A    between atoms: C_10  and  C_9 
REMARK    7  A    between atoms: O_16  and  C_9 
ROOT
HETATM    1  C   UNK N   1      30.791  16.196   5.612  0.00  0.00     0.006 C 
HETATM    2  C   UNK N   1      32.178  17.726   4.281  0.00  0.00     0.006 C 
HETATM    3  C   UNK N   1      31.868  15.811   6.320  0.00  0.00    -0.003 C 
HETATM    4  C   UNK N   1      33.270  17.372   4.981  0.00  0.00    -0.003 C 
HETATM    5  C   UNK N   1      30.820  17.516   4.891  0.00  0.00     0.163 C 
HETATM    6  C   UNK N   1      33.139  16.647   6.318  0.00  0.00     0.087 C 
ENDROOT
BRANCH   6   7
HETATM    7  C   UNK N   1      33.008  17.646   7.487  0.00  0.00     0.119 C 
BRANCH   7   8
HETATM    8  C   UNK N   1      34.257  17.985   8.259  0.00  0.00     0.223 C 
HETATM    9  O   UNK N   1      35.026  18.839   7.847  0.00  0.00    -0.286 OA
BRANCH   8  10
HETATM   10  C   UNK N   1      34.594  17.230   9.482  0.00  0.00     0.213 C 
HETATM   11  O   UNK N   1      35.579  17.532  10.140  0.00  0.00    -0.644 OA
BRANCH  10  12
HETATM   12  O   UNK N   1      33.804  16.221   9.895  0.00  0.00    -0.771 OA
HETATM   13  H   UNK N   1      33.365  15.530   9.438  0.00  0.00     0.167 HD
ENDBRANCH  10  12
ENDBRANCH   8  10
ENDBRANCH   7   8
ENDBRANCH   6   7
BRANCH   6  14
HETATM   14  C   UNK N   1      34.309  15.700   6.484  0.00  0.00     0.157 C 
HETATM   15  O   UNK N   1      35.349  15.905   5.875  0.00  0.00    -0.649 OA
BRANCH  14  16
HETATM   16  O   UNK N   1      34.217  14.615   7.276  0.00  0.00    -0.775 OA
HETATM   17  H   UNK N   1      34.698  14.547   8.077  0.00  0.00     0.167 HD
ENDBRANCH  14  16
ENDBRANCH   6  14
BRANCH   5  18
HETATM   18  O   UNK N   1      29.826  17.565   3.916  0.00  0.00    -0.388 OA
HETATM   19  H   UNK N   1      29.067  18.163   4.006  0.00  0.00     0.210 HD
ENDBRANCH   5  18
TORSDOF 7
ENDMDL
MODEL 2
REMARK VINA RESULT:      -5.5      1.600      3.085
REMARK  7 active torsions:
REMARK  status: ('A' for Active; 'I' for Inactive)
REMARK    1  A    between atoms: C_7  and  C_5 
REMARK    2  A    between atoms: C_10  and  C_5 
REMARK    3  A    between atoms: C_6  and  O_11 
REMARK    4  A    between atoms: C_8  and  C_7 
REMARK    5  A    between atoms: O_13  and  C_8 
REMARK    6  A    between atoms: C_10  and  C_9 
REMARK    7  A    between atoms: O_16  and  C_9 
ROOT
HETATM    1  C   UNK N   1      32.701  17.500   5.542  0.00  0.00     0.006 C 
HETATM    2  C   UNK N   1      31.234  17.243   7.496  0.00  0.00     0.006 C 
HETATM    3  C   UNK N   1      33.780  17.577   6.343  0.00  0.00    -0.003 C 
HETATM    4  C   UNK N   1      32.294  17.302   8.321  0.00  0.00    -0.003 C 
HETATM    5  C   UNK N   1      31.447  16.851   6.060  0.00  0.00     0.163 C 
HETATM    6  C   UNK N   1      33.710  17.105   7.787  0.00  0.00     0.087 C 
ENDROOT
BRANCH   6   7
HETATM    7  C   UNK N   1      34.102  15.613   7.779  0.00  0.00     0.119 C 
BRANCH   7   8
HETATM    8  C   UNK N   1      33.397  14.701   8.750  0.00  0.00     0.223 C 
HETATM    9  O   UNK N   1      32.472  13.996   8.375  0.00  0.00    -0.286 OA
BRANCH   8  10
HETATM   10  C   UNK N   1      33.775  14.709  10.177  0.00  0.00     0.213 C 
HETATM   11  O   UNK N   1      34.928  14.478  10.510  0.00  0.00    -0.644 OA
BRANCH  10  12
HETATM   12  O   UNK N   1      32.857  14.998  11.118  0.00  0.00    -0.771 OA
HETATM   13  H   UNK N   1      32.326  14.460  11.674  0.00  0.00     0.167 HD
ENDBRANCH  10  12
ENDBRANCH   8  10
ENDBRANCH   7   8
ENDBRANCH   6   7
BRANCH   6  14
HETATM   14  C   UNK N   1      34.665  17.959   8.593  0.00  0.00     0.157 C 
HETATM   15  O   UNK N   1      34.947  19.085   8.210  0.00  0.00    -0.649 OA
BRANCH  14  16
HETATM   16  O   UNK N   1      35.234  17.490   9.721  0.00  0.00    -0.775 OA
HETATM   17  H   UNK N   1      34.869  16.767  10.193  0.00  0.00     0.167 HD
ENDBRANCH  14  16
ENDBRANCH   6  14
BRANCH   5  18
HETATM   18  O   UNK N   1      30.350  17.210   5.280  0.00  0.00    -0.388 OA
HETATM   19  H   UNK N   1      29.474  17.338   5.678  0.00  0.00     0.210 HD
ENDBRANCH   5  18
TORSDOF 7
ENDMDL
MODEL 3
REMARK VINA RESULT:      -5.4      1.930      2.929
REMARK  7 active torsions:
REMARK  status: ('A' for Active; 'I' for Inactive)
REMARK    1  A    between atoms: C_7  and  C_5 
REMARK    2  A    between atoms: C_10  and  C_5 
REMARK    3  A    between atoms: C_6  and  O_11 
REMARK    4  A    between atoms: C_8  and  C_7 
REMARK    5  A    between atoms: O_13  and  C_8 
REMARK    6  A    between atoms: C_10  and  C_9 
REMARK    7  A    between atoms: O_16  and  C_9 
ROOT
HETATM    1  C   UNK N   1      30.385  17.068   6.568  0.00  0.00     0.006 C 
HETATM    2  C   UNK N   1      30.641  18.166   8.752  0.00  0.00     0.006 C 
HETATM    3  C   UNK N   1      31.722  17.017   6.421  0.00  0.00    -0.003 C 
HETATM    4  C   UNK N   1      31.980  18.116   8.639  0.00  0.00    -0.003 C 
HETATM    5  C   UNK N   1      29.804  17.209   7.949  0.00  0.00     0.163 C 
HETATM    6  C   UNK N   1      32.643  17.196   7.618  0.00  0.00     0.087 C 
ENDROOT
BRANCH   6   7
HETATM    7  C   UNK N   1      32.880  15.788   8.203  0.00  0.00     0.119 C 
BRANCH   7   8
HETATM    8  C   UNK N   1      34.222  15.509   8.828  0.00  0.00     0.223 C 
HETATM    9  O   UNK N   1      35.089  14.926   8.195  0.00  0.00    -0.286 OA
BRANCH   8  10
HETATM   10  C   UNK N   1      34.469  15.873  10.237  0.00  0.00     0.213 C 
HETATM   11  O   UNK N   1      34.316  15.045  11.123  0.00  0.00    -0.644 OA
BRANCH  10  12
HETATM   12  O   UNK N   1      34.891  17.113  10.552  0.00  0.00    -0.771 OA
HETATM   13  H   UNK N   1      35.455  17.440  11.225  0.00  0.00     0.167 HD
ENDBRANCH  10  12
ENDBRANCH   8  10
ENDBRANCH   7   8
ENDBRANCH   6   7
BRANCH   6  14
HETATM   14  C   UNK N   1      33.917  17.847   7.120  0.00  0.00     0.157 C 
HETATM   15  O   UNK N   1      34.310  17.625   5.984  0.00  0.00    -0.649 OA
BRANCH  14  16
HETATM   16  O   UNK N   1      34.642  18.652   7.920  0.00  0.00    -0.775 OA
HETATM   17  H   UNK N   1      34.449  19.565   8.007  0.00  0.00     0.167 HD
ENDBRANCH  14  16
ENDBRANCH   6  14
BRANCH   5  18
HETATM   18  O   UNK N   1      28.481  17.641   7.883  0.00  0.00    -0.388 OA
HETATM   19  H   UNK N   1      28.039  18.015   8.661  0.00  0.00     0.210 HD
ENDBRANCH   5  18
TORSDOF 7
ENDMDL
MODEL 4
REMARK VINA RESULT:      -5.4      2.678      3.145
REMARK  7 active torsions:
REMARK  status: ('A' for Active; 'I' for Inactive)
REMARK    1  A    between atoms: C_7  and  C_5 
REMARK    2  A    between atoms: C_10  and  C_5 
REMARK    3  A    between atoms: C_6  and  O_11 
REMARK    4  A    between atoms: C_8  and  C_7 
REMARK    5  A    between atoms: O_13  and  C_8 
REMARK    6  A    between atoms: C_10  and  C_9 
REMARK    7  A    between atoms: O_16  and  C_9 
ROOT
HETATM    1  C   UNK N   1      29.514  17.167   9.660  0.00  0.00     0.006 C 
HETATM    2  C   UNK N   1      28.968  17.992   7.411  0.00  0.00     0.006 C 
HETATM    3  C   UNK N   1      30.635  16.588   9.192  0.00  0.00    -0.003 C 
HETATM    4  C   UNK N   1      30.088  17.437   6.917  0.00  0.00    -0.003 C 
HETATM    5  C   UNK N   1      28.890  18.294   8.882  0.00  0.00     0.163 C 
HETATM    6  C   UNK N   1      31.215  16.994   7.846  0.00  0.00     0.087 C 
ENDROOT
BRANCH   6   7
HETATM    7  C   UNK N   1      32.198  18.150   8.123  0.00  0.00     0.119 C 
BRANCH   7   8
HETATM    8  C   UNK N   1      33.672  17.854   8.019  0.00  0.00     0.223 C 
HETATM    9  O   UNK N   1      34.247  17.948   6.945  0.00  0.00    -0.286 OA
BRANCH   8  10
HETATM   10  C   UNK N   1      34.414  17.375   9.202  0.00  0.00     0.213 C 
HETATM   11  O   UNK N   1      35.393  17.986   9.603  0.00  0.00    -0.644 OA
BRANCH  10  12
HETATM   12  O   UNK N   1      34.000  16.277   9.862  0.00  0.00    -0.771 OA
HETATM   13  H   UNK N   1      33.192  16.056  10.284  0.00  0.00     0.167 HD
ENDBRANCH  10  12
ENDBRANCH   8  10
ENDBRANCH   7   8
ENDBRANCH   6   7
BRANCH   6  14
HETATM   14  C   UNK N   1      31.893  15.776   7.255  0.00  0.00     0.157 C 
HETATM   15  O   UNK N   1      32.145  14.814   7.967  0.00  0.00    -0.649 OA
BRANCH  14  16
HETATM   16  O   UNK N   1      32.249  15.741   5.957  0.00  0.00    -0.775 OA
HETATM   17  H   UNK N   1      33.111  15.979   5.675  0.00  0.00     0.167 HD
ENDBRANCH  14  16
ENDBRANCH   6  14
BRANCH   5  18
HETATM   18  O   UNK N   1      27.569  18.491   9.279  0.00  0.00    -0.388 OA
HETATM   19  H   UNK N   1      27.089  19.298   9.033  0.00  0.00     0.210 HD
ENDBRANCH   5  18
TORSDOF 7
ENDMDL
MODEL 5
REMARK VINA RESULT:      -5.3     10.297     12.909
REMARK  7 active torsions:
REMARK  status: ('A' for Active; 'I' for Inactive)
REMARK    1  A    between atoms: C_7  and  C_5 
REMARK    2  A    between atoms: C_10  and  C_5 
REMARK    3  A    between atoms: C_6  and  O_11 
REMARK    4  A    between atoms: C_8  and  C_7 
REMARK    5  A    between atoms: O_13  and  C_8 
REMARK    6  A    between atoms: C_10  and  C_9 
REMARK    7  A    between atoms: O_16  and  C_9 
ROOT
HETATM    1  C   UNK N   1      24.667  13.058   9.470  0.00  0.00     0.006 C 
HETATM    2  C   UNK N   1      22.989  11.612  10.533  0.00  0.00     0.006 C 
HETATM    3  C   UNK N   1      23.775  13.430   8.533  0.00  0.00    -0.003 C 
HETATM    4  C   UNK N   1      22.072  11.976   9.619  0.00  0.00    -0.003 C 
HETATM    5  C   UNK N   1      24.170  12.509  10.779  0.00  0.00     0.163 C 
HETATM    6  C   UNK N   1      22.286  13.211   8.748  0.00  0.00     0.087 C 
ENDROOT
BRANCH   6   7
HETATM    7  C   UNK N   1      21.751  14.483   9.440  0.00  0.00     0.119 C 
BRANCH   7   8
HETATM    8  C   UNK N   1      20.301  14.833   9.231  0.00  0.00     0.223 C 
HETATM    9  O   UNK N   1      19.421  14.149   9.731  0.00  0.00    -0.286 OA
BRANCH   8  10
HETATM   10  C   UNK N   1      19.934  15.966   8.358  0.00  0.00     0.213 C 
HETATM   11  O   UNK N   1      19.222  15.785   7.381  0.00  0.00    -0.644 OA
BRANCH  10  12
HETATM   12  O   UNK N   1      20.360  17.210   8.648  0.00  0.00    -0.771 OA
HETATM   13  H   UNK N   1      20.946  17.798   8.212  0.00  0.00     0.167 HD
ENDBRANCH  10  12
ENDBRANCH   8  10
ENDBRANCH   7   8
ENDBRANCH   6   7
BRANCH   6  14
HETATM   14  C   UNK N   1      21.658  12.973   7.391  0.00  0.00     0.157 C 
HETATM   15  O   UNK N   1      20.855  12.064   7.243  0.00  0.00    -0.649 OA
BRANCH  14  16
HETATM   16  O   UNK N   1      21.989  13.734   6.330  0.00  0.00    -0.775 OA
HETATM   17  H   UNK N   1      21.996  14.671   6.378  0.00  0.00     0.167 HD
ENDBRANCH  14  16
ENDBRANCH   6  14
BRANCH   5  18
HETATM   18  O   UNK N   1      25.186  11.821  11.440  0.00  0.00    -0.388 OA
HETATM   19  H   UNK N   1      25.120  10.867  11.601  0.00  0.00     0.210 HD
ENDBRANCH   5  18
TORSDOF 7
ENDMDL
MODEL 6
REMARK VINA RESULT:      -5.1      1.551      2.961
REMARK  7 active torsions:
REMARK  status: ('A' for Active; 'I' for Inactive)
REMARK    1  A    between atoms: C_7  and  C_5 
REMARK    2  A    between atoms: C_10  and  C_5 
REMARK    3  A    between atoms: C_6  and  O_11 
REMARK    4  A    between atoms: C_8  and  C_7 
REMARK    5  A    between atoms: O_13  and  C_8 
REMARK    6  A    between atoms: C_10  and  C_9 
REMARK    7  A    between atoms: O_16  and  C_9 
ROOT
HETATM    1  C   UNK N   1      32.609  17.381   3.988  0.00  0.00     0.006 C 
HETATM    2  C   UNK N   1      30.591  17.000   5.337  0.00  0.00     0.006 C 
HETATM    3  C   UNK N   1      33.345  17.530   5.105  0.00  0.00    -0.003 C 
HETATM    4  C   UNK N   1      31.303  17.129   6.470  0.00  0.00    -0.003 C 
HETATM    5  C   UNK N   1      31.303  16.637   4.063  0.00  0.00     0.163 C 
HETATM    6  C   UNK N   1      32.826  17.041   6.448  0.00  0.00     0.087 C 
ENDROOT
BRANCH   6   7
HETATM    7  C   UNK N   1      33.304  15.581   6.598  0.00  0.00     0.119 C 
BRANCH   7   8
HETATM    8  C   UNK N   1      33.741  15.126   7.966  0.00  0.00     0.223 C 
HETATM    9  O   UNK N   1      34.912  15.215   8.303  0.00  0.00    -0.286 OA
BRANCH   8  10
HETATM   10  C   UNK N   1      32.765  14.501   8.881  0.00  0.00     0.213 C 
HETATM   11  O   UNK N   1      32.338  13.379   8.652  0.00  0.00    -0.644 OA
BRANCH  10  12
HETATM   12  O   UNK N   1      32.361  15.152   9.988  0.00  0.00    -0.771 OA
HETATM   13  H   UNK N   1      32.581  15.989  10.349  0.00  0.00     0.167 HD
ENDBRANCH  10  12
ENDBRANCH   8  10
ENDBRANCH   7   8
ENDBRANCH   6   7
BRANCH   6  14
HETATM   14  C   UNK N   1      33.389  17.955   7.516  0.00  0.00     0.157 C 
HETATM   15  O   UNK N   1      32.660  18.378   8.401  0.00  0.00    -0.649 OA
BRANCH  14  16
HETATM   16  O   UNK N   1      34.682  18.333   7.495  0.00  0.00    -0.775 OA
HETATM   17  H   UNK N   1      35.249  18.112   6.782  0.00  0.00     0.167 HD
ENDBRANCH  14  16
ENDBRANCH   6  14
BRANCH   5  18
HETATM   18  O   UNK N   1      30.512  16.922   2.953  0.00  0.00    -0.388 OA
HETATM   19  H   UNK N   1      30.257  17.834   2.742  0.00  0.00     0.210 HD
ENDBRANCH   5  18
TORSDOF 7
ENDMDL
MODEL 7
REMARK VINA RESULT:      -5.1     10.898     12.623
REMARK  7 active torsions:
REMARK  status: ('A' for Active; 'I' for Inactive)
REMARK    1  A    between atoms: C_7  and  C_5 
REMARK    2  A    between atoms: C_10  and  C_5 
REMARK    3  A    between atoms: C_6  and  O_11 
REMARK    4  A    between atoms: C_8  and  C_7 
REMARK    5  A    between atoms: O_13  and  C_8 
REMARK    6  A    between atoms: C_10  and  C_9 
REMARK    7  A    between atoms: O_16  and  C_9 
ROOT
HETATM    1  C   UNK N   1      30.629  20.441  -6.175  0.00  0.00     0.006 C 
HETATM    2  C   UNK N   1      30.797  22.889  -6.032  0.00  0.00     0.006 C 
HETATM    3  C   UNK N   1      31.303  20.313  -5.017  0.00  0.00    -0.003 C 
HETATM    4  C   UNK N   1      31.459  22.792  -4.866  0.00  0.00    -0.003 C 
HETATM    5  C   UNK N   1      29.935  21.741  -6.479  0.00  0.00     0.163 C 
HETATM    6  C   UNK N   1      31.448  21.492  -4.067  0.00  0.00     0.087 C 
ENDROOT
BRANCH   6   7
HETATM    7  C   UNK N   1      30.240  21.434  -3.110  0.00  0.00     0.119 C 
BRANCH   7   8
HETATM    8  C   UNK N   1      29.885  22.690  -2.357  0.00  0.00     0.223 C 
HETATM    9  O   UNK N   1      30.621  23.113  -1.477  0.00  0.00    -0.286 OA
BRANCH   8  10
HETATM   10  C   UNK N   1      28.607  23.378  -2.629  0.00  0.00     0.213 C 
HETATM   11  O   UNK N   1      27.672  23.271  -1.849  0.00  0.00    -0.644 OA
BRANCH  10  12
HETATM   12  O   UNK N   1      28.473  24.148  -3.725  0.00  0.00    -0.771 OA
HETATM   13  H   UNK N   1      28.156  25.021  -3.852  0.00  0.00     0.167 HD
ENDBRANCH  10  12
ENDBRANCH   8  10
ENDBRANCH   7   8
ENDBRANCH   6   7
BRANCH   6  14
HETATM   14  C   UNK N   1      32.773  21.340  -3.350  0.00  0.00     0.157 C 
HETATM   15  O   UNK N   1      33.818  21.418  -3.980  0.00  0.00    -0.649 OA
BRANCH  14  16
HETATM   16  O   UNK N   1      32.822  21.096  -2.027  0.00  0.00    -0.775 OA
HETATM   17  H   UNK N   1      32.132  21.361  -1.450  0.00  0.00     0.167 HD
ENDBRANCH  14  16
ENDBRANCH   6  14
BRANCH   5  18
HETATM   18  O   UNK N   1      29.647  21.837  -7.839  0.00  0.00    -0.388 OA
HETATM   19  H   UNK N   1      28.849  22.292  -8.150  0.00  0.00     0.210 HD
ENDBRANCH   5  18
TORSDOF 7
ENDMDL
MODEL 8
REMARK VINA RESULT:      -5.1      2.934      5.251
REMARK  7 active torsions:
REMARK  status: ('A' for Active; 'I' for Inactive)
REMARK    1  A    between atoms: C_7  and  C_5 
REMARK    2  A    between atoms: C_10  and  C_5 
REMARK    3  A    between atoms: C_6  and  O_11 
REMARK    4  A    between atoms: C_8  and  C_7 
REMARK    5  A    between atoms: O_13  and  C_8 
REMARK    6  A    between atoms: C_10  and  C_9 
REMARK    7  A    between atoms: O_16  and  C_9 
ROOT
HETATM    1  C   UNK N   1      34.251  17.739   7.994  0.00  0.00     0.006 C 
HETATM    2  C   UNK N   1      33.463  15.833   9.331  0.00  0.00     0.006 C 
HETATM    3  C   UNK N   1      33.091  17.758   7.312  0.00  0.00    -0.003 C 
HETATM    4  C   UNK N   1      32.289  15.838   8.677  0.00  0.00    -0.003 C 
HETATM    5  C   UNK N   1      34.294  17.087   9.349  0.00  0.00     0.163 C 
HETATM    6  C   UNK N   1      31.859  17.048   7.852  0.00  0.00     0.087 C 
ENDROOT
BRANCH   6   7
HETATM    7  C   UNK N   1      31.105  18.077   8.720  0.00  0.00     0.119 C 
BRANCH   7   8
HETATM    8  C   UNK N   1      29.735  17.699   9.219  0.00  0.00     0.223 C 
HETATM    9  O   UNK N   1      29.601  16.805  10.041  0.00  0.00    -0.286 OA
BRANCH   8  10
HETATM   10  C   UNK N   1      28.539  18.359   8.660  0.00  0.00     0.213 C 
HETATM   11  O   UNK N   1      28.591  18.908   7.569  0.00  0.00    -0.644 OA
BRANCH  10  12
HETATM   12  O   UNK N   1      27.375  18.339   9.338  0.00  0.00    -0.771 OA
HETATM   13  H   UNK N   1      26.654  18.936   9.379  0.00  0.00     0.167 HD
ENDBRANCH  10  12
ENDBRANCH   8  10
ENDBRANCH   7   8
ENDBRANCH   6   7
BRANCH   6  14
HETATM   14  C   UNK N   1      31.047  16.575   6.665  0.00  0.00     0.157 C 
HETATM   15  O   UNK N   1      30.874  15.378   6.485  0.00  0.00    -0.649 OA
BRANCH  14  16
HETATM   16  O   UNK N   1      30.529  17.452   5.784  0.00  0.00    -0.775 OA
HETATM   17  H   UNK N   1      29.604  17.528   5.650  0.00  0.00     0.167 HD
ENDBRANCH  14  16
ENDBRANCH   6  14
BRANCH   5  18
HETATM   18  O   UNK N   1      35.608  16.806   9.717  0.00  0.00    -0.388 OA
HETATM   19  H   UNK N   1      35.920  15.891   9.794  0.00  0.00     0.210 HD
ENDBRANCH   5  18
TORSDOF 7
ENDMDL
MODEL 9
REMARK VINA RESULT:      -5.1      1.693      2.813
REMARK  7 active torsions:
REMARK  status: ('A' for Active; 'I' for Inactive)
REMARK    1  A    between atoms: C_7  and  C_5 
REMARK    2  A    between atoms: C_10  and  C_5 
REMARK    3  A    between atoms: C_6  and  O_11 
REMARK    4  A    between atoms: C_8  and  C_7 
REMARK    5  A    between atoms: O_13  and  C_8 
REMARK    6  A    between atoms: C_10  and  C_9 
REMARK    7  A    between atoms: O_16  and  C_9 
ROOT
HETATM    1  C   UNK N   1      30.117  16.600   5.119  0.00  0.00     0.006 C 
HETATM    2  C   UNK N   1      31.464  14.657   5.790  0.00  0.00     0.006 C 
HETATM    3  C   UNK N   1      30.434  17.233   6.263  0.00  0.00    -0.003 C 
HETATM    4  C   UNK N   1      31.809  15.271   6.935  0.00  0.00    -0.003 C 
HETATM    5  C   UNK N   1      31.004  15.489   4.625  0.00  0.00     0.163 C 
HETATM    6  C   UNK N   1      31.616  16.776   7.103  0.00  0.00     0.087 C 
ENDROOT
BRANCH   6   7
HETATM    7  C   UNK N   1      32.844  17.558   6.594  0.00  0.00     0.119 C 
BRANCH   7   8
HETATM    8  C   UNK N   1      34.173  17.268   7.242  0.00  0.00     0.223 C 
HETATM    9  O   UNK N   1      34.900  16.392   6.797  0.00  0.00    -0.286 OA
BRANCH   8  10
HETATM   10  C   UNK N   1      34.572  17.993   8.465  0.00  0.00     0.213 C 
HETATM   11  O   UNK N   1      35.051  19.115   8.387  0.00  0.00    -0.644 OA
BRANCH  10  12
HETATM   12  O   UNK N   1      34.385  17.432   9.675  0.00  0.00    -0.771 OA
HETATM   13  H   UNK N   1      34.759  17.602  10.518  0.00  0.00     0.167 HD
ENDBRANCH  10  12
ENDBRANCH   8  10
ENDBRANCH   7   8
ENDBRANCH   6   7
BRANCH   6  14
HETATM   14  C   UNK N   1      31.289  17.073   8.552  0.00  0.00     0.157 C 
HETATM   15  O   UNK N   1      30.747  18.128   8.849  0.00  0.00    -0.649 OA
BRANCH  14  16
HETATM   16  O   UNK N   1      31.608  16.203   9.528  0.00  0.00    -0.775 OA
HETATM   17  H   UNK N   1      31.105  15.426   9.681  0.00  0.00     0.167 HD
ENDBRANCH  14  16
ENDBRANCH   6  14
BRANCH   5  18
HETATM   18  O   UNK N   1      30.334  14.705   3.689  0.00  0.00    -0.388 OA
HETATM   19  H   UNK N   1      30.770  13.945   3.271  0.00  0.00     0.210 HD
ENDBRANCH   5  18
TORSDOF 7
ENDMDL
