MODEL 1
REMARK VINA RESULT:      -3.3      0.000      0.000
REMARK  4 active torsions:
REMARK  status: ('A' for Active; 'I' for Inactive)
REMARK    1  A    between atoms: N_1  and  C_2 
REMARK    2  A    between atoms: N_1  and  C_3 
REMARK    3  A    between atoms: N_1  and  C_4 
REMARK    4  A    between atoms: N_1  and  C_5 
ROOT
HETATM    1  N   UNK N   1      35.467  12.575  14.959  0.00  0.00    -0.068 N 
ENDROOT
BRANCH   1   2
HETATM    2  C   UNK N   1      36.054  13.811  14.391  0.00  0.00     0.233 C 
HETATM    3  C   UNK N   1      35.692  14.101  12.939  0.00  0.00     0.035 C 
ENDBRANCH   1   2
BRANCH   1   4
HETATM    4  C   UNK N   1      36.445  11.667  15.598  0.00  0.00     0.233 C 
HETATM    5  C   UNK N   1      37.527  11.113  14.678  0.00  0.00     0.035 C 
ENDBRANCH   1   4
BRANCH   1   6
HETATM    6  C   UNK N   1      34.579  11.878  14.008  0.00  0.00     0.233 C 
HETATM    7  C   UNK N   1      33.707  10.780  14.609  0.00  0.00     0.035 C 
ENDBRANCH   1   6
BRANCH   1   8
HETATM    8  C   UNK N   1      34.547  13.004  16.021  0.00  0.00     0.233 C 
HETATM    9  C   UNK N   1      35.236  13.344  17.347  0.00  0.00     0.035 C 
ENDBRANCH   1   8
TORSDOF 4
ENDMDL
MODEL 2
REMARK VINA RESULT:      -3.3      0.150      2.704
REMARK  4 active torsions:
REMARK  status: ('A' for Active; 'I' for Inactive)
REMARK    1  A    between atoms: N_1  and  C_2 
REMARK    2  A    between atoms: N_1  and  C_3 
REMARK    3  A    between atoms: N_1  and  C_4 
REMARK    4  A    between atoms: N_1  and  C_5 
ROOT
HETATM    1  N   UNK N   1      35.479  12.606  15.048  0.00  0.00    -0.068 N 
ENDROOT
BRANCH   1   2
HETATM    2  C   UNK N   1      36.130  13.727  14.332  0.00  0.00     0.233 C 
HETATM    3  C   UNK N   1      35.581  14.022  12.940  0.00  0.00     0.035 C 
ENDBRANCH   1   2
BRANCH   1   4
HETATM    4  C   UNK N   1      34.536  13.020  16.111  0.00  0.00     0.233 C 
HETATM    5  C   UNK N   1      35.140  13.168  17.504  0.00  0.00     0.035 C 
ENDBRANCH   1   4
BRANCH   1   6
HETATM    6  C   UNK N   1      36.444  11.588  15.507  0.00  0.00     0.233 C 
HETATM    7  C   UNK N   1      37.588  11.286  14.544  0.00  0.00     0.035 C 
ENDBRANCH   1   6
BRANCH   1   8
HETATM    8  C   UNK N   1      34.681  11.883  14.049  0.00  0.00     0.233 C 
HETATM    9  C   UNK N   1      33.720  10.848  14.644  0.00  0.00     0.035 C 
ENDBRANCH   1   8
TORSDOF 4
ENDMDL
MODEL 3
REMARK VINA RESULT:      -3.3      0.198      2.813
REMARK  4 active torsions:
REMARK  status: ('A' for Active; 'I' for Inactive)
REMARK    1  A    between atoms: N_1  and  C_2 
REMARK    2  A    between atoms: N_1  and  C_3 
REMARK    3  A    between atoms: N_1  and  C_4 
REMARK    4  A    between atoms: N_1  and  C_5 
ROOT
HETATM    1  N   UNK N   1      35.502  12.571  15.052  0.00  0.00    -0.068 N 
ENDROOT
BRANCH   1   2
HETATM    2  C   UNK N   1      34.559  13.009  16.105  0.00  0.00     0.233 C 
HETATM    3  C   UNK N   1      35.125  13.040  17.521  0.00  0.00     0.035 C 
ENDBRANCH   1   2
BRANCH   1   4
HETATM    4  C   UNK N   1      36.528  11.606  15.506  0.00  0.00     0.233 C 
HETATM    5  C   UNK N   1      37.619  11.280  14.491  0.00  0.00     0.035 C 
ENDBRANCH   1   4
BRANCH   1   6
HETATM    6  C   UNK N   1      36.078  13.702  14.298  0.00  0.00     0.233 C 
HETATM    7  C   UNK N   1      35.506  13.919  12.901  0.00  0.00     0.035 C 
ENDBRANCH   1   6
BRANCH   1   8
HETATM    8  C   UNK N   1      34.699  11.872  14.041  0.00  0.00     0.233 C 
HETATM    9  C   UNK N   1      33.706  10.858  14.620  0.00  0.00     0.035 C 
ENDBRANCH   1   8
TORSDOF 4
ENDMDL
MODEL 4
REMARK VINA RESULT:      -3.2      0.221      3.081
REMARK  4 active torsions:
REMARK  status: ('A' for Active; 'I' for Inactive)
REMARK    1  A    between atoms: N_1  and  C_2 
REMARK    2  A    between atoms: N_1  and  C_3 
REMARK    3  A    between atoms: N_1  and  C_4 
REMARK    4  A    between atoms: N_1  and  C_5 
ROOT
HETATM    1  N   UNK N   1      35.501  12.544  15.181  0.00  0.00    -0.068 N 
ENDROOT
BRANCH   1   2
HETATM    2  C   UNK N   1      36.372  11.443  15.650  0.00  0.00     0.233 C 
HETATM    3  C   UNK N   1      37.515  11.067  14.714  0.00  0.00     0.035 C 
ENDBRANCH   1   2
BRANCH   1   4
HETATM    4  C   UNK N   1      36.218  13.660  14.524  0.00  0.00     0.233 C 
HETATM    5  C   UNK N   1      35.711  14.041  13.137  0.00  0.00     0.035 C 
ENDBRANCH   1   4
BRANCH   1   6
HETATM    6  C   UNK N   1      34.558  13.005  16.219  0.00  0.00     0.233 C 
HETATM    7  C   UNK N   1      35.139  13.130  17.624  0.00  0.00     0.035 C 
ENDBRANCH   1   6
BRANCH   1   8
HETATM    8  C   UNK N   1      34.616  11.966  14.161  0.00  0.00     0.233 C 
HETATM    9  C   UNK N   1      33.687  10.866  14.687  0.00  0.00     0.035 C 
ENDBRANCH   1   8
TORSDOF 4
ENDMDL
MODEL 5
REMARK VINA RESULT:      -3.2      0.185      2.796
REMARK  4 active torsions:
REMARK  status: ('A' for Active; 'I' for Inactive)
REMARK    1  A    between atoms: N_1  and  C_2 
REMARK    2  A    between atoms: N_1  and  C_3 
REMARK    3  A    between atoms: N_1  and  C_4 
REMARK    4  A    between atoms: N_1  and  C_5 
ROOT
HETATM    1  N   UNK N   1      35.397  12.475  15.158  0.00  0.00    -0.068 N 
ENDROOT
BRANCH   1   2
HETATM    2  C   UNK N   1      34.620  11.850  14.063  0.00  0.00     0.233 C 
HETATM    3  C   UNK N   1      33.622  10.781  14.495  0.00  0.00     0.035 C 
ENDBRANCH   1   2
BRANCH   1   4
HETATM    4  C   UNK N   1      36.464  11.619  15.722  0.00  0.00     0.233 C 
HETATM    5  C   UNK N   1      37.467  11.068  14.713  0.00  0.00     0.035 C 
ENDBRANCH   1   4
BRANCH   1   6
HETATM    6  C   UNK N   1      34.536  13.071  16.197  0.00  0.00     0.233 C 
HETATM    7  C   UNK N   1      35.205  13.310  17.548  0.00  0.00     0.035 C 
ENDBRANCH   1   6
BRANCH   1   8
HETATM    8  C   UNK N   1      36.070  13.642  14.574  0.00  0.00     0.233 C 
HETATM    9  C   UNK N   1      35.637  13.963  13.139  0.00  0.00     0.035 C 
ENDBRANCH   1   8
TORSDOF 4
ENDMDL
MODEL 6
REMARK VINA RESULT:      -3.2      0.286      2.793
REMARK  4 active torsions:
REMARK  status: ('A' for Active; 'I' for Inactive)
REMARK    1  A    between atoms: N_1  and  C_2 
REMARK    2  A    between atoms: N_1  and  C_3 
REMARK    3  A    between atoms: N_1  and  C_4 
REMARK    4  A    between atoms: N_1  and  C_5 
ROOT
HETATM    1  N   UNK N   1      35.415  12.603  15.129  0.00  0.00    -0.068 N 
ENDROOT
BRANCH   1   2
HETATM    2  C   UNK N   1      34.557  13.102  16.227  0.00  0.00     0.233 C 
HETATM    3  C   UNK N   1      35.138  12.959  17.630  0.00  0.00     0.035 C 
ENDBRANCH   1   2
BRANCH   1   4
HETATM    4  C   UNK N   1      36.345  13.609  14.568  0.00  0.00     0.233 C 
HETATM    5  C   UNK N   1      35.942  14.197  13.219  0.00  0.00     0.035 C 
ENDBRANCH   1   4
BRANCH   1   6
HETATM    6  C   UNK N   1      34.649  11.892  14.087  0.00  0.00     0.233 C 
HETATM    7  C   UNK N   1      33.692  10.818  14.593  0.00  0.00     0.035 C 
ENDBRANCH   1   6
BRANCH   1   8
HETATM    8  C   UNK N   1      36.254  11.544  15.706  0.00  0.00     0.233 C 
HETATM    9  C   UNK N   1      37.397  11.083  14.795  0.00  0.00     0.035 C 
ENDBRANCH   1   8
TORSDOF 4
ENDMDL
MODEL 7
REMARK VINA RESULT:      -3.2      0.238      3.241
REMARK  4 active torsions:
REMARK  status: ('A' for Active; 'I' for Inactive)
REMARK    1  A    between atoms: N_1  and  C_2 
REMARK    2  A    between atoms: N_1  and  C_3 
REMARK    3  A    between atoms: N_1  and  C_4 
REMARK    4  A    between atoms: N_1  and  C_5 
ROOT
HETATM    1  N   UNK N   1      35.410  12.584  15.137  0.00  0.00    -0.068 N 
ENDROOT
BRANCH   1   2
HETATM    2  C   UNK N   1      34.720  11.846  14.055  0.00  0.00     0.233 C 
HETATM    3  C   UNK N   1      33.680  10.830  14.515  0.00  0.00     0.035 C 
ENDBRANCH   1   2
BRANCH   1   4
HETATM    4  C   UNK N   1      34.526  13.042  16.232  0.00  0.00     0.233 C 
HETATM    5  C   UNK N   1      35.236  13.529  17.491  0.00  0.00     0.035 C 
ENDBRANCH   1   4
BRANCH   1   6
HETATM    6  C   UNK N   1      36.285  13.657  14.625  0.00  0.00     0.233 C 
HETATM    7  C   UNK N   1      35.910  14.212  13.254  0.00  0.00     0.035 C 
ENDBRANCH   1   6
BRANCH   1   8
HETATM    8  C   UNK N   1      36.360  11.641  15.742  0.00  0.00     0.233 C 
HETATM    9  C   UNK N   1      37.423  11.114  14.773  0.00  0.00     0.035 C 
ENDBRANCH   1   8
TORSDOF 4
ENDMDL
MODEL 8
REMARK VINA RESULT:      -3.1      1.288      3.177
REMARK  4 active torsions:
REMARK  status: ('A' for Active; 'I' for Inactive)
REMARK    1  A    between atoms: N_1  and  C_2 
REMARK    2  A    between atoms: N_1  and  C_3 
REMARK    3  A    between atoms: N_1  and  C_4 
REMARK    4  A    between atoms: N_1  and  C_5 
ROOT
HETATM    1  N   UNK N   1      35.731  12.109  15.597  0.00  0.00    -0.068 N 
ENDROOT
BRANCH   1   2
HETATM    2  C   UNK N   1      36.129  10.783  16.123  0.00  0.00     0.233 C 
HETATM    3  C   UNK N   1      37.350  10.155  15.460  0.00  0.00     0.035 C 
ENDBRANCH   1   2
BRANCH   1   4
HETATM    4  C   UNK N   1      34.545  12.089  14.711  0.00  0.00     0.233 C 
HETATM    5  C   UNK N   1      33.730  10.801  14.732  0.00  0.00     0.035 C 
ENDBRANCH   1   4
BRANCH   1   6
HETATM    6  C   UNK N   1      36.864  12.854  15.015  0.00  0.00     0.233 C 
HETATM    7  C   UNK N   1      36.960  14.323  15.416  0.00  0.00     0.035 C 
ENDBRANCH   1   6
BRANCH   1   8
HETATM    8  C   UNK N   1      35.361  12.923  16.762  0.00  0.00     0.233 C 
HETATM    9  C   UNK N   1      35.242  12.130  18.068  0.00  0.00     0.035 C 
ENDBRANCH   1   8
TORSDOF 4
ENDMDL
MODEL 9
REMARK VINA RESULT:      -3.1      0.490      2.777
REMARK  4 active torsions:
REMARK  status: ('A' for Active; 'I' for Inactive)
REMARK    1  A    between atoms: N_1  and  C_2 
REMARK    2  A    between atoms: N_1  and  C_3 
REMARK    3  A    between atoms: N_1  and  C_4 
REMARK    4  A    between atoms: N_1  and  C_5 
ROOT
HETATM    1  N   UNK N   1      35.444  12.519  14.830  0.00  0.00    -0.068 N 
ENDROOT
BRANCH   1   2
HETATM    2  C   UNK N   1      36.793  12.070  15.244  0.00  0.00     0.233 C 
HETATM    3  C   UNK N   1      37.432  11.008  14.355  0.00  0.00     0.035 C 
ENDBRANCH   1   2
BRANCH   1   4
HETATM    4  C   UNK N   1      34.580  12.978  15.940  0.00  0.00     0.233 C 
HETATM    5  C   UNK N   1      35.182  12.854  17.336  0.00  0.00     0.035 C 
ENDBRANCH   1   4
BRANCH   1   6
HETATM    6  C   UNK N   1      34.768  11.549  13.946  0.00  0.00     0.233 C 
HETATM    7  C   UNK N   1      33.635  10.754  14.587  0.00  0.00     0.035 C 
ENDBRANCH   1   6
BRANCH   1   8
HETATM    8  C   UNK N   1      35.645  13.682  13.956  0.00  0.00     0.233 C 
HETATM    9  C   UNK N   1      35.213  13.457  12.503  0.00  0.00     0.035 C 
ENDBRANCH   1   8
TORSDOF 4
ENDMDL
