MODEL 1
REMARK VINA RESULT:      -6.1      0.000      0.000
REMARK  5 active torsions:
REMARK  status: ('A' for Active; 'I' for Inactive)
REMARK    1  A    between atoms: C_10  and  C_5 
REMARK    2  A    between atoms: N_14  and  C_6 
REMARK    3  A    between atoms: N_16  and  C_7 
REMARK    4  A    between atoms: N_13  and  C_9 
REMARK    5  A    between atoms: O_23  and  C_10 
ROOT
HETATM    1  N   UNK N   1      32.679  16.078   8.352  0.00  0.00    -0.300 N 
ATOM      2  HN  UNK N   1      33.540  16.057   7.804  1.00  0.00     0.187 HD
HETATM    3  N   UNK N   1      32.709  15.650   9.520  0.00  0.00    -0.293 N 
ATOM      4  HN  UNK N   1      31.868  15.657  10.097  1.00  0.00     0.187 HD
ENDROOT
BRANCH   3   5
HETATM    5  C   UNK N   1      33.934  15.155  10.033  0.00  0.00     0.138 A 
HETATM    6  C   UNK N   1      35.037  15.912  10.599  0.00  0.00     0.146 A 
HETATM    7  N   UNK N   1      35.120  17.186  10.743  0.00  0.00    -0.382 N 
HETATM    8  N   UNK N   1      36.028  14.985  10.971  0.00  0.00    -0.282 N 
HETATM    9  H   UNK N   1      35.956  17.618  11.160  0.00  0.00     0.157 HD
ATOM     10  HN  UNK N   1      34.345  17.777  10.442  1.00  0.00     0.157 HD
HETATM   11  N   UNK N   1      35.633  13.834  10.692  0.00  0.00    -0.282 N 
ATOM     12  HN  UNK N   1      36.925  15.216  11.398  1.00  0.00     0.188 HD
HETATM   13  C   UNK N   1      34.337  13.891  10.108  0.00  0.00     0.146 A 
ATOM     14  HN  UNK N   1      36.161  12.978  10.859  1.00  0.00     0.188 HD
BRANCH  13  15
HETATM   15  N   UNK N   1      33.606  12.761   9.678  0.00  0.00    -0.382 N 
HETATM   16  H   UNK N   1      33.956  11.857   9.846  0.00  0.00     0.157 HD
HETATM   17  H   UNK N   1      32.747  12.879   9.212  0.00  0.00     0.157 HD
ENDBRANCH  13  15
ENDBRANCH   3   5
BRANCH   1  18
HETATM   18  C   UNK N   1      31.512  16.590   7.745  0.00  0.00     0.049 A 
HETATM   19  C   UNK N   1      31.403  16.773   6.358  0.00  0.00     0.031 A 
HETATM   20  C   UNK N   1      30.217  17.288   5.817  0.00  0.00     0.003 A 
HETATM   21  C   UNK N   1      29.147  17.621   6.658  0.00  0.00     0.018 A 
HETATM   22  C   UNK N   1      29.257  17.437   8.044  0.00  0.00     0.040 A 
HETATM   23  C   UNK N   1      30.441  16.922   8.572  0.00  0.00     0.049 A 
BRANCH  22  24
HETATM   24  C   UNK N   1      28.145  17.780   8.950  0.00  0.00     0.176 C 
HETATM   25  O   UNK N   1      27.812  17.006   9.835  0.00  0.00    -0.646 OA
BRANCH  24  26
HETATM   26  O   UNK N   1      27.491  18.949   8.813  0.00  0.00    -0.773 OA
HETATM   27  H   UNK N   1      26.588  18.953   8.561  0.00  0.00     0.167 HD
ENDBRANCH  24  26
ENDBRANCH  22  24
ENDBRANCH   1  18
TORSDOF 5
ENDMDL
MODEL 2
REMARK VINA RESULT:      -6.1      0.797      1.889
REMARK  5 active torsions:
REMARK  status: ('A' for Active; 'I' for Inactive)
REMARK    1  A    between atoms: C_10  and  C_5 
REMARK    2  A    between atoms: N_14  and  C_6 
REMARK    3  A    between atoms: N_16  and  C_7 
REMARK    4  A    between atoms: N_13  and  C_9 
REMARK    5  A    between atoms: O_23  and  C_10 
ROOT
HETATM    1  N   UNK N   1      32.934  16.628   9.163  0.00  0.00    -0.300 N 
ATOM      2  HN  UNK N   1      33.580  17.398   9.341  1.00  0.00     0.187 HD
HETATM    3  N   UNK N   1      33.198  15.510   9.643  0.00  0.00    -0.293 N 
ATOM      4  HN  UNK N   1      32.575  14.718   9.487  1.00  0.00     0.187 HD
ENDROOT
BRANCH   3   5
HETATM    5  C   UNK N   1      34.379  15.360  10.411  0.00  0.00     0.138 A 
HETATM    6  C   UNK N   1      34.835  14.181  11.128  0.00  0.00     0.146 A 
HETATM    7  N   UNK N   1      34.251  13.039  11.208  0.00  0.00    -0.382 N 
HETATM    8  N   UNK N   1      36.057  14.513  11.739  0.00  0.00    -0.282 N 
HETATM    9  H   UNK N   1      34.667  12.268  11.748  0.00  0.00     0.157 HD
ATOM     10  HN  UNK N   1      33.362  12.894  10.728  1.00  0.00     0.157 HD
HETATM   11  N   UNK N   1      36.339  15.698  11.463  0.00  0.00    -0.282 N 
ATOM     12  HN  UNK N   1      36.622  13.888  12.313  1.00  0.00     0.188 HD
HETATM   13  C   UNK N   1      35.325  16.264  10.641  0.00  0.00     0.146 A 
ATOM     14  HN  UNK N   1      37.175  16.190  11.782  1.00  0.00     0.188 HD
BRANCH  13  15
HETATM   15  N   UNK N   1      35.341  17.589  10.154  0.00  0.00    -0.382 N 
HETATM   16  H   UNK N   1      34.757  17.844   9.403  0.00  0.00     0.157 HD
HETATM   17  H   UNK N   1      35.935  18.258  10.564  0.00  0.00     0.157 HD
ENDBRANCH  13  15
ENDBRANCH   3   5
BRANCH   1  18
HETATM   18  C   UNK N   1      31.786  16.884   8.381  0.00  0.00     0.049 A 
HETATM   19  C   UNK N   1      31.816  16.885   6.979  0.00  0.00     0.031 A 
HETATM   20  C   UNK N   1      30.642  17.150   6.260  0.00  0.00     0.003 A 
HETATM   21  C   UNK N   1      29.446  17.412   6.940  0.00  0.00     0.018 A 
HETATM   22  C   UNK N   1      29.417  17.410   8.342  0.00  0.00     0.040 A 
HETATM   23  C   UNK N   1      30.591  17.144   9.048  0.00  0.00     0.049 A 
BRANCH  22  24
HETATM   24  C   UNK N   1      28.171  17.685   9.081  0.00  0.00     0.176 C 
HETATM   25  O   UNK N   1      27.737  16.867   9.879  0.00  0.00    -0.646 OA
BRANCH  24  26
HETATM   26  O   UNK N   1      27.503  18.837   8.886  0.00  0.00    -0.773 OA
HETATM   27  H   UNK N   1      27.843  19.481   8.295  0.00  0.00     0.167 HD
ENDBRANCH  24  26
ENDBRANCH  22  24
ENDBRANCH   1  18
TORSDOF 5
ENDMDL
MODEL 3
REMARK VINA RESULT:      -6.1      6.097      8.911
REMARK  5 active torsions:
REMARK  status: ('A' for Active; 'I' for Inactive)
REMARK    1  A    between atoms: C_10  and  C_5 
REMARK    2  A    between atoms: N_14  and  C_6 
REMARK    3  A    between atoms: N_16  and  C_7 
REMARK    4  A    between atoms: N_13  and  C_9 
REMARK    5  A    between atoms: O_23  and  C_10 
ROOT
HETATM    1  N   UNK N   1      35.653  13.492  13.751  0.00  0.00    -0.300 N 
ATOM      2  HN  UNK N   1      36.105  14.404  13.816  1.00  0.00     0.187 HD
HETATM    3  N   UNK N   1      35.323  13.073  12.626  0.00  0.00    -0.293 N 
ATOM      4  HN  UNK N   1      34.870  12.165  12.523  1.00  0.00     0.187 HD
ENDROOT
BRANCH   3   5
HETATM    5  C   UNK N   1      35.587  13.881  11.493  0.00  0.00     0.138 A 
HETATM    6  C   UNK N   1      34.658  14.726  10.761  0.00  0.00     0.146 A 
HETATM    7  N   UNK N   1      33.408  14.904  10.999  0.00  0.00    -0.382 N 
HETATM    8  N   UNK N   1      35.382  15.331   9.717  0.00  0.00    -0.282 N 
HETATM    9  H   UNK N   1      32.841  15.530  10.410  0.00  0.00     0.157 HD
ATOM     10  HN  UNK N   1      32.972  14.418  11.782  1.00  0.00     0.157 HD
HETATM   11  N   UNK N   1      36.568  14.943   9.768  0.00  0.00    -0.282 N 
ATOM     12  HN  UNK N   1      35.000  15.981   9.031  1.00  0.00     0.188 HD
HETATM   13  C   UNK N   1      36.742  14.042  10.855  0.00  0.00     0.146 A 
ATOM     14  HN  UNK N   1      37.305  15.231   9.124  1.00  0.00     0.188 HD
BRANCH  13  15
HETATM   15  N   UNK N   1      37.966  13.421  11.188  0.00  0.00    -0.382 N 
HETATM   16  H   UNK N   1      38.178  12.529  10.830  0.00  0.00     0.157 HD
HETATM   17  H   UNK N   1      38.606  13.881  11.778  0.00  0.00     0.157 HD
ENDBRANCH  13  15
ENDBRANCH   3   5
BRANCH   1  18
HETATM   18  C   UNK N   1      35.433  12.767  14.942  0.00  0.00     0.049 A 
HETATM   19  C   UNK N   1      35.201  11.384  14.950  0.00  0.00     0.031 A 
HETATM   20  C   UNK N   1      34.985  10.723  16.167  0.00  0.00     0.003 A 
HETATM   21  C   UNK N   1      35.000  11.442  17.369  0.00  0.00     0.018 A 
HETATM   22  C   UNK N   1      35.233  12.825  17.360  0.00  0.00     0.040 A 
HETATM   23  C   UNK N   1      35.447  13.472  16.143  0.00  0.00     0.049 A 
BRANCH  22  24
HETATM   24  C   UNK N   1      35.252  13.604  18.613  0.00  0.00     0.176 C 
HETATM   25  O   UNK N   1      35.254  14.826  18.576  0.00  0.00    -0.646 OA
BRANCH  24  26
HETATM   26  O   UNK N   1      35.264  12.978  19.804  0.00  0.00    -0.773 OA
HETATM   27  H   UNK N   1      34.965  12.092  19.871  0.00  0.00     0.167 HD
ENDBRANCH  24  26
ENDBRANCH  22  24
ENDBRANCH   1  18
TORSDOF 5
ENDMDL
MODEL 4
REMARK VINA RESULT:      -6.0     14.995     17.354
REMARK  5 active torsions:
REMARK  status: ('A' for Active; 'I' for Inactive)
REMARK    1  A    between atoms: C_10  and  C_5 
REMARK    2  A    between atoms: N_14  and  C_6 
REMARK    3  A    between atoms: N_16  and  C_7 
REMARK    4  A    between atoms: N_13  and  C_9 
REMARK    5  A    between atoms: O_23  and  C_10 
ROOT
HETATM    1  N   UNK N   1      27.866  24.454  -5.364  0.00  0.00    -0.300 N 
ATOM      2  HN  UNK N   1      27.941  25.009  -6.217  1.00  0.00     0.187 HD
HETATM    3  N   UNK N   1      26.988  24.757  -4.535  0.00  0.00    -0.293 N 
ATOM      4  HN  UNK N   1      26.883  24.224  -3.672  1.00  0.00     0.187 HD
ENDROOT
BRANCH   3   5
HETATM    5  C   UNK N   1      26.137  25.855  -4.815  0.00  0.00     0.138 A 
HETATM    6  C   UNK N   1      25.850  27.001  -3.968  0.00  0.00     0.146 A 
HETATM    7  N   UNK N   1      26.312  27.242  -2.794  0.00  0.00    -0.382 N 
HETATM    8  N   UNK N   1      24.952  27.823  -4.674  0.00  0.00    -0.282 N 
HETATM    9  H   UNK N   1      26.038  28.092  -2.282  0.00  0.00     0.157 HD
ATOM     10  HN  UNK N   1      26.961  26.583  -2.364  1.00  0.00     0.157 HD
HETATM   11  N   UNK N   1      24.705  27.297  -5.780  0.00  0.00    -0.282 N 
ATOM     12  HN  UNK N   1      24.566  28.704  -4.337  1.00  0.00     0.188 HD
HETATM   13  C   UNK N   1      25.418  26.074  -5.911  0.00  0.00     0.146 A 
ATOM     14  HN  UNK N   1      24.081  27.689  -6.486  1.00  0.00     0.188 HD
BRANCH  13  15
HETATM   15  N   UNK N   1      25.358  25.233  -7.044  0.00  0.00    -0.382 N 
HETATM   16  H   UNK N   1      24.498  24.840  -7.319  0.00  0.00     0.157 HD
HETATM   17  H   UNK N   1      26.175  25.039  -7.557  0.00  0.00     0.157 HD
ENDBRANCH  13  15
ENDBRANCH   3   5
BRANCH   1  18
HETATM   18  C   UNK N   1      28.767  23.382  -5.181  0.00  0.00     0.049 A 
HETATM   19  C   UNK N   1      28.974  22.399  -6.159  0.00  0.00     0.031 A 
HETATM   20  C   UNK N   1      29.880  21.357  -5.915  0.00  0.00     0.003 A 
HETATM   21  C   UNK N   1      30.573  21.298  -4.699  0.00  0.00     0.018 A 
HETATM   22  C   UNK N   1      30.365  22.282  -3.722  0.00  0.00     0.040 A 
HETATM   23  C   UNK N   1      29.462  23.315  -3.976  0.00  0.00     0.049 A 
BRANCH  22  24
HETATM   24  C   UNK N   1      31.081  22.242  -2.433  0.00  0.00     0.176 C 
HETATM   25  O   UNK N   1      30.715  22.948  -1.504  0.00  0.00    -0.646 OA
BRANCH  24  26
HETATM   26  O   UNK N   1      32.139  21.426  -2.267  0.00  0.00    -0.773 OA
HETATM   27  H   UNK N   1      32.962  21.643  -2.658  0.00  0.00     0.167 HD
ENDBRANCH  24  26
ENDBRANCH  22  24
ENDBRANCH   1  18
TORSDOF 5
ENDMDL
MODEL 5
REMARK VINA RESULT:      -6.0      6.445      8.748
REMARK  5 active torsions:
REMARK  status: ('A' for Active; 'I' for Inactive)
REMARK    1  A    between atoms: C_10  and  C_5 
REMARK    2  A    between atoms: N_14  and  C_6 
REMARK    3  A    between atoms: N_16  and  C_7 
REMARK    4  A    between atoms: N_13  and  C_9 
REMARK    5  A    between atoms: O_23  and  C_10 
ROOT
HETATM    1  N   UNK N   1      36.331  12.673  15.630  0.00  0.00    -0.300 N 
ATOM      2  HN  UNK N   1      37.180  12.491  16.165  1.00  0.00     0.187 HD
HETATM    3  N   UNK N   1      35.249  12.746  16.241  0.00  0.00    -0.293 N 
ATOM      4  HN  UNK N   1      34.380  12.928  15.739  1.00  0.00     0.187 HD
ENDROOT
BRANCH   3   5
HETATM    5  C   UNK N   1      35.247  12.572  17.647  0.00  0.00     0.138 A 
HETATM    6  C   UNK N   1      35.283  13.599  18.675  0.00  0.00     0.146 A 
HETATM    7  N   UNK N   1      35.326  14.872  18.508  0.00  0.00    -0.382 N 
HETATM    8  N   UNK N   1      35.264  12.942  19.919  0.00  0.00    -0.282 N 
HETATM    9  H   UNK N   1      35.348  15.511  19.315  0.00  0.00     0.157 HD
ATOM     10  HN  UNK N   1      35.336  15.255  17.563  1.00  0.00     0.157 HD
HETATM   11  N   UNK N   1      35.225  11.709  19.726  0.00  0.00    -0.282 N 
ATOM     12  HN  UNK N   1      35.281  13.399  20.830  1.00  0.00     0.188 HD
HETATM   13  C   UNK N   1      35.213  11.432  18.330  0.00  0.00     0.146 A 
ATOM     14  HN  UNK N   1      35.204  11.002  20.461  1.00  0.00     0.188 HD
BRANCH  13  15
HETATM   15  N   UNK N   1      35.170  10.135  17.775  0.00  0.00    -0.382 N 
HETATM   16  H   UNK N   1      34.338   9.801  17.368  0.00  0.00     0.157 HD
HETATM   17  H   UNK N   1      35.972   9.565  17.793  0.00  0.00     0.157 HD
ENDBRANCH  13  15
ENDBRANCH   3   5
BRANCH   1  18
HETATM   18  C   UNK N   1      36.441  12.828  14.231  0.00  0.00     0.049 A 
HETATM   19  C   UNK N   1      37.286  12.026  13.450  0.00  0.00     0.031 A 
HETATM   20  C   UNK N   1      37.354  12.233  12.065  0.00  0.00     0.003 A 
HETATM   21  C   UNK N   1      36.581  13.236  11.465  0.00  0.00     0.018 A 
HETATM   22  C   UNK N   1      35.736  14.036  12.247  0.00  0.00     0.040 A 
HETATM   23  C   UNK N   1      35.676  13.821  13.625  0.00  0.00     0.049 A 
BRANCH  22  24
HETATM   24  C   UNK N   1      34.914  15.099  11.640  0.00  0.00     0.176 C 
HETATM   25  O   UNK N   1      35.403  16.194  11.401  0.00  0.00    -0.646 OA
BRANCH  24  26
HETATM   26  O   UNK N   1      33.621  14.874  11.341  0.00  0.00    -0.773 OA
HETATM   27  H   UNK N   1      32.992  15.562  11.433  0.00  0.00     0.167 HD
ENDBRANCH  24  26
ENDBRANCH  22  24
ENDBRANCH   1  18
TORSDOF 5
ENDMDL
MODEL 6
REMARK VINA RESULT:      -6.0      5.697      7.710
REMARK  5 active torsions:
REMARK  status: ('A' for Active; 'I' for Inactive)
REMARK    1  A    between atoms: C_10  and  C_5 
REMARK    2  A    between atoms: N_14  and  C_6 
REMARK    3  A    between atoms: N_16  and  C_7 
REMARK    4  A    between atoms: N_13  and  C_9 
REMARK    5  A    between atoms: O_23  and  C_10 
ROOT
HETATM    1  N   UNK N   1      26.115  17.596   5.623  0.00  0.00    -0.300 N 
ATOM      2  HN  UNK N   1      26.391  16.620   5.733  1.00  0.00     0.187 HD
HETATM    3  N   UNK N   1      26.895  18.481   6.021  0.00  0.00    -0.293 N 
ATOM      4  HN  UNK N   1      26.653  19.467   5.926  1.00  0.00     0.187 HD
ENDROOT
BRANCH   3   5
HETATM    5  C   UNK N   1      28.125  18.092   6.608  0.00  0.00     0.138 A 
HETATM    6  C   UNK N   1      28.438  17.961   8.021  0.00  0.00     0.146 A 
HETATM    7  N   UNK N   1      27.658  18.177   9.019  0.00  0.00    -0.382 N 
HETATM    8  N   UNK N   1      29.780  17.549   8.112  0.00  0.00    -0.282 N 
HETATM    9  H   UNK N   1      27.990  18.052   9.986  0.00  0.00     0.157 HD
ATOM     10  HN  UNK N   1      26.697  18.474   8.851  1.00  0.00     0.157 HD
HETATM   11  N   UNK N   1      30.248  17.436   6.959  0.00  0.00    -0.282 N 
ATOM     12  HN  UNK N   1      30.289  17.372   8.978  1.00  0.00     0.188 HD
HETATM   13  C   UNK N   1      29.256  17.763   5.994  0.00  0.00     0.146 A 
ATOM     14  HN  UNK N   1      31.204  17.150   6.742  1.00  0.00     0.188 HD
BRANCH  13  15
HETATM   15  N   UNK N   1      29.462  17.735   4.597  0.00  0.00    -0.382 N 
HETATM   16  H   UNK N   1      30.220  18.225   4.202  0.00  0.00     0.157 HD
HETATM   17  H   UNK N   1      28.850  17.227   4.019  0.00  0.00     0.157 HD
ENDBRANCH  13  15
ENDBRANCH   3   5
BRANCH   1  18
HETATM   18  C   UNK N   1      24.866  17.876   5.027  0.00  0.00     0.049 A 
HETATM   19  C   UNK N   1      23.756  17.033   5.177  0.00  0.00     0.031 A 
HETATM   20  C   UNK N   1      22.544  17.365   4.557  0.00  0.00     0.003 A 
HETATM   21  C   UNK N   1      22.443  18.533   3.790  0.00  0.00     0.018 A 
HETATM   22  C   UNK N   1      23.554  19.376   3.642  0.00  0.00     0.040 A 
HETATM   23  C   UNK N   1      24.755  19.036   4.265  0.00  0.00     0.049 A 
BRANCH  22  24
HETATM   24  C   UNK N   1      23.474  20.611   2.839  0.00  0.00     0.176 C 
HETATM   25  O   UNK N   1      24.436  20.981   2.183  0.00  0.00    -0.646 OA
BRANCH  24  26
HETATM   26  O   UNK N   1      22.341  21.338   2.819  0.00  0.00    -0.773 OA
HETATM   27  H   UNK N   1      22.384  22.268   2.713  0.00  0.00     0.167 HD
ENDBRANCH  24  26
ENDBRANCH  22  24
ENDBRANCH   1  18
TORSDOF 5
ENDMDL
MODEL 7
REMARK VINA RESULT:      -6.0     13.147     14.966
REMARK  5 active torsions:
REMARK  status: ('A' for Active; 'I' for Inactive)
REMARK    1  A    between atoms: C_10  and  C_5 
REMARK    2  A    between atoms: N_14  and  C_6 
REMARK    3  A    between atoms: N_16  and  C_7 
REMARK    4  A    between atoms: N_13  and  C_9 
REMARK    5  A    between atoms: O_23  and  C_10 
ROOT
HETATM    1  N   UNK N   1      19.687  15.827   2.203  0.00  0.00    -0.300 N 
ATOM      2  HN  UNK N   1      19.055  15.305   2.811  1.00  0.00     0.187 HD
HETATM    3  N   UNK N   1      19.960  15.352   1.086  0.00  0.00    -0.293 N 
ATOM      4  HN  UNK N   1      20.587  15.846   0.451  1.00  0.00     0.187 HD
ENDROOT
BRANCH   3   5
HETATM    5  C   UNK N   1      19.383  14.113   0.712  0.00  0.00     0.138 A 
HETATM    6  C   UNK N   1      19.942  12.782   0.872  0.00  0.00     0.146 A 
HETATM    7  N   UNK N   1      21.077  12.466   1.386  0.00  0.00    -0.382 N 
HETATM    8  N   UNK N   1      19.004  11.872   0.353  0.00  0.00    -0.282 N 
HETATM    9  H   UNK N   1      21.374  11.483   1.449  0.00  0.00     0.157 HD
ATOM     10  HN  UNK N   1      21.691  13.201   1.737  1.00  0.00     0.157 HD
HETATM   11  N   UNK N   1      18.014  12.506  -0.068  0.00  0.00    -0.282 N 
ATOM     12  HN  UNK N   1      19.113  10.859   0.326  1.00  0.00     0.188 HD
HETATM   13  C   UNK N   1      18.205  13.902   0.133  0.00  0.00     0.146 A 
ATOM     14  HN  UNK N   1      17.188  12.086  -0.496  1.00  0.00     0.188 HD
BRANCH  13  15
HETATM   15  N   UNK N   1      17.272  14.896  -0.233  0.00  0.00    -0.382 N 
HETATM   16  H   UNK N   1      17.154  15.134  -1.181  0.00  0.00     0.157 HD
HETATM   17  H   UNK N   1      16.739  15.350   0.458  0.00  0.00     0.157 HD
ENDBRANCH  13  15
ENDBRANCH   3   5
BRANCH   1  18
HETATM   18  C   UNK N   1      20.210  17.051   2.674  0.00  0.00     0.049 A 
HETATM   19  C   UNK N   1      20.666  17.218   3.990  0.00  0.00     0.031 A 
HETATM   20  C   UNK N   1      21.171  18.460   4.396  0.00  0.00     0.003 A 
HETATM   21  C   UNK N   1      21.220  19.530   3.492  0.00  0.00     0.018 A 
HETATM   22  C   UNK N   1      20.765  19.361   2.177  0.00  0.00     0.040 A 
HETATM   23  C   UNK N   1      20.265  18.119   1.782  0.00  0.00     0.049 A 
BRANCH  22  24
HETATM   24  C   UNK N   1      20.804  20.471   1.207  0.00  0.00     0.176 C 
HETATM   25  O   UNK N   1      21.043  21.609   1.584  0.00  0.00    -0.646 OA
BRANCH  24  26
HETATM   26  O   UNK N   1      20.582  20.241  -0.101  0.00  0.00    -0.773 OA
HETATM   27  H   UNK N   1      21.299  20.244  -0.705  0.00  0.00     0.167 HD
ENDBRANCH  24  26
ENDBRANCH  22  24
ENDBRANCH   1  18
TORSDOF 5
ENDMDL
MODEL 8
REMARK VINA RESULT:      -5.8      9.135     11.880
REMARK  5 active torsions:
REMARK  status: ('A' for Active; 'I' for Inactive)
REMARK    1  A    between atoms: C_10  and  C_5 
REMARK    2  A    between atoms: N_14  and  C_6 
REMARK    3  A    between atoms: N_16  and  C_7 
REMARK    4  A    between atoms: N_13  and  C_9 
REMARK    5  A    between atoms: O_23  and  C_10 
ROOT
HETATM    1  N   UNK N   1      23.490  18.717   3.471  0.00  0.00    -0.300 N 
ATOM      2  HN  UNK N   1      23.350  18.460   2.494  1.00  0.00     0.187 HD
HETATM    3  N   UNK N   1      22.490  18.956   4.171  0.00  0.00    -0.293 N 
ATOM      4  HN  UNK N   1      22.592  19.214   5.153  1.00  0.00     0.187 HD
ENDROOT
BRANCH   3   5
HETATM    5  C   UNK N   1      21.205  18.861   3.579  0.00  0.00     0.138 A 
HETATM    6  C   UNK N   1      20.313  17.715   3.559  0.00  0.00     0.146 A 
HETATM    7  N   UNK N   1      20.516  16.555   4.075  0.00  0.00    -0.382 N 
HETATM    8  N   UNK N   1      19.157  18.101   2.857  0.00  0.00    -0.282 N 
HETATM    9  H   UNK N   1      19.808  15.812   3.999  0.00  0.00     0.157 HD
ATOM     10  HN  UNK N   1      21.389  16.371   4.567  1.00  0.00     0.157 HD
HETATM   11  N   UNK N   1      19.283  19.288   2.489  0.00  0.00    -0.282 N 
ATOM     12  HN  UNK N   1      18.347  17.509   2.677  1.00  0.00     0.188 HD
HETATM   13  C   UNK N   1      20.540  19.801   2.915  0.00  0.00     0.146 A 
ATOM     14  HN  UNK N   1      18.587  19.814   1.959  1.00  0.00     0.188 HD
BRANCH  13  15
HETATM   15  N   UNK N   1      20.994  21.113   2.660  0.00  0.00    -0.382 N 
HETATM   16  H   UNK N   1      21.004  21.460   1.739  0.00  0.00     0.157 HD
HETATM   17  H   UNK N   1      21.300  21.682   3.403  0.00  0.00     0.157 HD
ENDBRANCH  13  15
ENDBRANCH   3   5
BRANCH   1  18
HETATM   18  C   UNK N   1      24.813  18.785   3.962  0.00  0.00     0.049 A 
HETATM   19  C   UNK N   1      25.833  17.943   3.496  0.00  0.00     0.031 A 
HETATM   20  C   UNK N   1      27.124  18.059   4.026  0.00  0.00     0.003 A 
HETATM   21  C   UNK N   1      27.395  19.011   5.018  0.00  0.00     0.018 A 
HETATM   22  C   UNK N   1      26.374  19.853   5.483  0.00  0.00     0.040 A 
HETATM   23  C   UNK N   1      25.092  19.730   4.947  0.00  0.00     0.049 A 
BRANCH  22  24
HETATM   24  C   UNK N   1      26.633  20.862   6.527  0.00  0.00     0.176 C 
HETATM   25  O   UNK N   1      27.154  21.928   6.236  0.00  0.00    -0.646 OA
BRANCH  24  26
HETATM   26  O   UNK N   1      26.294  20.619   7.807  0.00  0.00    -0.773 OA
HETATM   27  H   UNK N   1      26.893  20.829   8.498  0.00  0.00     0.167 HD
ENDBRANCH  24  26
ENDBRANCH  22  24
ENDBRANCH   1  18
TORSDOF 5
ENDMDL
MODEL 9
REMARK VINA RESULT:      -5.8      9.049     11.901
REMARK  5 active torsions:
REMARK  status: ('A' for Active; 'I' for Inactive)
REMARK    1  A    between atoms: C_10  and  C_5 
REMARK    2  A    between atoms: N_14  and  C_6 
REMARK    3  A    between atoms: N_16  and  C_7 
REMARK    4  A    between atoms: N_13  and  C_9 
REMARK    5  A    between atoms: O_23  and  C_10 
ROOT
HETATM    1  N   UNK N   1      23.382  18.641   3.483  0.00  0.00    -0.300 N 
ATOM      2  HN  UNK N   1      23.269  17.642   3.309  1.00  0.00     0.187 HD
HETATM    3  N   UNK N   1      22.369  19.365   3.461  0.00  0.00    -0.293 N 
ATOM      4  HN  UNK N   1      22.444  20.368   3.632  1.00  0.00     0.187 HD
ENDROOT
BRANCH   3   5
HETATM    5  C   UNK N   1      21.111  18.769   3.194  0.00  0.00     0.138 A 
HETATM    6  C   UNK N   1      20.429  17.740   3.960  0.00  0.00     0.146 A 
HETATM    7  N   UNK N   1      20.838  17.163   5.034  0.00  0.00    -0.382 N 
HETATM    8  N   UNK N   1      19.213  17.473   3.307  0.00  0.00    -0.282 N 
HETATM    9  H   UNK N   1      20.268  16.441   5.496  0.00  0.00     0.157 HD
ATOM     10  HN  UNK N   1      21.738  17.426   5.434  1.00  0.00     0.157 HD
HETATM   11  N   UNK N   1      19.127  18.202   2.296  0.00  0.00    -0.282 N 
ATOM     12  HN  UNK N   1      18.514  16.794   3.608  1.00  0.00     0.188 HD
HETATM   13  C   UNK N   1      20.284  19.024   2.186  0.00  0.00     0.146 A 
ATOM     14  HN  UNK N   1      18.342  18.208   1.644  1.00  0.00     0.188 HD
BRANCH  13  15
HETATM   15  N   UNK N   1      20.500  19.963   1.154  0.00  0.00    -0.382 N 
HETATM   16  H   UNK N   1      21.347  19.955   0.652  0.00  0.00     0.157 HD
HETATM   17  H   UNK N   1      19.804  20.624   0.936  0.00  0.00     0.157 HD
ENDBRANCH  13  15
ENDBRANCH   3   5
BRANCH   1  18
HETATM   18  C   UNK N   1      24.680  19.134   3.736  0.00  0.00     0.049 A 
HETATM   19  C   UNK N   1      25.251  20.172   2.984  0.00  0.00     0.031 A 
HETATM   20  C   UNK N   1      26.546  20.614   3.283  0.00  0.00     0.003 A 
HETATM   21  C   UNK N   1      27.268  20.021   4.327  0.00  0.00     0.018 A 
HETATM   22  C   UNK N   1      26.697  18.984   5.078  0.00  0.00     0.040 A 
HETATM   23  C   UNK N   1      25.406  18.552   4.773  0.00  0.00     0.049 A 
BRANCH  22  24
HETATM   24  C   UNK N   1      27.437  18.343   6.181  0.00  0.00     0.176 C 
HETATM   25  O   UNK N   1      27.979  17.261   6.010  0.00  0.00    -0.646 OA
BRANCH  24  26
HETATM   26  O   UNK N   1      27.524  18.944   7.383  0.00  0.00    -0.773 OA
HETATM   27  H   UNK N   1      27.722  19.859   7.435  0.00  0.00     0.167 HD
ENDBRANCH  24  26
ENDBRANCH  22  24
ENDBRANCH   1  18
TORSDOF 5
ENDMDL
