REMARK  9 active torsions:
REMARK  status: ('A' for Active; 'I' for Inactive)
REMARK    1  A    between atoms: C_16  and  C_14 
REMARK    2  A    between atoms: C_19  and  C_14 
REMARK    3  A    between atoms: C_17  and  C_15 
REMARK    4  A    between atoms: N_25  and  C_15 
REMARK    5  A    between atoms: C_18  and  N_23 
REMARK    6  A    between atoms: C_22  and  C_19 
REMARK    7  A    between atoms: C_19  and  N_24 
REMARK    8  A    between atoms: C_20  and  C_21 
REMARK    9  A    between atoms: O_28  and  C_21 
REMARK       I    between atoms: N_27  and  C_22 
ROOT
HETATM    1  C   UNK N   1       2.202   2.344  -0.430  0.00  0.00     0.022 C 
HETATM    2  C   UNK N   1       2.737   3.761  -0.291  0.00  0.00     0.035 C 
HETATM    3  C   UNK N   1       0.686   2.492  -0.447  0.00  0.00     0.127 C 
HETATM    4  C   UNK N   1       1.641   4.493   0.457  0.00  0.00     0.161 C 
HETATM    5  C   UNK N   1      -0.846   4.262   0.373  0.00  0.00     0.243 C 
HETATM    6  N   UNK N   1       0.421   3.800   0.073  0.00  0.00    -0.338 N 
HETATM    7  O   UNK N   1      -0.987   5.415   0.742  0.00  0.00    -0.271 OA
ENDROOT
BRANCH   4   8
HETATM    8  C   UNK N   1       1.711   5.987   0.277  0.00  0.00     0.135 C 
HETATM    9  N   UNK N   1       1.648   6.530  -0.891  0.00  0.00    -0.372 N 
ATOM     10  HN  UNK N   1       1.568   5.929  -1.711  1.00  0.00     0.161 HD
BRANCH   9  11
HETATM   11  C   UNK N   1       1.689   7.971  -1.077  0.00  0.00     0.126 C 
BRANCH  11  12
HETATM   12  C   UNK N   1       0.407   8.621  -0.552  0.00  0.00     0.003 C 
HETATM   13  C   UNK N   1       0.358  10.116  -0.887  0.00  0.00     0.008 C 
HETATM   14  C   UNK N   1      -1.024  10.752  -0.615  0.00  0.00     0.025 C 
HETATM   15  C   UNK N   1      -2.005   9.803   0.086  0.00  0.00     0.074 C 
HETATM   16  C   UNK N   1      -2.145   8.504  -0.710  0.00  0.00     0.025 C 
HETATM   17  C   UNK N   1      -0.805   7.921  -1.172  0.00  0.00     0.008 C 
BRANCH  15  18
HETATM   18  N   UNK N   1      -3.307  10.430   0.198  0.00  0.00    -0.426 N 
HETATM   19  H   UNK N   1      -3.383  11.444   0.276  0.00  0.00     0.150 HD
HETATM   20  H   UNK N   1      -4.150   9.855   0.198  0.00  0.00     0.150 HD
ENDBRANCH  15  18
ENDBRANCH  11  12
ENDBRANCH   9  11
BRANCH   8  21
HETATM   21  O   UNK N   1       1.860   6.754   1.380  0.00  0.00    -0.348 OA
HETATM   22  H   UNK N   1       2.372   6.930   2.145  0.00  0.00     0.219 HD
ENDBRANCH   8  21
ENDBRANCH   4   8
BRANCH   5  23
HETATM   23  C   UNK N   1      -2.103   3.363   0.390  0.00  0.00     0.173 C 
BRANCH  23  24
HETATM   24  C   UNK N   1      -3.084   3.513  -0.797  0.00  0.00     0.073 C 
BRANCH  24  25
HETATM   25  C   UNK N   1      -4.446   2.914  -0.509  0.00  0.00    -0.056 A 
HETATM   26  C   UNK N   1      -4.618   1.525  -0.408  0.00  0.00     0.007 A 
HETATM   27  C   UNK N   1      -5.874   0.978  -0.131  0.00  0.00     0.001 A 
HETATM   28  C   UNK N   1      -6.975   1.818   0.045  0.00  0.00     0.000 A 
HETATM   29  C   UNK N   1      -6.818   3.204  -0.062  0.00  0.00     0.001 A 
HETATM   30  C   UNK N   1      -5.557   3.751  -0.340  0.00  0.00     0.007 A 
ENDBRANCH  24  25
ENDBRANCH  23  24
BRANCH  23  31
HETATM   31  N   UNK N   1      -1.847   1.983   0.837  0.00  0.00    -0.413 N 
HETATM   32  C   UNK N   1      -1.726   1.033  -0.266  0.00  0.00     0.140 C 
HETATM   33  H   UNK N   1      -1.763   1.718   1.818  0.00  0.00     0.153 HD
ENDBRANCH  23  31
ENDBRANCH   5  23
TORSDOF 9
