MODEL 1
REMARK VINA RESULT:      -7.1      0.000      0.000
REMARK  4 active torsions:
REMARK  status: ('A' for Active; 'I' for Inactive)
REMARK    1  A    between atoms: N_24  and  C_13 
REMARK    2  A    between atoms: N_28  and  C_14 
REMARK    3  A    between atoms: C_16  and  C_15 
REMARK    4  A    between atoms: N_19  and  C_17 
ROOT
HETATM    1  C   UNK N   1      28.289  17.266   4.449  0.00  0.00     0.104 C 
HETATM    2  C   UNK N   1      28.810  16.886   3.065  0.00  0.00     0.085 C 
HETATM    3  C   UNK N   1      29.397  17.484   5.456  0.00  0.00     0.050 C 
HETATM    4  C   UNK N   1      31.015  16.756   3.873  0.00  0.00     0.682 C 
HETATM    5  N   UNK N   1      30.064  16.654   2.829  0.00  0.00    -0.205 N 
ATOM      6  HN  UNK N   1      30.367  16.399   1.888  1.00  0.00     0.183 HD
HETATM    7  N   UNK N   1      32.245  16.352   3.720  0.00  0.00    -0.192 N 
ATOM      8  HN  UNK N   1      32.581  16.081   2.796  1.00  0.00     0.184 HD
HETATM    9  N   UNK N   1      30.606  17.250   5.129  0.00  0.00    -0.194 N 
ATOM     10  HN  UNK N   1      31.330  17.431   5.826  1.00  0.00     0.184 HD
ENDROOT
BRANCH   7  11
HETATM   11  C   UNK N   1      33.126  16.292   4.851  0.00  0.00     0.049 A 
HETATM   12  C   UNK N   1      33.492  17.446   5.557  0.00  0.00     0.032 A 
HETATM   13  C   UNK N   1      34.194  17.327   6.773  0.00  0.00     0.031 A 
HETATM   14  C   UNK N   1      34.522  16.053   7.290  0.00  0.00     0.030 A 
HETATM   15  C   UNK N   1      34.215  14.922   6.537  0.00  0.00     0.031 A 
HETATM   16  C   UNK N   1      33.546  15.042   5.337  0.00  0.00     0.032 A 
BRANCH  14  17
HETATM   17  N   UNK N   1      35.092  15.890   8.590  0.00  0.00    -0.377 N 
HETATM   18  C   UNK N   1      34.840  16.892   9.619  0.00  0.00     0.149 C 
HETATM   19  C   UNK N   1      35.495  16.524  10.950  0.00  0.00     0.187 C 
HETATM   20  O   UNK N   1      35.322  15.158  11.188  0.00  0.00    -0.388 OA
HETATM   21  C   UNK N   1      36.255  14.546  10.347  0.00  0.00     0.187 C 
HETATM   22  C   UNK N   1      35.786  14.637   8.896  0.00  0.00     0.149 C 
ENDBRANCH  14  17
ENDBRANCH   7  11
BRANCH   3  23
HETATM   23  C   UNK N   1      29.178  17.867   6.866  0.00  0.00     0.054 A 
HETATM   24  C   UNK N   1      28.304  18.809   7.445  0.00  0.00     0.026 A 
HETATM   25  C   UNK N   1      27.379  19.670   6.663  0.00  0.00     0.070 C 
HETATM   26  N   UNK N   1      28.324  18.846   8.829  0.00  0.00    -0.340 N 
HETATM   27  C   UNK N   1      29.204  17.952   9.346  0.00  0.00     0.143 A 
HETATM   28  H   UNK N   1      27.767  19.448   9.372  0.00  0.00     0.168 HD
HETATM   29  S   UNK N   1      29.942  17.119   8.142  0.00  0.00    -0.051 SA
BRANCH  27  30
HETATM   30  N   UNK N   1      29.396  17.774  10.596  0.00  0.00    -0.380 N 
HETATM   31  H   UNK N   1      28.785  17.201  11.112  0.00  0.00     0.158 HD
ATOM     32  HN  UNK N   1      30.185  18.226  11.059  1.00  0.00     0.158 HD
ENDBRANCH  27  30
ENDBRANCH   3  23
TORSDOF 4
ENDMDL
MODEL 2
REMARK VINA RESULT:      -7.1     14.991     17.490
REMARK  4 active torsions:
REMARK  status: ('A' for Active; 'I' for Inactive)
REMARK    1  A    between atoms: N_24  and  C_13 
REMARK    2  A    between atoms: N_28  and  C_14 
REMARK    3  A    between atoms: C_16  and  C_15 
REMARK    4  A    between atoms: N_19  and  C_17 
ROOT
HETATM    1  C   UNK N   1      30.333  29.280  -2.210  0.00  0.00     0.104 C 
HETATM    2  C   UNK N   1      29.245  29.897  -1.334  0.00  0.00     0.085 C 
HETATM    3  C   UNK N   1      29.775  28.502  -3.381  0.00  0.00     0.050 C 
HETATM    4  C   UNK N   1      27.563  28.810  -2.566  0.00  0.00     0.682 C 
HETATM    5  N   UNK N   1      27.982  29.663  -1.517  0.00  0.00    -0.205 N 
ATOM      6  HN  UNK N   1      27.289  30.095  -0.904  1.00  0.00     0.183 HD
HETATM    7  N   UNK N   1      26.328  28.404  -2.666  0.00  0.00    -0.192 N 
ATOM      8  HN  UNK N   1      25.609  28.807  -2.064  1.00  0.00     0.184 HD
HETATM    9  N   UNK N   1      28.516  28.338  -3.492  0.00  0.00    -0.194 N 
ATOM     10  HN  UNK N   1      28.173  27.829  -4.308  1.00  0.00     0.184 HD
ENDROOT
BRANCH   7  11
HETATM   11  C   UNK N   1      25.980  27.394  -3.622  0.00  0.00     0.049 A 
HETATM   12  C   UNK N   1      25.308  27.710  -4.811  0.00  0.00     0.032 A 
HETATM   13  C   UNK N   1      25.160  26.729  -5.812  0.00  0.00     0.031 A 
HETATM   14  C   UNK N   1      25.692  25.432  -5.630  0.00  0.00     0.030 A 
HETATM   15  C   UNK N   1      26.291  25.115  -4.412  0.00  0.00     0.031 A 
HETATM   16  C   UNK N   1      26.416  26.072  -3.426  0.00  0.00     0.032 A 
BRANCH  14  17
HETATM   17  N   UNK N   1      25.698  24.464  -6.680  0.00  0.00    -0.377 N 
HETATM   18  C   UNK N   1      25.614  23.045  -6.355  0.00  0.00     0.149 C 
HETATM   19  C   UNK N   1      25.591  22.170  -7.608  0.00  0.00     0.187 C 
HETATM   20  O   UNK N   1      24.765  22.761  -8.569  0.00  0.00    -0.388 OA
HETATM   21  C   UNK N   1      25.537  23.804  -9.085  0.00  0.00     0.187 C 
HETATM   22  C   UNK N   1      25.631  24.938  -8.065  0.00  0.00     0.149 C 
ENDBRANCH  14  17
ENDBRANCH   7  11
BRANCH   3  23
HETATM   23  C   UNK N   1      30.602  27.809  -4.391  0.00  0.00     0.054 A 
HETATM   24  C   UNK N   1      30.994  26.460  -4.498  0.00  0.00     0.026 A 
HETATM   25  C   UNK N   1      30.621  25.409  -3.516  0.00  0.00     0.070 C 
HETATM   26  N   UNK N   1      31.723  26.155  -5.635  0.00  0.00    -0.340 N 
HETATM   27  C   UNK N   1      31.915  27.246  -6.419  0.00  0.00     0.143 A 
HETATM   28  H   UNK N   1      32.061  25.256  -5.849  0.00  0.00     0.168 HD
HETATM   29  S   UNK N   1      31.202  28.561  -5.749  0.00  0.00    -0.051 SA
BRANCH  27  30
HETATM   30  N   UNK N   1      32.538  27.228  -7.534  0.00  0.00    -0.380 N 
HETATM   31  H   UNK N   1      32.043  27.093  -8.373  0.00  0.00     0.158 HD
ATOM     32  HN  UNK N   1      33.550  27.354  -7.553  1.00  0.00     0.158 HD
ENDBRANCH  27  30
ENDBRANCH   3  23
TORSDOF 4
ENDMDL
MODEL 3
REMARK VINA RESULT:      -7.1      5.914      8.293
REMARK  4 active torsions:
REMARK  status: ('A' for Active; 'I' for Inactive)
REMARK    1  A    between atoms: N_24  and  C_13 
REMARK    2  A    between atoms: N_28  and  C_14 
REMARK    3  A    between atoms: C_16  and  C_15 
REMARK    4  A    between atoms: N_19  and  C_17 
ROOT
HETATM    1  C   UNK N   1      20.311  19.016   2.992  0.00  0.00     0.104 C 
HETATM    2  C   UNK N   1      20.748  20.174   2.097  0.00  0.00     0.085 C 
HETATM    3  C   UNK N   1      21.367  18.620   4.000  0.00  0.00     0.050 C 
HETATM    4  C   UNK N   1      22.911  20.139   3.020  0.00  0.00     0.682 C 
HETATM    5  N   UNK N   1      21.947  20.668   2.128  0.00  0.00    -0.205 N 
ATOM      6  HN  UNK N   1      22.196  21.440   1.509  1.00  0.00     0.183 HD
HETATM    7  N   UNK N   1      24.168  20.479   2.949  0.00  0.00    -0.192 N 
ATOM      8  HN  UNK N   1      24.456  21.240   2.335  1.00  0.00     0.184 HD
HETATM    9  N   UNK N   1      22.514  19.174   3.969  0.00  0.00    -0.194 N 
ATOM     10  HN  UNK N   1      23.194  18.900   4.679  1.00  0.00     0.184 HD
ENDROOT
BRANCH   7  11
HETATM   11  C   UNK N   1      25.144  19.784   3.737  0.00  0.00     0.049 A 
HETATM   12  C   UNK N   1      25.598  18.506   3.381  0.00  0.00     0.032 A 
HETATM   13  C   UNK N   1      26.695  17.941   4.062  0.00  0.00     0.031 A 
HETATM   14  C   UNK N   1      27.347  18.656   5.093  0.00  0.00     0.030 A 
HETATM   15  C   UNK N   1      26.834  19.892   5.482  0.00  0.00     0.031 A 
HETATM   16  C   UNK N   1      25.747  20.434   4.828  0.00  0.00     0.032 A 
BRANCH  14  17
HETATM   17  N   UNK N   1      28.552  18.182   5.695  0.00  0.00    -0.377 N 
HETATM   18  C   UNK N   1      28.636  18.062   7.146  0.00  0.00     0.149 C 
HETATM   19  C   UNK N   1      29.984  17.500   7.597  0.00  0.00     0.187 C 
HETATM   20  O   UNK N   1      30.359  16.458   6.745  0.00  0.00    -0.388 OA
HETATM   21  C   UNK N   1      30.806  17.107   5.592  0.00  0.00     0.187 C 
HETATM   22  C   UNK N   1      29.617  17.681   4.822  0.00  0.00     0.149 C 
ENDBRANCH  14  17
ENDBRANCH   7  11
BRANCH   3  23
HETATM   23  C   UNK N   1      21.207  17.537   4.993  0.00  0.00     0.054 A 
HETATM   24  C   UNK N   1      21.179  16.136   4.838  0.00  0.00     0.026 A 
HETATM   25  C   UNK N   1      21.302  15.445   3.528  0.00  0.00     0.070 C 
HETATM   26  N   UNK N   1      21.081  15.423   6.020  0.00  0.00    -0.340 N 
HETATM   27  C   UNK N   1      21.025  16.242   7.101  0.00  0.00     0.143 A 
HETATM   28  H   UNK N   1      21.055  14.441   6.071  0.00  0.00     0.168 HD
HETATM   29  S   UNK N   1      21.104  17.810   6.631  0.00  0.00    -0.051 SA
BRANCH  27  30
HETATM   30  N   UNK N   1      20.953  15.832   8.309  0.00  0.00    -0.380 N 
HETATM   31  H   UNK N   1      21.617  16.131   8.971  0.00  0.00     0.158 HD
ATOM     32  HN  UNK N   1      20.205  15.196   8.587  1.00  0.00     0.158 HD
ENDBRANCH  27  30
ENDBRANCH   3  23
TORSDOF 4
ENDMDL
MODEL 4
REMARK VINA RESULT:      -7.0      5.109      7.368
REMARK  4 active torsions:
REMARK  status: ('A' for Active; 'I' for Inactive)
REMARK    1  A    between atoms: N_24  and  C_13 
REMARK    2  A    between atoms: N_28  and  C_14 
REMARK    3  A    between atoms: C_16  and  C_15 
REMARK    4  A    between atoms: N_19  and  C_17 
ROOT
HETATM    1  C   UNK N   1      21.369  18.168   3.583  0.00  0.00     0.104 C 
HETATM    2  C   UNK N   1      21.466  19.430   2.729  0.00  0.00     0.085 C 
HETATM    3  C   UNK N   1      22.534  18.011   4.536  0.00  0.00     0.050 C 
HETATM    4  C   UNK N   1      23.609  19.902   3.575  0.00  0.00     0.682 C 
HETATM    5  N   UNK N   1      22.505  20.206   2.742  0.00  0.00    -0.205 N 
ATOM      6  HN  UNK N   1      22.528  21.038   2.151  1.00  0.00     0.183 HD
HETATM    7  N   UNK N   1      24.737  20.547   3.478  0.00  0.00    -0.192 N 
ATOM      8  HN  UNK N   1      24.800  21.378   2.890  1.00  0.00     0.184 HD
HETATM    9  N   UNK N   1      23.506  18.835   4.491  0.00  0.00    -0.194 N 
ATOM     10  HN  UNK N   1      24.263  18.713   5.165  1.00  0.00     0.184 HD
ENDROOT
BRANCH   7  11
HETATM   11  C   UNK N   1      25.890  20.089   4.199  0.00  0.00     0.049 A 
HETATM   12  C   UNK N   1      26.307  20.711   5.384  0.00  0.00     0.032 A 
HETATM   13  C   UNK N   1      27.317  20.116   6.166  0.00  0.00     0.031 A 
HETATM   14  C   UNK N   1      27.904  18.892   5.770  0.00  0.00     0.030 A 
HETATM   15  C   UNK N   1      27.529  18.329   4.553  0.00  0.00     0.031 A 
HETATM   16  C   UNK N   1      26.554  18.924   3.778  0.00  0.00     0.032 A 
BRANCH  14  17
HETATM   17  N   UNK N   1      28.815  18.184   6.613  0.00  0.00    -0.377 N 
HETATM   18  C   UNK N   1      29.835  17.329   6.017  0.00  0.00     0.149 C 
HETATM   19  C   UNK N   1      30.737  16.692   7.073  0.00  0.00     0.187 C 
HETATM   20  O   UNK N   1      31.045  17.641   8.052  0.00  0.00    -0.388 OA
HETATM   21  C   UNK N   1      29.883  17.721   8.825  0.00  0.00     0.187 C 
HETATM   22  C   UNK N   1      28.793  18.462   8.052  0.00  0.00     0.149 C 
ENDBRANCH  14  17
ENDBRANCH   7  11
BRANCH   3  23
HETATM   23  C   UNK N   1      22.691  16.887   5.482  0.00  0.00     0.054 A 
HETATM   24  C   UNK N   1      21.919  16.498   6.595  0.00  0.00     0.026 A 
HETATM   25  C   UNK N   1      20.711  17.229   7.060  0.00  0.00     0.070 C 
HETATM   26  N   UNK N   1      22.336  15.331   7.212  0.00  0.00    -0.340 N 
HETATM   27  C   UNK N   1      23.427  14.801   6.605  0.00  0.00     0.143 A 
HETATM   28  H   UNK N   1      21.894  14.935   7.997  0.00  0.00     0.168 HD
HETATM   29  S   UNK N   1      23.876  15.728   5.330  0.00  0.00    -0.051 SA
BRANCH  27  30
HETATM   30  N   UNK N   1      23.995  13.716   6.969  0.00  0.00    -0.380 N 
HETATM   31  H   UNK N   1      23.466  13.000   7.388  0.00  0.00     0.158 HD
ATOM     32  HN  UNK N   1      24.997  13.592   6.824  1.00  0.00     0.158 HD
ENDBRANCH  27  30
ENDBRANCH   3  23
TORSDOF 4
ENDMDL
MODEL 5
REMARK VINA RESULT:      -7.0      8.171     11.135
REMARK  4 active torsions:
REMARK  status: ('A' for Active; 'I' for Inactive)
REMARK    1  A    between atoms: N_24  and  C_13 
REMARK    2  A    between atoms: N_28  and  C_14 
REMARK    3  A    between atoms: C_16  and  C_15 
REMARK    4  A    between atoms: N_19  and  C_17 
ROOT
HETATM    1  C   UNK N   1      21.256  19.225   2.691  0.00  0.00     0.104 C 
HETATM    2  C   UNK N   1      19.790  18.891   2.421  0.00  0.00     0.085 C 
HETATM    3  C   UNK N   1      21.929  18.222   3.602  0.00  0.00     0.050 C 
HETATM    4  C   UNK N   1      19.856  17.114   3.960  0.00  0.00     0.682 C 
HETATM    5  N   UNK N   1      19.172  17.920   3.019  0.00  0.00    -0.205 N 
ATOM      6  HN  UNK N   1      18.190  17.736   2.810  1.00  0.00     0.183 HD
HETATM    7  N   UNK N   1      19.226  16.257   4.713  0.00  0.00    -0.192 N 
ATOM      8  HN  UNK N   1      18.242  16.053   4.540  1.00  0.00     0.184 HD
HETATM    9  N   UNK N   1      21.245  17.286   4.131  0.00  0.00    -0.194 N 
ATOM     10  HN  UNK N   1      21.737  16.613   4.721  1.00  0.00     0.184 HD
ENDROOT
BRANCH   7  11
HETATM   11  C   UNK N   1      19.918  15.599   5.784  0.00  0.00     0.049 A 
HETATM   12  C   UNK N   1      19.877  16.092   7.095  0.00  0.00     0.032 A 
HETATM   13  C   UNK N   1      20.399  15.316   8.149  0.00  0.00     0.031 A 
HETATM   14  C   UNK N   1      20.954  14.040   7.896  0.00  0.00     0.030 A 
HETATM   15  C   UNK N   1      21.052  13.600   6.577  0.00  0.00     0.031 A 
HETATM   16  C   UNK N   1      20.559  14.371   5.545  0.00  0.00     0.032 A 
BRANCH  14  17
HETATM   17  N   UNK N   1      21.347  13.164   8.953  0.00  0.00    -0.377 N 
HETATM   18  C   UNK N   1      22.564  12.372   8.819  0.00  0.00     0.149 C 
HETATM   19  C   UNK N   1      22.841  11.532  10.065  0.00  0.00     0.187 C 
HETATM   20  O   UNK N   1      22.576  12.295  11.205  0.00  0.00    -0.388 OA
HETATM   21  C   UNK N   1      21.181  12.301  11.293  0.00  0.00     0.187 C 
HETATM   22  C   UNK N   1      20.596  13.206  10.210  0.00  0.00     0.149 C 
ENDBRANCH  14  17
ENDBRANCH   7  11
BRANCH   3  23
HETATM   23  C   UNK N   1      23.344  18.297   4.022  0.00  0.00     0.054 A 
HETATM   24  C   UNK N   1      24.317  19.297   3.824  0.00  0.00     0.026 A 
HETATM   25  C   UNK N   1      24.069  20.557   3.076  0.00  0.00     0.070 C 
HETATM   26  N   UNK N   1      25.536  19.050   4.432  0.00  0.00    -0.340 N 
HETATM   27  C   UNK N   1      25.538  17.869   5.098  0.00  0.00     0.143 A 
HETATM   28  H   UNK N   1      26.309  19.658   4.385  0.00  0.00     0.168 HD
HETATM   29  S   UNK N   1      24.078  17.137   4.964  0.00  0.00    -0.051 SA
BRANCH  27  30
HETATM   30  N   UNK N   1      26.534  17.419   5.760  0.00  0.00    -0.380 N 
HETATM   31  H   UNK N   1      26.505  17.400   6.743  0.00  0.00     0.158 HD
ATOM     32  HN  UNK N   1      27.361  17.080   5.267  1.00  0.00     0.158 HD
ENDBRANCH  27  30
ENDBRANCH   3  23
TORSDOF 4
ENDMDL
MODEL 6
REMARK VINA RESULT:      -7.0      6.692      9.965
REMARK  4 active torsions:
REMARK  status: ('A' for Active; 'I' for Inactive)
REMARK    1  A    between atoms: N_24  and  C_13 
REMARK    2  A    between atoms: N_28  and  C_14 
REMARK    3  A    between atoms: C_16  and  C_15 
REMARK    4  A    between atoms: N_19  and  C_17 
ROOT
HETATM    1  C   UNK N   1      24.552  20.523   3.352  0.00  0.00     0.104 C 
HETATM    2  C   UNK N   1      23.164  20.633   2.723  0.00  0.00     0.085 C 
HETATM    3  C   UNK N   1      24.696  19.316   4.251  0.00  0.00     0.050 C 
HETATM    4  C   UNK N   1      22.386  18.814   3.995  0.00  0.00     0.682 C 
HETATM    5  N   UNK N   1      22.188  19.839   3.038  0.00  0.00    -0.205 N 
ATOM      6  HN  UNK N   1      21.276  19.952   2.594  1.00  0.00     0.183 HD
HETATM    7  N   UNK N   1      21.390  18.122   4.471  0.00  0.00    -0.192 N 
ATOM      8  HN  UNK N   1      20.462  18.215   4.059  1.00  0.00     0.184 HD
HETATM    9  N   UNK N   1      23.685  18.577   4.490  0.00  0.00    -0.194 N 
ATOM     10  HN  UNK N   1      23.825  17.757   5.081  1.00  0.00     0.184 HD
ENDROOT
BRANCH   7  11
HETATM   11  C   UNK N   1      21.600  17.228   5.573  0.00  0.00     0.049 A 
HETATM   12  C   UNK N   1      20.951  17.415   6.802  0.00  0.00     0.032 A 
HETATM   13  C   UNK N   1      21.026  16.413   7.790  0.00  0.00     0.031 A 
HETATM   14  C   UNK N   1      21.743  15.218   7.548  0.00  0.00     0.030 A 
HETATM   15  C   UNK N   1      22.442  15.084   6.351  0.00  0.00     0.031 A 
HETATM   16  C   UNK N   1      22.384  16.075   5.393  0.00  0.00     0.032 A 
BRANCH  14  17
HETATM   17  N   UNK N   1      21.710  14.120   8.462  0.00  0.00    -0.377 N 
HETATM   18  C   UNK N   1      22.763  13.112   8.416  0.00  0.00     0.149 C 
HETATM   19  C   UNK N   1      22.580  12.044   9.494  0.00  0.00     0.187 C 
HETATM   20  O   UNK N   1      22.191  12.656  10.689  0.00  0.00    -0.388 OA
HETATM   21  C   UNK N   1      20.840  12.954  10.494  0.00  0.00     0.187 C 
HETATM   22  C   UNK N   1      20.700  14.126   9.523  0.00  0.00     0.149 C 
ENDBRANCH  14  17
ENDBRANCH   7  11
BRANCH   3  23
HETATM   23  C   UNK N   1      25.932  18.963   4.981  0.00  0.00     0.054 A 
HETATM   24  C   UNK N   1      26.779  19.739   5.797  0.00  0.00     0.026 A 
HETATM   25  C   UNK N   1      26.563  21.182   6.078  0.00  0.00     0.070 C 
HETATM   26  N   UNK N   1      27.823  19.041   6.380  0.00  0.00    -0.340 N 
HETATM   27  C   UNK N   1      27.813  17.731   6.028  0.00  0.00     0.143 A 
HETATM   28  H   UNK N   1      28.492  19.447   6.977  0.00  0.00     0.168 HD
HETATM   29  S   UNK N   1      26.550  17.418   5.033  0.00  0.00    -0.051 SA
BRANCH  27  30
HETATM   30  N   UNK N   1      28.658  16.869   6.447  0.00  0.00    -0.380 N 
HETATM   31  H   UNK N   1      29.552  16.815   6.038  0.00  0.00     0.158 HD
ATOM     32  HN  UNK N   1      28.407  16.237   7.208  1.00  0.00     0.158 HD
ENDBRANCH  27  30
ENDBRANCH   3  23
TORSDOF 4
ENDMDL
MODEL 7
REMARK VINA RESULT:      -6.8      2.182      3.035
REMARK  4 active torsions:
REMARK  status: ('A' for Active; 'I' for Inactive)
REMARK    1  A    between atoms: N_24  and  C_13 
REMARK    2  A    between atoms: N_28  and  C_14 
REMARK    3  A    between atoms: C_16  and  C_15 
REMARK    4  A    between atoms: N_19  and  C_17 
ROOT
HETATM    1  C   UNK N   1      26.585  16.350   3.048  0.00  0.00     0.104 C 
HETATM    2  C   UNK N   1      26.886  15.232   2.053  0.00  0.00     0.085 C 
HETATM    3  C   UNK N   1      27.826  16.878   3.733  0.00  0.00     0.050 C 
HETATM    4  C   UNK N   1      29.146  15.190   2.703  0.00  0.00     0.682 C 
HETATM    5  N   UNK N   1      28.068  14.716   1.917  0.00  0.00    -0.205 N 
ATOM      6  HN  UNK N   1      28.223  13.967   1.240  1.00  0.00     0.183 HD
HETATM    7  N   UNK N   1      30.296  14.577   2.729  0.00  0.00    -0.192 N 
ATOM      8  HN  UNK N   1      30.483  13.817   2.075  1.00  0.00     0.184 HD
HETATM    9  N   UNK N   1      28.953  16.320   3.524  0.00  0.00    -0.194 N 
ATOM     10  HN  UNK N   1      29.772  16.718   3.984  1.00  0.00     0.184 HD
ENDROOT
BRANCH   7  11
HETATM   11  C   UNK N   1      31.297  14.971   3.678  0.00  0.00     0.049 A 
HETATM   12  C   UNK N   1      32.115  16.088   3.458  0.00  0.00     0.032 A 
HETATM   13  C   UNK N   1      32.946  16.559   4.495  0.00  0.00     0.031 A 
HETATM   14  C   UNK N   1      32.953  15.919   5.756  0.00  0.00     0.030 A 
HETATM   15  C   UNK N   1      32.190  14.767   5.930  0.00  0.00     0.031 A 
HETATM   16  C   UNK N   1      31.393  14.295   4.907  0.00  0.00     0.032 A 
BRANCH  14  17
HETATM   17  N   UNK N   1      33.661  16.460   6.872  0.00  0.00    -0.377 N 
HETATM   18  C   UNK N   1      33.854  17.902   6.975  0.00  0.00     0.149 C 
HETATM   19  C   UNK N   1      34.594  18.292   8.254  0.00  0.00     0.187 C 
HETATM   20  O   UNK N   1      34.105  17.532   9.320  0.00  0.00    -0.388 OA
HETATM   21  C   UNK N   1      34.693  16.277   9.141  0.00  0.00     0.187 C 
HETATM   22  C   UNK N   1      34.038  15.558   7.963  0.00  0.00     0.149 C 
ENDBRANCH  14  17
ENDBRANCH   7  11
BRANCH   3  23
HETATM   23  C   UNK N   1      27.826  17.964   4.736  0.00  0.00     0.054 A 
HETATM   24  C   UNK N   1      28.272  17.990   6.073  0.00  0.00     0.026 A 
HETATM   25  C   UNK N   1      28.857  16.817   6.773  0.00  0.00     0.070 C 
HETATM   26  N   UNK N   1      28.176  19.223   6.693  0.00  0.00    -0.340 N 
HETATM   27  C   UNK N   1      27.656  20.165   5.867  0.00  0.00     0.143 A 
HETATM   28  H   UNK N   1      28.451  19.396   7.622  0.00  0.00     0.168 HD
HETATM   29  S   UNK N   1      27.327  19.516   4.399  0.00  0.00    -0.051 SA
BRANCH  27  30
HETATM   30  N   UNK N   1      27.484  21.389   6.191  0.00  0.00    -0.380 N 
HETATM   31  H   UNK N   1      27.638  22.101   5.529  0.00  0.00     0.158 HD
ATOM     32  HN  UNK N   1      27.186  21.628   7.137  1.00  0.00     0.158 HD
ENDBRANCH  27  30
ENDBRANCH   3  23
TORSDOF 4
ENDMDL
MODEL 8
REMARK VINA RESULT:      -6.8     10.180     11.912
REMARK  4 active torsions:
REMARK  status: ('A' for Active; 'I' for Inactive)
REMARK    1  A    between atoms: N_24  and  C_13 
REMARK    2  A    between atoms: N_28  and  C_14 
REMARK    3  A    between atoms: C_16  and  C_15 
REMARK    4  A    between atoms: N_19  and  C_17 
ROOT
HETATM    1  C   UNK N   1      20.648  18.366   1.766  0.00  0.00     0.104 C 
HETATM    2  C   UNK N   1      20.925  19.638   2.566  0.00  0.00     0.085 C 
HETATM    3  C   UNK N   1      20.448  17.151   2.645  0.00  0.00     0.050 C 
HETATM    4  C   UNK N   1      21.019  18.418   4.574  0.00  0.00     0.682 C 
HETATM    5  N   UNK N   1      21.095  19.633   3.852  0.00  0.00    -0.205 N 
ATOM      6  HN  UNK N   1      21.281  20.507   4.344  1.00  0.00     0.183 HD
HETATM    7  N   UNK N   1      21.366  18.345   5.829  0.00  0.00    -0.192 N 
ATOM      8  HN  UNK N   1      21.569  19.197   6.351  1.00  0.00     0.184 HD
HETATM    9  N   UNK N   1      20.617  17.244   3.905  0.00  0.00    -0.194 N 
ATOM     10  HN  UNK N   1      20.450  16.410   4.469  1.00  0.00     0.184 HD
ENDROOT
BRANCH   7  11
HETATM   11  C   UNK N   1      21.460  17.067   6.474  0.00  0.00     0.049 A 
HETATM   12  C   UNK N   1      22.536  16.202   6.231  0.00  0.00     0.032 A 
HETATM   13  C   UNK N   1      22.697  15.050   7.027  0.00  0.00     0.031 A 
HETATM   14  C   UNK N   1      21.788  14.766   8.073  0.00  0.00     0.030 A 
HETATM   15  C   UNK N   1      20.685  15.598   8.249  0.00  0.00     0.031 A 
HETATM   16  C   UNK N   1      20.518  16.714   7.455  0.00  0.00     0.032 A 
BRANCH  14  17
HETATM   17  N   UNK N   1      22.009  13.697   8.995  0.00  0.00    -0.377 N 
HETATM   18  C   UNK N   1      23.311  13.043   9.044  0.00  0.00     0.149 C 
HETATM   19  C   UNK N   1      23.367  11.957  10.118  0.00  0.00     0.187 C 
HETATM   20  O   UNK N   1      22.723  12.414  11.271  0.00  0.00    -0.388 OA
HETATM   21  C   UNK N   1      21.364  12.304  10.967  0.00  0.00     0.187 C 
HETATM   22  C   UNK N   1      20.962  13.394   9.974  0.00  0.00     0.149 C 
ENDBRANCH  14  17
ENDBRANCH   7  11
BRANCH   3  23
HETATM   23  C   UNK N   1      20.159  15.794   2.136  0.00  0.00     0.054 A 
HETATM   24  C   UNK N   1      19.567  15.363   0.932  0.00  0.00     0.026 A 
HETATM   25  C   UNK N   1      19.072  16.285  -0.123  0.00  0.00     0.070 C 
HETATM   26  N   UNK N   1      19.523  13.989   0.765  0.00  0.00    -0.340 N 
HETATM   27  C   UNK N   1      20.065  13.335   1.823  0.00  0.00     0.143 A 
HETATM   28  H   UNK N   1      19.143  13.542  -0.024  0.00  0.00     0.168 HD
HETATM   29  S   UNK N   1      20.602  14.406   2.941  0.00  0.00    -0.051 SA
BRANCH  27  30
HETATM   30  N   UNK N   1      20.165  12.064   1.906  0.00  0.00    -0.380 N 
HETATM   31  H   UNK N   1      20.936  11.603   1.505  0.00  0.00     0.158 HD
ATOM     32  HN  UNK N   1      19.444  11.527   2.389  1.00  0.00     0.158 HD
ENDBRANCH  27  30
ENDBRANCH   3  23
TORSDOF 4
ENDMDL
MODEL 9
REMARK VINA RESULT:      -6.7      3.177      7.719
REMARK  4 active torsions:
REMARK  status: ('A' for Active; 'I' for Inactive)
REMARK    1  A    between atoms: N_24  and  C_13 
REMARK    2  A    between atoms: N_28  and  C_14 
REMARK    3  A    between atoms: C_16  and  C_15 
REMARK    4  A    between atoms: N_19  and  C_17 
ROOT
HETATM    1  C   UNK N   1      35.655  14.616  10.708  0.00  0.00     0.104 C 
HETATM    2  C   UNK N   1      35.810  16.014  11.303  0.00  0.00     0.085 C 
HETATM    3  C   UNK N   1      34.953  14.622   9.368  0.00  0.00     0.050 C 
HETATM    4  C   UNK N   1      34.522  16.951   9.573  0.00  0.00     0.682 C 
HETATM    5  N   UNK N   1      35.278  17.067  10.764  0.00  0.00    -0.205 N 
ATOM      6  HN  UNK N   1      35.405  17.982  11.199  1.00  0.00     0.183 HD
HETATM    7  N   UNK N   1      33.822  17.947   9.107  0.00  0.00    -0.192 N 
ATOM      8  HN  UNK N   1      33.915  18.874   9.522  1.00  0.00     0.184 HD
HETATM    9  N   UNK N   1      34.478  15.710   8.905  0.00  0.00    -0.194 N 
ATOM     10  HN  UNK N   1      34.032  15.682   7.987  1.00  0.00     0.184 HD
ENDROOT
BRANCH   7  11
HETATM   11  C   UNK N   1      32.921  17.740   8.010  0.00  0.00     0.049 A 
HETATM   12  C   UNK N   1      33.382  17.660   6.689  0.00  0.00     0.032 A 
HETATM   13  C   UNK N   1      32.499  17.259   5.665  0.00  0.00     0.031 A 
HETATM   14  C   UNK N   1      31.157  16.929   5.963  0.00  0.00     0.030 A 
HETATM   15  C   UNK N   1      30.700  17.087   7.269  0.00  0.00     0.031 A 
HETATM   16  C   UNK N   1      31.560  17.499   8.266  0.00  0.00     0.032 A 
BRANCH  14  17
HETATM   17  N   UNK N   1      30.282  16.372   4.981  0.00  0.00    -0.377 N 
HETATM   18  C   UNK N   1      30.568  16.567   3.564  0.00  0.00     0.149 C 
HETATM   19  C   UNK N   1      29.547  15.864   2.671  0.00  0.00     0.187 C 
HETATM   20  O   UNK N   1      29.259  14.603   3.202  0.00  0.00    -0.388 OA
HETATM   21  C   UNK N   1      28.409  14.874   4.277  0.00  0.00     0.187 C 
HETATM   22  C   UNK N   1      29.204  15.486   5.429  0.00  0.00     0.149 C 
ENDBRANCH  14  17
ENDBRANCH   7  11
BRANCH   3  23
HETATM   23  C   UNK N   1      34.677  13.411   8.566  0.00  0.00     0.054 A 
HETATM   24  C   UNK N   1      35.539  12.565   7.840  0.00  0.00     0.026 A 
HETATM   25  C   UNK N   1      37.007  12.774   7.733  0.00  0.00     0.070 C 
HETATM   26  N   UNK N   1      34.925  11.468   7.261  0.00  0.00    -0.340 N 
HETATM   27  C   UNK N   1      33.592  11.443   7.516  0.00  0.00     0.143 A 
HETATM   28  H   UNK N   1      35.397  10.789   6.728  0.00  0.00     0.168 HD
HETATM   29  S   UNK N   1      33.165  12.727   8.440  0.00  0.00    -0.051 SA
BRANCH  27  30
HETATM   30  N   UNK N   1      32.802  10.525   7.112  0.00  0.00    -0.380 N 
HETATM   31  H   UNK N   1      32.354   9.938   7.764  0.00  0.00     0.158 HD
ATOM     32  HN  UNK N   1      32.634  10.400   6.114  1.00  0.00     0.158 HD
ENDBRANCH  27  30
ENDBRANCH   3  23
TORSDOF 4
ENDMDL
