MODEL 1
REMARK VINA RESULT:      -6.8      0.000      0.000
REMARK  6 active torsions:
REMARK  status: ('A' for Active; 'I' for Inactive)
REMARK    1  A    between atoms: C_8  and  C_7 
REMARK    2  A    between atoms: C_15  and  C_7 
REMARK    3  A    between atoms: N_19  and  C_8 
REMARK    4  A    between atoms: C_12  and  C_9 
REMARK    5  A    between atoms: C_13  and  C_10 
REMARK    6  A    between atoms: O_21  and  C_15 
ROOT
HETATM    1  C   UNK N   1      26.660  13.824   5.192  0.00  0.00     0.061 C 
HETATM    2  C   UNK N   1      27.580  14.819   5.295  0.00  0.00     0.078 A 
HETATM    3  C   UNK N   1      27.611  15.974   6.232  0.00  0.00     0.266 A 
HETATM    4  C   UNK N   1      29.509  16.358   4.999  0.00  0.00     0.148 A 
HETATM    5  N   UNK N   1      28.660  16.791   6.046  0.00  0.00    -0.298 N 
HETATM    6  O   UNK N   1      26.801  16.177   7.120  0.00  0.00    -0.266 OA
HETATM    7  S   UNK N   1      30.699  17.067   4.611  0.00  0.00    -0.052 SA
HETATM    8  S   UNK N   1      29.014  14.825   4.190  0.00  0.00    -0.055 SA
ENDROOT
BRANCH   1   9
HETATM    9  C   UNK N   1      25.416  13.709   5.986  0.00  0.00     0.077 A 
HETATM   10  C   UNK N   1      24.145  14.065   5.565  0.00  0.00     0.040 A 
HETATM   11  C   UNK N   1      23.308  13.811   6.649  0.00  0.00     0.041 A 
HETATM   12  C   UNK N   1      24.141  13.337   7.647  0.00  0.00     0.086 A 
HETATM   13  O   UNK N   1      25.368  13.295   7.216  0.00  0.00    -0.310 OA
BRANCH  12  14
HETATM   14  C   UNK N   1      23.792  12.929   9.013  0.00  0.00    -0.002 A 
HETATM   15  C   UNK N   1      22.464  12.890   9.458  0.00  0.00     0.016 A 
HETATM   16  C   UNK N   1      22.182  12.495  10.772  0.00  0.00     0.024 A 
HETATM   17  C   UNK N   1      23.223  12.144  11.640  0.00  0.00     0.034 A 
HETATM   18  C   UNK N   1      24.545  12.184  11.197  0.00  0.00     0.024 A 
HETATM   19 Cl   UNK N   1      22.879  11.651  13.281  0.00  0.00    -0.084 Cl
HETATM   20  C   UNK N   1      24.827  12.574   9.889  0.00  0.00     0.016 A 
ENDBRANCH  12  14
ENDBRANCH   1   9
BRANCH   5  21
HETATM   21  C   UNK N   1      28.914  17.964   6.865  0.00  0.00     0.144 C 
BRANCH  21  22
HETATM   22  C   UNK N   1      29.604  17.586   8.168  0.00  0.00     0.130 C 
BRANCH  22  23
HETATM   23  C   UNK N   1      28.874  18.181   9.327  0.00  0.00     0.141 C 
HETATM   24  O   UNK N   1      29.491  18.747  10.214  0.00  0.00    -0.650 OA
BRANCH  23  25
HETATM   25  O   UNK N   1      27.531  18.108   9.386  0.00  0.00    -0.776 OA
HETATM   26  H   UNK N   1      27.100  17.755  10.139  0.00  0.00     0.167 HD
ENDBRANCH  23  25
ENDBRANCH  22  23
ENDBRANCH  21  22
ENDBRANCH   5  21
TORSDOF 6
ENDMDL
MODEL 2
REMARK VINA RESULT:      -6.6      5.997      7.415
REMARK  6 active torsions:
REMARK  status: ('A' for Active; 'I' for Inactive)
REMARK    1  A    between atoms: C_8  and  C_7 
REMARK    2  A    between atoms: C_15  and  C_7 
REMARK    3  A    between atoms: N_19  and  C_8 
REMARK    4  A    between atoms: C_12  and  C_9 
REMARK    5  A    between atoms: C_13  and  C_10 
REMARK    6  A    between atoms: O_21  and  C_15 
ROOT
HETATM    1  C   UNK N   1      28.165  18.958   6.863  0.00  0.00     0.061 C 
HETATM    2  C   UNK N   1      29.171  18.045   6.849  0.00  0.00     0.078 A 
HETATM    3  C   UNK N   1      29.751  17.306   5.696  0.00  0.00     0.266 A 
HETATM    4  C   UNK N   1      30.991  16.455   7.430  0.00  0.00     0.148 A 
HETATM    5  N   UNK N   1      30.727  16.451   6.039  0.00  0.00    -0.298 N 
HETATM    6  O   UNK N   1      29.423  17.458   4.531  0.00  0.00    -0.266 OA
HETATM    7  S   UNK N   1      31.994  15.624   8.040  0.00  0.00    -0.052 SA
HETATM    8  S   UNK N   1      29.996  17.604   8.399  0.00  0.00    -0.055 SA
ENDROOT
BRANCH   1   9
HETATM    9  C   UNK N   1      27.364  19.383   5.692  0.00  0.00     0.077 A 
HETATM   10  C   UNK N   1      27.815  20.154   4.633  0.00  0.00     0.040 A 
HETATM   11  C   UNK N   1      26.713  20.322   3.799  0.00  0.00     0.041 A 
HETATM   12  C   UNK N   1      25.677  19.652   4.425  0.00  0.00     0.086 A 
HETATM   13  O   UNK N   1      26.102  19.118   5.533  0.00  0.00    -0.310 OA
BRANCH  12  14
HETATM   14  C   UNK N   1      24.281  19.518   3.994  0.00  0.00    -0.002 A 
HETATM   15  C   UNK N   1      23.462  18.476   4.448  0.00  0.00     0.016 A 
HETATM   16  C   UNK N   1      22.136  18.391   4.005  0.00  0.00     0.024 A 
HETATM   17  C   UNK N   1      21.630  19.341   3.110  0.00  0.00     0.034 A 
HETATM   18  C   UNK N   1      22.446  20.378   2.658  0.00  0.00     0.024 A 
HETATM   19 Cl   UNK N   1      19.975  19.240   2.554  0.00  0.00    -0.084 Cl
HETATM   20  C   UNK N   1      23.765  20.465   3.099  0.00  0.00     0.016 A 
ENDBRANCH  12  14
ENDBRANCH   1   9
BRANCH   5  21
HETATM   21  C   UNK N   1      31.460  15.647   5.076  0.00  0.00     0.144 C 
BRANCH  21  22
HETATM   22  C   UNK N   1      32.710  16.370   4.594  0.00  0.00     0.130 C 
BRANCH  22  23
HETATM   23  C   UNK N   1      32.656  16.559   3.113  0.00  0.00     0.141 C 
HETATM   24  O   UNK N   1      33.512  16.061   2.401  0.00  0.00    -0.650 OA
BRANCH  23  25
HETATM   25  O   UNK N   1      31.652  17.266   2.562  0.00  0.00    -0.776 OA
HETATM   26  H   UNK N   1      31.457  17.195   1.648  0.00  0.00     0.167 HD
ENDBRANCH  23  25
ENDBRANCH  22  23
ENDBRANCH  21  22
ENDBRANCH   5  21
TORSDOF 6
ENDMDL
MODEL 3
REMARK VINA RESULT:      -6.5     15.056     17.161
REMARK  6 active torsions:
REMARK  status: ('A' for Active; 'I' for Inactive)
REMARK    1  A    between atoms: C_8  and  C_7 
REMARK    2  A    between atoms: C_15  and  C_7 
REMARK    3  A    between atoms: N_19  and  C_8 
REMARK    4  A    between atoms: C_12  and  C_9 
REMARK    5  A    between atoms: C_13  and  C_10 
REMARK    6  A    between atoms: O_21  and  C_15 
ROOT
HETATM    1  C   UNK N   1      28.102  22.773  -7.798  0.00  0.00     0.061 C 
HETATM    2  C   UNK N   1      29.169  22.019  -7.426  0.00  0.00     0.078 A 
HETATM    3  C   UNK N   1      29.703  21.759  -6.062  0.00  0.00     0.266 A 
HETATM    4  C   UNK N   1      31.191  20.576  -7.348  0.00  0.00     0.148 A 
HETATM    5  N   UNK N   1      30.797  20.982  -6.051  0.00  0.00    -0.298 N 
HETATM    6  O   UNK N   1      29.204  22.166  -5.026  0.00  0.00    -0.266 OA
HETATM    7  S   UNK N   1      32.334  19.738  -7.595  0.00  0.00    -0.052 SA
HETATM    8  S   UNK N   1      30.138  21.159  -8.690  0.00  0.00    -0.055 SA
ENDROOT
BRANCH   1   9
HETATM    9  C   UNK N   1      27.246  23.572  -6.892  0.00  0.00     0.077 A 
HETATM   10  C   UNK N   1      26.074  23.145  -6.290  0.00  0.00     0.040 A 
HETATM   11  C   UNK N   1      25.609  24.237  -5.562  0.00  0.00     0.041 A 
HETATM   12  C   UNK N   1      26.528  25.245  -5.792  0.00  0.00     0.086 A 
HETATM   13  O   UNK N   1      27.471  24.813  -6.578  0.00  0.00    -0.310 OA
BRANCH  12  14
HETATM   14  C   UNK N   1      26.523  26.621  -5.283  0.00  0.00    -0.002 A 
HETATM   15  C   UNK N   1      25.908  26.961  -4.071  0.00  0.00     0.016 A 
HETATM   16  C   UNK N   1      25.929  28.290  -3.629  0.00  0.00     0.024 A 
HETATM   17  C   UNK N   1      26.559  29.277  -4.397  0.00  0.00     0.034 A 
HETATM   18  C   UNK N   1      27.169  28.939  -5.605  0.00  0.00     0.024 A 
HETATM   19 Cl   UNK N   1      26.588  30.938  -3.852  0.00  0.00    -0.084 Cl
HETATM   20  C   UNK N   1      27.152  27.617  -6.044  0.00  0.00     0.016 A 
ENDBRANCH  12  14
ENDBRANCH   1   9
BRANCH   5  21
HETATM   21  C   UNK N   1      31.471  20.569  -4.831  0.00  0.00     0.144 C 
BRANCH  21  22
HETATM   22  C   UNK N   1      32.307  21.703  -4.254  0.00  0.00     0.130 C 
BRANCH  22  23
HETATM   23  C   UNK N   1      32.169  21.737  -2.767  0.00  0.00     0.141 C 
HETATM   24  O   UNK N   1      31.290  22.405  -2.249  0.00  0.00    -0.650 OA
BRANCH  23  25
HETATM   25  O   UNK N   1      33.005  21.016  -1.997  0.00  0.00    -0.776 OA
HETATM   26  H   UNK N   1      32.807  20.129  -1.769  0.00  0.00     0.167 HD
ENDBRANCH  23  25
ENDBRANCH  22  23
ENDBRANCH  21  22
ENDBRANCH   5  21
TORSDOF 6
ENDMDL
MODEL 4
REMARK VINA RESULT:      -6.5      8.554     10.322
REMARK  6 active torsions:
REMARK  status: ('A' for Active; 'I' for Inactive)
REMARK    1  A    between atoms: C_8  and  C_7 
REMARK    2  A    between atoms: C_15  and  C_7 
REMARK    3  A    between atoms: N_19  and  C_8 
REMARK    4  A    between atoms: C_12  and  C_9 
REMARK    5  A    between atoms: C_13  and  C_10 
REMARK    6  A    between atoms: O_21  and  C_15 
ROOT
HETATM    1  C   UNK N   1      34.870  11.803   9.319  0.00  0.00     0.061 C 
HETATM    2  C   UNK N   1      34.533  12.738   8.393  0.00  0.00     0.078 A 
HETATM    3  C   UNK N   1      34.929  14.170   8.321  0.00  0.00     0.266 A 
HETATM    4  C   UNK N   1      33.574  13.997   6.476  0.00  0.00     0.148 A 
HETATM    5  N   UNK N   1      34.393  14.826   7.279  0.00  0.00    -0.298 N 
HETATM    6  O   UNK N   1      35.693  14.725   9.093  0.00  0.00    -0.266 OA
HETATM    7  S   UNK N   1      32.890  14.471   5.303  0.00  0.00    -0.052 SA
HETATM    8  S   UNK N   1      33.463  12.278   7.007  0.00  0.00    -0.055 SA
ENDROOT
BRANCH   1   9
HETATM    9  C   UNK N   1      35.690  12.036  10.529  0.00  0.00     0.077 A 
HETATM   10  C   UNK N   1      37.068  11.917  10.615  0.00  0.00     0.040 A 
HETATM   11  C   UNK N   1      37.384  12.198  11.941  0.00  0.00     0.041 A 
HETATM   12  C   UNK N   1      36.172  12.451  12.558  0.00  0.00     0.086 A 
HETATM   13  O   UNK N   1      35.205  12.343  11.694  0.00  0.00    -0.310 OA
BRANCH  12  14
HETATM   14  C   UNK N   1      35.913  12.786  13.963  0.00  0.00    -0.002 A 
HETATM   15  C   UNK N   1      34.832  12.239  14.668  0.00  0.00     0.016 A 
HETATM   16  C   UNK N   1      34.626  12.591  16.008  0.00  0.00     0.024 A 
HETATM   17  C   UNK N   1      35.496  13.487  16.641  0.00  0.00     0.034 A 
HETATM   18  C   UNK N   1      36.571  14.032  15.939  0.00  0.00     0.024 A 
HETATM   19 Cl   UNK N   1      35.245  13.931  18.314  0.00  0.00    -0.084 Cl
HETATM   20  C   UNK N   1      36.778  13.681  14.607  0.00  0.00     0.016 A 
ENDBRANCH  12  14
ENDBRANCH   1   9
BRANCH   5  21
HETATM   21  C   UNK N   1      34.667  16.224   6.989  0.00  0.00     0.144 C 
BRANCH  21  22
HETATM   22  C   UNK N   1      33.841  17.142   7.879  0.00  0.00     0.130 C 
BRANCH  22  23
HETATM   23  C   UNK N   1      34.739  18.020   8.686  0.00  0.00     0.141 C 
HETATM   24  O   UNK N   1      34.988  19.153   8.309  0.00  0.00    -0.650 OA
BRANCH  23  25
HETATM   25  O   UNK N   1      35.263  17.568   9.841  0.00  0.00    -0.776 OA
HETATM   26  H   UNK N   1      34.780  16.987  10.395  0.00  0.00     0.167 HD
ENDBRANCH  23  25
ENDBRANCH  22  23
ENDBRANCH  21  22
ENDBRANCH   5  21
TORSDOF 6
ENDMDL
MODEL 5
REMARK VINA RESULT:      -6.5      4.935      6.298
REMARK  6 active torsions:
REMARK  status: ('A' for Active; 'I' for Inactive)
REMARK    1  A    between atoms: C_8  and  C_7 
REMARK    2  A    between atoms: C_15  and  C_7 
REMARK    3  A    between atoms: N_19  and  C_8 
REMARK    4  A    between atoms: C_12  and  C_9 
REMARK    5  A    between atoms: C_13  and  C_10 
REMARK    6  A    between atoms: O_21  and  C_15 
ROOT
HETATM    1  C   UNK N   1      23.303  14.234   3.880  0.00  0.00     0.061 C 
HETATM    2  C   UNK N   1      22.447  15.131   3.322  0.00  0.00     0.078 A 
HETATM    3  C   UNK N   1      21.916  16.398   3.891  0.00  0.00     0.266 A 
HETATM    4  C   UNK N   1      20.868  16.362   1.850  0.00  0.00     0.148 A 
HETATM    5  N   UNK N   1      21.063  17.039   3.077  0.00  0.00    -0.298 N 
HETATM    6  O   UNK N   1      22.227  16.863   4.975  0.00  0.00    -0.266 OA
HETATM    7  S   UNK N   1      20.000  16.852   0.813  0.00  0.00    -0.052 SA
HETATM    8  S   UNK N   1      21.814  14.841   1.651  0.00  0.00    -0.055 SA
ENDROOT
BRANCH   1   9
HETATM    9  C   UNK N   1      23.864  14.306   5.248  0.00  0.00     0.077 A 
HETATM   10  C   UNK N   1      25.038  14.943   5.614  0.00  0.00     0.040 A 
HETATM   11  C   UNK N   1      25.173  14.719   6.982  0.00  0.00     0.041 A 
HETATM   12  C   UNK N   1      24.076  13.951   7.334  0.00  0.00     0.086 A 
HETATM   13  O   UNK N   1      23.336  13.732   6.287  0.00  0.00    -0.310 OA
BRANCH  12  14
HETATM   14  C   UNK N   1      23.722  13.412   8.651  0.00  0.00    -0.002 A 
HETATM   15  C   UNK N   1      22.414  13.473   9.151  0.00  0.00     0.016 A 
HETATM   16  C   UNK N   1      22.127  12.944  10.416  0.00  0.00     0.024 A 
HETATM   17  C   UNK N   1      23.144  12.360  11.181  0.00  0.00     0.034 A 
HETATM   18  C   UNK N   1      24.446  12.301  10.685  0.00  0.00     0.024 A 
HETATM   19 Cl   UNK N   1      22.792  11.699  12.762  0.00  0.00    -0.084 Cl
HETATM   20  C   UNK N   1      24.732  12.824   9.426  0.00  0.00     0.016 A 
ENDBRANCH  12  14
ENDBRANCH   1   9
BRANCH   5  21
HETATM   21  C   UNK N   1      20.446  18.313   3.409  0.00  0.00     0.144 C 
BRANCH  21  22
HETATM   22  C   UNK N   1      21.492  19.406   3.566  0.00  0.00     0.130 C 
BRANCH  22  23
HETATM   23  C   UNK N   1      21.316  20.443   2.505  0.00  0.00     0.141 C 
HETATM   24  O   UNK N   1      20.790  20.149   1.444  0.00  0.00    -0.650 OA
BRANCH  23  25
HETATM   25  O   UNK N   1      21.721  21.707   2.726  0.00  0.00    -0.776 OA
HETATM   26  H   UNK N   1      21.323  22.427   2.277  0.00  0.00     0.167 HD
ENDBRANCH  23  25
ENDBRANCH  22  23
ENDBRANCH  21  22
ENDBRANCH   5  21
TORSDOF 6
ENDMDL
MODEL 6
REMARK VINA RESULT:      -6.5      6.226      7.848
REMARK  6 active torsions:
REMARK  status: ('A' for Active; 'I' for Inactive)
REMARK    1  A    between atoms: C_8  and  C_7 
REMARK    2  A    between atoms: C_15  and  C_7 
REMARK    3  A    between atoms: N_19  and  C_8 
REMARK    4  A    between atoms: C_12  and  C_9 
REMARK    5  A    between atoms: C_13  and  C_10 
REMARK    6  A    between atoms: O_21  and  C_15 
ROOT
HETATM    1  C   UNK N   1      33.114  14.963   5.307  0.00  0.00     0.061 C 
HETATM    2  C   UNK N   1      33.986  14.692   6.313  0.00  0.00     0.078 A 
HETATM    3  C   UNK N   1      33.732  14.605   7.776  0.00  0.00     0.266 A 
HETATM    4  C   UNK N   1      35.989  14.195   7.699  0.00  0.00     0.148 A 
HETATM    5  N   UNK N   1      34.831  14.341   8.500  0.00  0.00    -0.298 N 
HETATM    6  O   UNK N   1      32.639  14.722   8.304  0.00  0.00    -0.266 OA
HETATM    7  S   UNK N   1      37.288  13.909   8.245  0.00  0.00    -0.052 SA
HETATM    8  S   UNK N   1      35.724  14.364   5.924  0.00  0.00    -0.055 SA
ENDROOT
BRANCH   1   9
HETATM    9  C   UNK N   1      31.681  15.298   5.468  0.00  0.00     0.077 A 
HETATM   10  C   UNK N   1      30.623  14.406   5.407  0.00  0.00     0.040 A 
HETATM   11  C   UNK N   1      29.476  15.176   5.583  0.00  0.00     0.041 A 
HETATM   12  C   UNK N   1      29.928  16.476   5.721  0.00  0.00     0.086 A 
HETATM   13  O   UNK N   1      31.227  16.503   5.646  0.00  0.00    -0.310 OA
BRANCH  12  14
HETATM   14  C   UNK N   1      29.145  17.701   5.914  0.00  0.00    -0.002 A 
HETATM   15  C   UNK N   1      28.711  18.482   4.835  0.00  0.00     0.016 A 
HETATM   16  C   UNK N   1      27.966  19.644   5.072  0.00  0.00     0.024 A 
HETATM   17  C   UNK N   1      27.658  20.027   6.383  0.00  0.00     0.034 A 
HETATM   18  C   UNK N   1      28.090  19.250   7.457  0.00  0.00     0.024 A 
HETATM   19 Cl   UNK N   1      26.728  21.477   6.685  0.00  0.00    -0.084 Cl
HETATM   20  C   UNK N   1      28.829  18.093   7.223  0.00  0.00     0.016 A 
ENDBRANCH  12  14
ENDBRANCH   1   9
BRANCH   5  21
HETATM   21  C   UNK N   1      34.817  14.179   9.944  0.00  0.00     0.144 C 
BRANCH  21  22
HETATM   22  C   UNK N   1      34.464  15.486  10.640  0.00  0.00     0.130 C 
BRANCH  22  23
HETATM   23  C   UNK N   1      35.615  16.434  10.566  0.00  0.00     0.141 C 
HETATM   24  O   UNK N   1      35.454  17.559  10.120  0.00  0.00    -0.650 OA
BRANCH  23  25
HETATM   25  O   UNK N   1      36.829  16.055  11.006  0.00  0.00    -0.776 OA
HETATM   26  H   UNK N   1      37.191  16.413  11.793  0.00  0.00     0.167 HD
ENDBRANCH  23  25
ENDBRANCH  22  23
ENDBRANCH  21  22
ENDBRANCH   5  21
TORSDOF 6
ENDMDL
MODEL 7
REMARK VINA RESULT:      -6.4      9.001     10.805
REMARK  6 active torsions:
REMARK  status: ('A' for Active; 'I' for Inactive)
REMARK    1  A    between atoms: C_8  and  C_7 
REMARK    2  A    between atoms: C_15  and  C_7 
REMARK    3  A    between atoms: N_19  and  C_8 
REMARK    4  A    between atoms: C_12  and  C_9 
REMARK    5  A    between atoms: C_13  and  C_10 
REMARK    6  A    between atoms: O_21  and  C_15 
ROOT
HETATM    1  C   UNK N   1      35.006  11.661  10.795  0.00  0.00     0.061 C 
HETATM    2  C   UNK N   1      34.440  12.665  10.076  0.00  0.00     0.078 A 
HETATM    3  C   UNK N   1      34.490  14.133  10.314  0.00  0.00     0.266 A 
HETATM    4  C   UNK N   1      33.173  14.038   8.437  0.00  0.00     0.148 A 
HETATM    5  N   UNK N   1      33.793  14.849   9.417  0.00  0.00    -0.298 N 
HETATM    6  O   UNK N   1      35.120  14.676  11.206  0.00  0.00    -0.266 OA
HETATM    7  S   UNK N   1      32.372  14.575   7.369  0.00  0.00    -0.052 SA
HETATM    8  S   UNK N   1      33.477  12.269   8.595  0.00  0.00    -0.055 SA
ENDROOT
BRANCH   1   9
HETATM    9  C   UNK N   1      35.776  11.821  12.050  0.00  0.00     0.077 A 
HETATM   10  C   UNK N   1      37.156  11.855  12.160  0.00  0.00     0.040 A 
HETATM   11  C   UNK N   1      37.419  11.986  13.522  0.00  0.00     0.041 A 
HETATM   12  C   UNK N   1      36.176  12.007  14.130  0.00  0.00     0.086 A 
HETATM   13  O   UNK N   1      35.242  11.906  13.231  0.00  0.00    -0.310 OA
BRANCH  12  14
HETATM   14  C   UNK N   1      35.859  12.112  15.559  0.00  0.00    -0.002 A 
HETATM   15  C   UNK N   1      35.429  13.314  16.137  0.00  0.00     0.016 A 
HETATM   16  C   UNK N   1      35.140  13.363  17.506  0.00  0.00     0.024 A 
HETATM   17  C   UNK N   1      35.283  12.217  18.297  0.00  0.00     0.034 A 
HETATM   18  C   UNK N   1      35.712  11.021  17.722  0.00  0.00     0.024 A 
HETATM   19 Cl   UNK N   1      34.924  12.271  20.008  0.00  0.00    -0.084 Cl
HETATM   20  C   UNK N   1      35.997  10.970  16.359  0.00  0.00     0.016 A 
ENDBRANCH  12  14
ENDBRANCH   1   9
BRANCH   5  21
HETATM   21  C   UNK N   1      33.727  16.301   9.432  0.00  0.00     0.144 C 
BRANCH  21  22
HETATM   22  C   UNK N   1      34.952  16.914   8.769  0.00  0.00     0.130 C 
BRANCH  22  23
HETATM   23  C   UNK N   1      34.578  18.178   8.068  0.00  0.00     0.141 C 
HETATM   24  O   UNK N   1      35.034  19.245   8.445  0.00  0.00    -0.650 OA
BRANCH  23  25
HETATM   25  O   UNK N   1      33.750  18.140   7.008  0.00  0.00    -0.776 OA
HETATM   26  H   UNK N   1      33.934  17.592   6.271  0.00  0.00     0.167 HD
ENDBRANCH  23  25
ENDBRANCH  22  23
ENDBRANCH  21  22
ENDBRANCH   5  21
TORSDOF 6
ENDMDL
MODEL 8
REMARK VINA RESULT:      -6.3      6.183      8.344
REMARK  6 active torsions:
REMARK  status: ('A' for Active; 'I' for Inactive)
REMARK    1  A    between atoms: C_8  and  C_7 
REMARK    2  A    between atoms: C_15  and  C_7 
REMARK    3  A    between atoms: N_19  and  C_8 
REMARK    4  A    between atoms: C_12  and  C_9 
REMARK    5  A    between atoms: C_13  and  C_10 
REMARK    6  A    between atoms: O_21  and  C_15 
ROOT
HETATM    1  C   UNK N   1      30.150  15.709   3.310  0.00  0.00     0.061 C 
HETATM    2  C   UNK N   1      28.851  16.100   3.377  0.00  0.00     0.078 A 
HETATM    3  C   UNK N   1      28.263  17.284   4.058  0.00  0.00     0.266 A 
HETATM    4  C   UNK N   1      26.380  16.295   3.195  0.00  0.00     0.148 A 
HETATM    5  N   UNK N   1      26.927  17.361   3.948  0.00  0.00    -0.298 N 
HETATM    6  O   UNK N   1      28.900  18.144   4.642  0.00  0.00    -0.266 OA
HETATM    7  S   UNK N   1      24.971  16.159   2.937  0.00  0.00    -0.052 SA
HETATM    8  S   UNK N   1      27.579  15.117   2.544  0.00  0.00    -0.055 SA
ENDROOT
BRANCH   1   9
HETATM    9  C   UNK N   1      31.292  16.375   3.976  0.00  0.00     0.077 A 
HETATM   10  C   UNK N   1      32.153  17.291   3.395  0.00  0.00     0.040 A 
HETATM   11  C   UNK N   1      33.077  17.615   4.385  0.00  0.00     0.041 A 
HETATM   12  C   UNK N   1      32.712  16.858   5.484  0.00  0.00     0.086 A 
HETATM   13  O   UNK N   1      31.661  16.145   5.200  0.00  0.00    -0.310 OA
BRANCH  12  14
HETATM   14  C   UNK N   1      33.351  16.793   6.803  0.00  0.00    -0.002 A 
HETATM   15  C   UNK N   1      33.377  15.612   7.557  0.00  0.00     0.016 A 
HETATM   16  C   UNK N   1      33.999  15.601   8.811  0.00  0.00     0.024 A 
HETATM   17  C   UNK N   1      34.592  16.766   9.313  0.00  0.00     0.034 A 
HETATM   18  C   UNK N   1      34.565  17.942   8.563  0.00  0.00     0.024 A 
HETATM   19 Cl   UNK N   1      35.370  16.760  10.879  0.00  0.00    -0.084 Cl
HETATM   20  C   UNK N   1      33.949  17.954   7.314  0.00  0.00     0.016 A 
ENDBRANCH  12  14
ENDBRANCH   1   9
BRANCH   5  21
HETATM   21  C   UNK N   1      26.141  18.449   4.505  0.00  0.00     0.144 C 
BRANCH  21  22
HETATM   22  C   UNK N   1      26.171  19.671   3.597  0.00  0.00     0.130 C 
BRANCH  22  23
HETATM   23  C   UNK N   1      24.782  20.046   3.194  0.00  0.00     0.141 C 
HETATM   24  O   UNK N   1      23.825  19.562   3.775  0.00  0.00    -0.650 OA
BRANCH  23  25
HETATM   25  O   UNK N   1      24.586  20.933   2.201  0.00  0.00    -0.776 OA
HETATM   26  H   UNK N   1      24.210  21.773   2.372  0.00  0.00     0.167 HD
ENDBRANCH  23  25
ENDBRANCH  22  23
ENDBRANCH  21  22
ENDBRANCH   5  21
TORSDOF 6
ENDMDL
MODEL 9
REMARK VINA RESULT:      -6.2     14.968     16.669
REMARK  6 active torsions:
REMARK  status: ('A' for Active; 'I' for Inactive)
REMARK    1  A    between atoms: C_8  and  C_7 
REMARK    2  A    between atoms: C_15  and  C_7 
REMARK    3  A    between atoms: N_19  and  C_8 
REMARK    4  A    between atoms: C_12  and  C_9 
REMARK    5  A    between atoms: C_13  and  C_10 
REMARK    6  A    between atoms: O_21  and  C_15 
ROOT
HETATM    1  C   UNK N   1      28.820  21.156  -8.668  0.00  0.00     0.061 C 
HETATM    2  C   UNK N   1      29.953  20.710  -8.066  0.00  0.00     0.078 A 
HETATM    3  C   UNK N   1      30.290  20.667  -6.617  0.00  0.00     0.266 A 
HETATM    4  C   UNK N   1      32.212  19.816  -7.539  0.00  0.00     0.148 A 
HETATM    5  N   UNK N   1      31.517  20.185  -6.363  0.00  0.00    -0.298 N 
HETATM    6  O   UNK N   1      29.539  20.996  -5.714  0.00  0.00    -0.266 OA
HETATM    7  S   UNK N   1      33.544  19.273  -7.525  0.00  0.00    -0.052 SA
HETATM    8  S   UNK N   1      31.300  20.045  -9.077  0.00  0.00    -0.055 SA
ENDROOT
BRANCH   1   9
HETATM    9  C   UNK N   1      27.658  21.769  -7.985  0.00  0.00     0.077 A 
HETATM   10  C   UNK N   1      26.367  21.268  -7.964  0.00  0.00     0.040 A 
HETATM   11  C   UNK N   1      25.621  22.190  -7.235  0.00  0.00     0.041 A 
HETATM   12  C   UNK N   1      26.516  23.186  -6.884  0.00  0.00     0.086 A 
HETATM   13  O   UNK N   1      27.698  22.899  -7.346  0.00  0.00    -0.310 OA
BRANCH  12  14
HETATM   14  C   UNK N   1      26.265  24.414  -6.123  0.00  0.00    -0.002 A 
HETATM   15  C   UNK N   1      25.697  25.551  -6.716  0.00  0.00     0.016 A 
HETATM   16  C   UNK N   1      25.479  26.700  -5.946  0.00  0.00     0.024 A 
HETATM   17  C   UNK N   1      25.828  26.717  -4.590  0.00  0.00     0.034 A 
HETATM   18  C   UNK N   1      26.394  25.586  -4.001  0.00  0.00     0.024 A 
HETATM   19 Cl   UNK N   1      25.558  28.149  -3.624  0.00  0.00    -0.084 Cl
HETATM   20  C   UNK N   1      26.609  24.441  -4.765  0.00  0.00     0.016 A 
ENDBRANCH  12  14
ENDBRANCH   1   9
BRANCH   5  21
HETATM   21  C   UNK N   1      32.048  20.020  -5.020  0.00  0.00     0.144 C 
BRANCH  21  22
HETATM   22  C   UNK N   1      32.515  21.351  -4.447  0.00  0.00     0.130 C 
BRANCH  22  23
HETATM   23  C   UNK N   1      31.879  21.589  -3.117  0.00  0.00     0.141 C 
HETATM   24  O   UNK N   1      32.548  21.531  -2.099  0.00  0.00    -0.650 OA
BRANCH  23  25
HETATM   25  O   UNK N   1      30.568  21.886  -3.042  0.00  0.00    -0.776 OA
HETATM   26  H   UNK N   1      30.183  22.519  -3.614  0.00  0.00     0.167 HD
ENDBRANCH  23  25
ENDBRANCH  22  23
ENDBRANCH  21  22
ENDBRANCH   5  21
TORSDOF 6
ENDMDL
