MODEL 1
REMARK VINA RESULT:      -7.0      0.000      0.000
REMARK  7 active torsions:
REMARK  status: ('A' for Active; 'I' for Inactive)
REMARK    1  A    between atoms: S_1  and  C_8 
REMARK    2  A    between atoms: S_1  and  C_9 
REMARK    3  A    between atoms: O_4  and  C_21 
REMARK    4  A    between atoms: N_6  and  C_12 
REMARK    5  A    between atoms: N_6  and  C_20 
REMARK    6  A    between atoms: N_7  and  C_19 
REMARK    7  A    between atoms: C_20  and  C_21 
ROOT
HETATM    1  C   UNK N   1      35.409  13.545  12.739  0.00  0.00     0.064 A 
HETATM    2  C   UNK N   1      35.954  14.829  12.806  0.00  0.00     0.026 A 
HETATM    3  C   UNK N   1      34.842  13.095  11.540  0.00  0.00     0.026 A 
HETATM    4  C   UNK N   1      35.374  15.228  10.489  0.00  0.00     0.028 A 
HETATM    5  C   UNK N   1      35.940  15.663  11.693  0.00  0.00     0.030 A 
HETATM    6  C   UNK N   1      34.834  13.932  10.414  0.00  0.00     0.030 A 
ENDROOT
BRANCH   1   7
HETATM    7  S   UNK N   1      35.291  12.593  14.253  0.00  0.00     0.206 S 
HETATM    8  O   UNK N   1      36.332  11.507  13.948  0.00  0.00    -0.217 OA
HETATM    9  O   UNK N   1      34.079  11.669  14.043  0.00  0.00    -0.217 OA
BRANCH   7  10
HETATM   10  C   UNK N   1      35.480  12.688  16.035  0.00  0.00     0.064 A 
HETATM   11  C   UNK N   1      35.409  11.523  16.806  0.00  0.00     0.026 A 
HETATM   12  C   UNK N   1      35.314  11.610  18.200  0.00  0.00     0.030 A 
HETATM   13  C   UNK N   1      35.268  12.862  18.826  0.00  0.00     0.025 A 
HETATM   14  C   UNK N   1      35.367  14.027  18.055  0.00  0.00     0.030 A 
HETATM   15  C   UNK N   1      35.464  13.939  16.665  0.00  0.00     0.026 A 
BRANCH  13  16
HETATM   16  N   UNK N   1      35.072  12.952  20.224  0.00  0.00    -0.399 N 
HETATM   17  H   UNK N   1      34.356  13.585  20.610  0.00  0.00     0.156 HD
HETATM   18  H   UNK N   1      35.690  12.441  20.871  0.00  0.00     0.156 HD
ENDBRANCH  13  16
ENDBRANCH   7  10
ENDBRANCH   1   7
BRANCH   4  19
HETATM   19  N   UNK N   1      35.317  16.093   9.358  0.00  0.00    -0.380 N 
HETATM   20  H   UNK N   1      36.000  15.977   8.595  0.00  0.00     0.160 HD
BRANCH  19  21
HETATM   21  C   UNK N   1      34.264  17.073   9.192  0.00  0.00     0.229 C 
BRANCH  21  22
HETATM   22  C   UNK N   1      34.653  18.131   8.207  0.00  0.00     0.158 C 
HETATM   23  O   UNK N   1      35.265  19.119   8.578  0.00  0.00    -0.649 OA
BRANCH  22  24
HETATM   24  O   UNK N   1      34.334  17.988   6.907  0.00  0.00    -0.775 OA
HETATM   25  H   UNK N   1      34.881  17.557   6.280  0.00  0.00     0.167 HD
ENDBRANCH  22  24
ENDBRANCH  21  22
ENDBRANCH  19  21
ENDBRANCH   4  19
TORSDOF 7
ENDMDL
MODEL 2
REMARK VINA RESULT:      -6.8      3.795      9.653
REMARK  7 active torsions:
REMARK  status: ('A' for Active; 'I' for Inactive)
REMARK    1  A    between atoms: S_1  and  C_8 
REMARK    2  A    between atoms: S_1  and  C_9 
REMARK    3  A    between atoms: O_4  and  C_21 
REMARK    4  A    between atoms: N_6  and  C_12 
REMARK    5  A    between atoms: N_6  and  C_20 
REMARK    6  A    between atoms: N_7  and  C_19 
REMARK    7  A    between atoms: C_20  and  C_21 
ROOT
HETATM    1  C   UNK N   1      34.755  16.121   8.640  0.00  0.00     0.064 A 
HETATM    2  C   UNK N   1      34.785  16.907   9.795  0.00  0.00     0.026 A 
HETATM    3  C   UNK N   1      35.385  14.871   8.635  0.00  0.00     0.026 A 
HETATM    4  C   UNK N   1      36.071  15.209  10.949  0.00  0.00     0.028 A 
HETATM    5  C   UNK N   1      35.434  16.455  10.940  0.00  0.00     0.030 A 
HETATM    6  C   UNK N   1      36.034  14.412   9.792  0.00  0.00     0.030 A 
ENDROOT
BRANCH   1   7
HETATM    7  S   UNK N   1      34.067  16.836   7.147  0.00  0.00     0.206 S 
HETATM    8  O   UNK N   1      35.049  16.259   6.118  0.00  0.00    -0.217 OA
HETATM    9  O   UNK N   1      34.645  18.260   7.091  0.00  0.00    -0.217 OA
BRANCH   7  10
HETATM   10  C   UNK N   1      32.589  16.909   6.132  0.00  0.00     0.064 A 
HETATM   11  C   UNK N   1      32.691  17.245   4.777  0.00  0.00     0.026 A 
HETATM   12  C   UNK N   1      31.538  17.541   4.040  0.00  0.00     0.030 A 
HETATM   13  C   UNK N   1      30.282  17.521   4.659  0.00  0.00     0.025 A 
HETATM   14  C   UNK N   1      30.179  17.158   6.008  0.00  0.00     0.030 A 
HETATM   15  C   UNK N   1      31.330  16.861   6.742  0.00  0.00     0.026 A 
BRANCH  13  16
HETATM   16  N   UNK N   1      29.129  17.915   3.942  0.00  0.00    -0.399 N 
HETATM   17  H   UNK N   1      28.215  17.486   4.147  0.00  0.00     0.156 HD
HETATM   18  H   UNK N   1      29.205  18.581   3.158  0.00  0.00     0.156 HD
ENDBRANCH  13  16
ENDBRANCH   7  10
ENDBRANCH   1   7
BRANCH   4  19
HETATM   19  N   UNK N   1      36.775  14.761  12.104  0.00  0.00    -0.380 N 
HETATM   20  H   UNK N   1      37.348  15.429  12.640  0.00  0.00     0.160 HD
BRANCH  19  21
HETATM   21  C   UNK N   1      36.634  13.413  12.616  0.00  0.00     0.229 C 
BRANCH  21  22
HETATM   22  C   UNK N   1      35.287  13.203  13.235  0.00  0.00     0.158 C 
HETATM   23  O   UNK N   1      35.090  13.517  14.397  0.00  0.00    -0.649 OA
BRANCH  22  24
HETATM   24  O   UNK N   1      34.288  12.671  12.504  0.00  0.00    -0.775 OA
HETATM   25  H   UNK N   1      33.404  12.982  12.526  0.00  0.00     0.167 HD
ENDBRANCH  22  24
ENDBRANCH  21  22
ENDBRANCH  19  21
ENDBRANCH   4  19
TORSDOF 7
ENDMDL
MODEL 3
REMARK VINA RESULT:      -6.8     10.934     14.359
REMARK  7 active torsions:
REMARK  status: ('A' for Active; 'I' for Inactive)
REMARK    1  A    between atoms: S_1  and  C_8 
REMARK    2  A    between atoms: S_1  and  C_9 
REMARK    3  A    between atoms: O_4  and  C_21 
REMARK    4  A    between atoms: N_6  and  C_12 
REMARK    5  A    between atoms: N_6  and  C_20 
REMARK    6  A    between atoms: N_7  and  C_19 
REMARK    7  A    between atoms: C_20  and  C_21 
ROOT
HETATM    1  C   UNK N   1      25.389  19.316   4.654  0.00  0.00     0.064 A 
HETATM    2  C   UNK N   1      25.051  20.303   3.724  0.00  0.00     0.026 A 
HETATM    3  C   UNK N   1      24.456  18.326   4.983  0.00  0.00     0.026 A 
HETATM    4  C   UNK N   1      22.853  19.325   3.442  0.00  0.00     0.028 A 
HETATM    5  C   UNK N   1      23.798  20.307   3.121  0.00  0.00     0.030 A 
HETATM    6  C   UNK N   1      23.193  18.324   4.370  0.00  0.00     0.030 A 
ENDROOT
BRANCH   1   7
HETATM    7  S   UNK N   1      26.945  19.474   5.529  0.00  0.00     0.206 S 
HETATM    8  O   UNK N   1      26.626  20.708   6.386  0.00  0.00    -0.217 OA
HETATM    9  O   UNK N   1      27.868  20.229   4.558  0.00  0.00    -0.217 OA
BRANCH   7  10
HETATM   10  C   UNK N   1      28.064  18.625   6.645  0.00  0.00     0.064 A 
HETATM   11  C   UNK N   1      28.127  19.004   7.991  0.00  0.00     0.026 A 
HETATM   12  C   UNK N   1      29.156  18.522   8.807  0.00  0.00     0.030 A 
HETATM   13  C   UNK N   1      30.138  17.675   8.277  0.00  0.00     0.025 A 
HETATM   14  C   UNK N   1      30.058  17.275   6.938  0.00  0.00     0.030 A 
HETATM   15  C   UNK N   1      29.030  17.755   6.124  0.00  0.00     0.026 A 
BRANCH  13  16
HETATM   16  N   UNK N   1      31.232  17.267   9.075  0.00  0.00    -0.399 N 
HETATM   17  H   UNK N   1      31.083  16.655   9.890  0.00  0.00     0.156 HD
HETATM   18  H   UNK N   1      32.177  17.636   8.891  0.00  0.00     0.156 HD
ENDBRANCH  13  16
ENDBRANCH   7  10
ENDBRANCH   1   7
BRANCH   4  19
HETATM   19  N   UNK N   1      21.553  19.350   2.861  0.00  0.00    -0.380 N 
HETATM   20  H   UNK N   1      21.059  18.463   2.683  0.00  0.00     0.160 HD
BRANCH  19  21
HETATM   21  C   UNK N   1      20.850  20.590   2.602  0.00  0.00     0.229 C 
BRANCH  21  22
HETATM   22  C   UNK N   1      20.727  20.850   1.132  0.00  0.00     0.158 C 
HETATM   23  O   UNK N   1      20.702  21.995   0.713  0.00  0.00    -0.649 OA
BRANCH  22  24
HETATM   24  O   UNK N   1      20.651  19.817   0.272  0.00  0.00    -0.775 OA
HETATM   25  H   UNK N   1      19.845  19.425  -0.002  0.00  0.00     0.167 HD
ENDBRANCH  22  24
ENDBRANCH  21  22
ENDBRANCH  19  21
ENDBRANCH   4  19
TORSDOF 7
ENDMDL
MODEL 4
REMARK VINA RESULT:      -6.7     10.925     14.407
REMARK  7 active torsions:
REMARK  status: ('A' for Active; 'I' for Inactive)
REMARK    1  A    between atoms: S_1  and  C_8 
REMARK    2  A    between atoms: S_1  and  C_9 
REMARK    3  A    between atoms: O_4  and  C_21 
REMARK    4  A    between atoms: N_6  and  C_12 
REMARK    5  A    between atoms: N_6  and  C_20 
REMARK    6  A    between atoms: N_7  and  C_19 
REMARK    7  A    between atoms: C_20  and  C_21 
ROOT
HETATM    1  C   UNK N   1      25.492  19.098   4.350  0.00  0.00     0.064 A 
HETATM    2  C   UNK N   1      24.520  18.122   4.581  0.00  0.00     0.026 A 
HETATM    3  C   UNK N   1      25.165  20.241   3.611  0.00  0.00     0.026 A 
HETATM    4  C   UNK N   1      22.888  19.415   3.344  0.00  0.00     0.028 A 
HETATM    5  C   UNK N   1      23.229  18.279   4.087  0.00  0.00     0.030 A 
HETATM    6  C   UNK N   1      23.861  20.404   3.118  0.00  0.00     0.030 A 
ENDROOT
BRANCH   1   7
HETATM    7  S   UNK N   1      27.178  18.751   4.852  0.00  0.00     0.206 S 
HETATM    8  O   UNK N   1      27.818  20.109   4.535  0.00  0.00    -0.217 OA
HETATM    9  O   UNK N   1      27.807  18.031   3.646  0.00  0.00    -0.217 OA
BRANCH   7  10
HETATM   10  C   UNK N   1      28.196  18.265   6.247  0.00  0.00     0.064 A 
HETATM   11  C   UNK N   1      28.022  18.889   7.488  0.00  0.00     0.026 A 
HETATM   12  C   UNK N   1      28.960  18.696   8.507  0.00  0.00     0.030 A 
HETATM   13  C   UNK N   1      30.087  17.894   8.285  0.00  0.00     0.025 A 
HETATM   14  C   UNK N   1      30.246  17.248   7.053  0.00  0.00     0.030 A 
HETATM   15  C   UNK N   1      29.307  17.440   6.036  0.00  0.00     0.026 A 
BRANCH  13  16
HETATM   16  N   UNK N   1      31.085  17.777   9.280  0.00  0.00    -0.399 N 
HETATM   17  H   UNK N   1      31.060  16.998   9.954  0.00  0.00     0.156 HD
HETATM   18  H   UNK N   1      31.803  18.508   9.386  0.00  0.00     0.156 HD
ENDBRANCH  13  16
ENDBRANCH   7  10
ENDBRANCH   1   7
BRANCH   4  19
HETATM   19  N   UNK N   1      21.580  19.560   2.797  0.00  0.00    -0.380 N 
HETATM   20  H   UNK N   1      21.007  18.722   2.624  0.00  0.00     0.160 HD
BRANCH  19  21
HETATM   21  C   UNK N   1      20.982  20.860   2.568  0.00  0.00     0.229 C 
BRANCH  21  22
HETATM   22  C   UNK N   1      20.762  21.109   1.108  0.00  0.00     0.158 C 
HETATM   23  O   UNK N   1      20.913  20.206   0.303  0.00  0.00    -0.649 OA
BRANCH  22  24
HETATM   24  O   UNK N   1      20.392  22.332   0.684  0.00  0.00    -0.775 OA
HETATM   25  H   UNK N   1      19.902  22.938   1.206  0.00  0.00     0.167 HD
ENDBRANCH  22  24
ENDBRANCH  21  22
ENDBRANCH  19  21
ENDBRANCH   4  19
TORSDOF 7
ENDMDL
MODEL 5
REMARK VINA RESULT:      -6.6      3.714      8.945
REMARK  7 active torsions:
REMARK  status: ('A' for Active; 'I' for Inactive)
REMARK    1  A    between atoms: S_1  and  C_8 
REMARK    2  A    between atoms: S_1  and  C_9 
REMARK    3  A    between atoms: O_4  and  C_21 
REMARK    4  A    between atoms: N_6  and  C_12 
REMARK    5  A    between atoms: N_6  and  C_20 
REMARK    6  A    between atoms: N_7  and  C_19 
REMARK    7  A    between atoms: C_20  and  C_21 
ROOT
HETATM    1  C   UNK N   1      34.835  16.181   8.870  0.00  0.00     0.064 A 
HETATM    2  C   UNK N   1      35.347  14.922   8.546  0.00  0.00     0.026 A 
HETATM    3  C   UNK N   1      35.133  16.752  10.113  0.00  0.00     0.026 A 
HETATM    4  C   UNK N   1      36.457  14.790  10.695  0.00  0.00     0.028 A 
HETATM    5  C   UNK N   1      36.152  14.233   9.447  0.00  0.00     0.030 A 
HETATM    6  C   UNK N   1      35.953  16.061  11.020  0.00  0.00     0.030 A 
ENDROOT
BRANCH   1   7
HETATM    7  S   UNK N   1      33.656  16.931   7.747  0.00  0.00     0.206 S 
HETATM    8  O   UNK N   1      33.736  15.924   6.591  0.00  0.00    -0.217 OA
HETATM    9  O   UNK N   1      34.452  18.026   7.017  0.00  0.00    -0.217 OA
BRANCH   7  10
HETATM   10  C   UNK N   1      31.942  17.433   7.580  0.00  0.00     0.064 A 
HETATM   11  C   UNK N   1      31.270  17.995   8.672  0.00  0.00     0.026 A 
HETATM   12  C   UNK N   1      29.882  18.164   8.629  0.00  0.00     0.030 A 
HETATM   13  C   UNK N   1      29.157  17.755   7.503  0.00  0.00     0.025 A 
HETATM   14  C   UNK N   1      29.833  17.219   6.400  0.00  0.00     0.030 A 
HETATM   15  C   UNK N   1      31.219  17.052   6.443  0.00  0.00     0.026 A 
BRANCH  13  16
HETATM   16  N   UNK N   1      27.745  17.835   7.498  0.00  0.00    -0.399 N 
HETATM   17  H   UNK N   1      27.267  18.590   6.986  0.00  0.00     0.156 HD
HETATM   18  H   UNK N   1      27.184  17.182   8.065  0.00  0.00     0.156 HD
ENDBRANCH  13  16
ENDBRANCH   7  10
ENDBRANCH   1   7
BRANCH   4  19
HETATM   19  N   UNK N   1      37.245  14.070  11.638  0.00  0.00    -0.380 N 
HETATM   20  H   UNK N   1      38.232  14.330  11.779  0.00  0.00     0.160 HD
BRANCH  19  21
HETATM   21  C   UNK N   1      36.679  13.043  12.489  0.00  0.00     0.229 C 
BRANCH  21  22
HETATM   22  C   UNK N   1      36.164  13.619  13.771  0.00  0.00     0.158 C 
HETATM   23  O   UNK N   1      34.978  13.541  14.045  0.00  0.00    -0.649 OA
BRANCH  22  24
HETATM   24  O   UNK N   1      37.013  14.219  14.627  0.00  0.00    -0.775 OA
HETATM   25  H   UNK N   1      36.748  14.607  15.438  0.00  0.00     0.167 HD
ENDBRANCH  22  24
ENDBRANCH  21  22
ENDBRANCH  19  21
ENDBRANCH   4  19
TORSDOF 7
ENDMDL
MODEL 6
REMARK VINA RESULT:      -6.5     13.774     15.389
REMARK  7 active torsions:
REMARK  status: ('A' for Active; 'I' for Inactive)
REMARK    1  A    between atoms: S_1  and  C_8 
REMARK    2  A    between atoms: S_1  and  C_9 
REMARK    3  A    between atoms: O_4  and  C_21 
REMARK    4  A    between atoms: N_6  and  C_12 
REMARK    5  A    between atoms: N_6  and  C_20 
REMARK    6  A    between atoms: N_7  and  C_19 
REMARK    7  A    between atoms: C_20  and  C_21 
ROOT
HETATM    1  C   UNK N   1      21.434  15.637   6.121  0.00  0.00     0.064 A 
HETATM    2  C   UNK N   1      21.053  15.483   4.786  0.00  0.00     0.026 A 
HETATM    3  C   UNK N   1      21.956  16.861   6.557  0.00  0.00     0.026 A 
HETATM    4  C   UNK N   1      21.711  17.765   4.307  0.00  0.00     0.028 A 
HETATM    5  C   UNK N   1      21.187  16.536   3.887  0.00  0.00     0.030 A 
HETATM    6  C   UNK N   1      22.085  17.927   5.653  0.00  0.00     0.030 A 
ENDROOT
BRANCH   1   7
HETATM    7  S   UNK N   1      21.410  14.191   7.181  0.00  0.00     0.206 S 
HETATM    8  O   UNK N   1      22.347  13.278   6.378  0.00  0.00    -0.217 OA
HETATM    9  O   UNK N   1      20.129  13.437   6.788  0.00  0.00    -0.217 OA
BRANCH   7  10
HETATM   10  C   UNK N   1      21.784  13.611   8.837  0.00  0.00     0.064 A 
HETATM   11  C   UNK N   1      23.098  13.264   9.174  0.00  0.00     0.026 A 
HETATM   12  C   UNK N   1      23.358  12.588  10.371  0.00  0.00     0.030 A 
HETATM   13  C   UNK N   1      22.306  12.238  11.227  0.00  0.00     0.025 A 
HETATM   14  C   UNK N   1      20.996  12.611  10.902  0.00  0.00     0.030 A 
HETATM   15  C   UNK N   1      20.736  13.287   9.708  0.00  0.00     0.026 A 
BRANCH  13  16
HETATM   16  N   UNK N   1      22.557  11.470  12.387  0.00  0.00    -0.399 N 
HETATM   17  H   UNK N   1      23.438  11.585  12.908  0.00  0.00     0.156 HD
HETATM   18  H   UNK N   1      21.895  10.736  12.679  0.00  0.00     0.156 HD
ENDBRANCH  13  16
ENDBRANCH   7  10
ENDBRANCH   1   7
BRANCH   4  19
HETATM   19  N   UNK N   1      21.891  18.833   3.381  0.00  0.00    -0.380 N 
HETATM   20  H   UNK N   1      22.814  19.283   3.299  0.00  0.00     0.160 HD
BRANCH  19  21
HETATM   21  C   UNK N   1      20.843  19.247   2.471  0.00  0.00     0.229 C 
BRANCH  21  22
HETATM   22  C   UNK N   1      21.175  20.551   1.814  0.00  0.00     0.158 C 
HETATM   23  O   UNK N   1      21.252  20.623   0.599  0.00  0.00    -0.649 OA
BRANCH  22  24
HETATM   24  O   UNK N   1      21.383  21.648   2.567  0.00  0.00    -0.775 OA
HETATM   25  H   UNK N   1      22.221  21.892   2.911  0.00  0.00     0.167 HD
ENDBRANCH  22  24
ENDBRANCH  21  22
ENDBRANCH  19  21
ENDBRANCH   4  19
TORSDOF 7
ENDMDL
MODEL 7
REMARK VINA RESULT:      -6.4      5.655      8.201
REMARK  7 active torsions:
REMARK  status: ('A' for Active; 'I' for Inactive)
REMARK    1  A    between atoms: S_1  and  C_8 
REMARK    2  A    between atoms: S_1  and  C_9 
REMARK    3  A    between atoms: O_4  and  C_21 
REMARK    4  A    between atoms: N_6  and  C_12 
REMARK    5  A    between atoms: N_6  and  C_20 
REMARK    6  A    between atoms: N_7  and  C_19 
REMARK    7  A    between atoms: C_20  and  C_21 
ROOT
HETATM    1  C   UNK N   1      31.889  17.439   7.777  0.00  0.00     0.064 A 
HETATM    2  C   UNK N   1      31.370  17.082   6.530  0.00  0.00     0.026 A 
HETATM    3  C   UNK N   1      31.052  18.024   8.734  0.00  0.00     0.026 A 
HETATM    4  C   UNK N   1      29.180  17.887   7.179  0.00  0.00     0.028 A 
HETATM    5  C   UNK N   1      30.029  17.300   6.233  0.00  0.00     0.030 A 
HETATM    6  C   UNK N   1      29.696  18.238   8.439  0.00  0.00     0.030 A 
ENDROOT
BRANCH   1   7
HETATM    7  S   UNK N   1      33.658  17.303   8.029  0.00  0.00     0.206 S 
HETATM    8  O   UNK N   1      33.955  18.734   8.499  0.00  0.00    -0.217 OA
HETATM    9  O   UNK N   1      34.270  17.499   6.631  0.00  0.00    -0.217 OA
BRANCH   7  10
HETATM   10  C   UNK N   1      34.920  16.424   8.954  0.00  0.00     0.064 A 
HETATM   11  C   UNK N   1      35.399  15.195   8.484  0.00  0.00     0.026 A 
HETATM   12  C   UNK N   1      36.195  14.393   9.309  0.00  0.00     0.030 A 
HETATM   13  C   UNK N   1      36.500  14.805  10.612  0.00  0.00     0.025 A 
HETATM   14  C   UNK N   1      36.043  16.047  11.071  0.00  0.00     0.030 A 
HETATM   15  C   UNK N   1      35.250  16.849  10.246  0.00  0.00     0.026 A 
BRANCH  13  16
HETATM   16  N   UNK N   1      37.221  13.952  11.479  0.00  0.00    -0.399 N 
HETATM   17  H   UNK N   1      37.549  14.295  12.393  0.00  0.00     0.156 HD
HETATM   18  H   UNK N   1      37.486  13.004  11.175  0.00  0.00     0.156 HD
ENDBRANCH  13  16
ENDBRANCH   7  10
ENDBRANCH   1   7
BRANCH   4  19
HETATM   19  N   UNK N   1      27.816  18.154   6.866  0.00  0.00    -0.380 N 
HETATM   20  H   UNK N   1      27.072  17.644   7.362  0.00  0.00     0.160 HD
BRANCH  19  21
HETATM   21  C   UNK N   1      27.430  19.198   5.938  0.00  0.00     0.229 C 
BRANCH  21  22
HETATM   22  C   UNK N   1      26.980  20.430   6.659  0.00  0.00     0.158 C 
HETATM   23  O   UNK N   1      26.917  21.496   6.070  0.00  0.00    -0.649 OA
BRANCH  22  24
HETATM   24  O   UNK N   1      26.638  20.359   7.959  0.00  0.00    -0.775 OA
HETATM   25  H   UNK N   1      26.771  19.600   8.493  0.00  0.00     0.167 HD
ENDBRANCH  22  24
ENDBRANCH  21  22
ENDBRANCH  19  21
ENDBRANCH   4  19
TORSDOF 7
ENDMDL
MODEL 8
REMARK VINA RESULT:      -6.4     18.707     21.774
REMARK  7 active torsions:
REMARK  status: ('A' for Active; 'I' for Inactive)
REMARK    1  A    between atoms: S_1  and  C_8 
REMARK    2  A    between atoms: S_1  and  C_9 
REMARK    3  A    between atoms: O_4  and  C_21 
REMARK    4  A    between atoms: N_6  and  C_12 
REMARK    5  A    between atoms: N_6  and  C_20 
REMARK    6  A    between atoms: N_7  and  C_19 
REMARK    7  A    between atoms: C_20  and  C_21 
ROOT
HETATM    1  C   UNK N   1      28.883  23.358  -3.901  0.00  0.00     0.064 A 
HETATM    2  C   UNK N   1      29.581  23.302  -2.692  0.00  0.00     0.026 A 
HETATM    3  C   UNK N   1      29.328  22.603  -4.993  0.00  0.00     0.026 A 
HETATM    4  C   UNK N   1      31.170  21.745  -3.648  0.00  0.00     0.028 A 
HETATM    5  C   UNK N   1      30.711  22.503  -2.564  0.00  0.00     0.030 A 
HETATM    6  C   UNK N   1      30.465  21.790  -4.863  0.00  0.00     0.030 A 
ENDROOT
BRANCH   1   7
HETATM    7  S   UNK N   1      27.549  24.545  -4.057  0.00  0.00     0.206 S 
HETATM    8  O   UNK N   1      26.744  24.182  -2.802  0.00  0.00    -0.217 OA
HETATM    9  O   UNK N   1      26.557  23.895  -5.037  0.00  0.00    -0.217 OA
BRANCH   7  10
HETATM   10  C   UNK N   1      27.183  26.299  -4.144  0.00  0.00     0.064 A 
HETATM   11  C   UNK N   1      28.201  27.235  -3.929  0.00  0.00     0.026 A 
HETATM   12  C   UNK N   1      27.884  28.587  -3.755  0.00  0.00     0.030 A 
HETATM   13  C   UNK N   1      26.548  29.006  -3.774  0.00  0.00     0.025 A 
HETATM   14  C   UNK N   1      25.532  28.073  -4.016  0.00  0.00     0.030 A 
HETATM   15  C   UNK N   1      25.849  26.724  -4.192  0.00  0.00     0.026 A 
BRANCH  13  16
HETATM   16  N   UNK N   1      26.221  30.354  -3.500  0.00  0.00    -0.399 N 
HETATM   17  H   UNK N   1      25.336  30.590  -3.028  0.00  0.00     0.156 HD
HETATM   18  H   UNK N   1      26.828  31.116  -3.835  0.00  0.00     0.156 HD
ENDBRANCH  13  16
ENDBRANCH   7  10
ENDBRANCH   1   7
BRANCH   4  19
HETATM   19  N   UNK N   1      32.353  20.959  -3.536  0.00  0.00    -0.380 N 
HETATM   20  H   UNK N   1      32.957  21.064  -2.707  0.00  0.00     0.160 HD
BRANCH  19  21
HETATM   21  C   UNK N   1      32.690  19.934  -4.503  0.00  0.00     0.229 C 
BRANCH  21  22
HETATM   22  C   UNK N   1      33.888  19.148  -4.070  0.00  0.00     0.158 C 
HETATM   23  O   UNK N   1      35.004  19.631  -4.161  0.00  0.00    -0.649 OA
BRANCH  22  24
HETATM   24  O   UNK N   1      33.732  17.907  -3.572  0.00  0.00    -0.775 OA
HETATM   25  H   UNK N   1      33.114  17.688  -2.901  0.00  0.00     0.167 HD
ENDBRANCH  22  24
ENDBRANCH  21  22
ENDBRANCH  19  21
ENDBRANCH   4  19
TORSDOF 7
ENDMDL
MODEL 9
REMARK VINA RESULT:      -6.2      7.671     12.607
REMARK  7 active torsions:
REMARK  status: ('A' for Active; 'I' for Inactive)
REMARK    1  A    between atoms: S_1  and  C_8 
REMARK    2  A    between atoms: S_1  and  C_9 
REMARK    3  A    between atoms: O_4  and  C_21 
REMARK    4  A    between atoms: N_6  and  C_12 
REMARK    5  A    between atoms: N_6  and  C_20 
REMARK    6  A    between atoms: N_7  and  C_19 
REMARK    7  A    between atoms: C_20  and  C_21 
ROOT
HETATM    1  C   UNK N   1      29.412  17.662   6.337  0.00  0.00     0.064 A 
HETATM    2  C   UNK N   1      30.634  17.119   5.932  0.00  0.00     0.026 A 
HETATM    3  C   UNK N   1      29.201  17.963   7.688  0.00  0.00     0.026 A 
HETATM    4  C   UNK N   1      31.445  17.170   8.213  0.00  0.00     0.028 A 
HETATM    5  C   UNK N   1      31.642  16.877   6.859  0.00  0.00     0.030 A 
HETATM    6  C   UNK N   1      30.221  17.727   8.623  0.00  0.00     0.030 A 
ENDROOT
BRANCH   1   7
HETATM    7  S   UNK N   1      28.092  17.775   5.129  0.00  0.00     0.206 S 
HETATM    8  O   UNK N   1      27.368  16.455   5.426  0.00  0.00    -0.217 OA
HETATM    9  O   UNK N   1      28.721  17.282   3.814  0.00  0.00    -0.217 OA
BRANCH   7  10
HETATM   10  C   UNK N   1      26.690  18.769   4.613  0.00  0.00     0.064 A 
HETATM   11  C   UNK N   1      25.389  18.321   4.866  0.00  0.00     0.026 A 
HETATM   12  C   UNK N   1      24.299  18.958   4.262  0.00  0.00     0.030 A 
HETATM   13  C   UNK N   1      24.507  20.032   3.388  0.00  0.00     0.025 A 
HETATM   14  C   UNK N   1      25.808  20.497   3.157  0.00  0.00     0.030 A 
HETATM   15  C   UNK N   1      26.895  19.861   3.762  0.00  0.00     0.026 A 
BRANCH  13  16
HETATM   16  N   UNK N   1      23.416  20.613   2.701  0.00  0.00    -0.399 N 
HETATM   17  H   UNK N   1      22.757  21.231   3.197  0.00  0.00     0.156 HD
HETATM   18  H   UNK N   1      23.228  20.366   1.718  0.00  0.00     0.156 HD
ENDBRANCH  13  16
ENDBRANCH   7  10
ENDBRANCH   1   7
BRANCH   4  19
HETATM   19  N   UNK N   1      32.458  16.884   9.174  0.00  0.00    -0.380 N 
HETATM   20  H   UNK N   1      32.189  16.561  10.114  0.00  0.00     0.160 HD
BRANCH  19  21
HETATM   21  C   UNK N   1      33.868  16.934   8.843  0.00  0.00     0.229 C 
BRANCH  21  22
HETATM   22  C   UNK N   1      34.720  16.772  10.063  0.00  0.00     0.158 C 
HETATM   23  O   UNK N   1      35.682  17.501  10.240  0.00  0.00    -0.649 OA
BRANCH  22  24
HETATM   24  O   UNK N   1      34.420  15.824  10.971  0.00  0.00    -0.775 OA
HETATM   25  H   UNK N   1      34.013  16.002  11.796  0.00  0.00     0.167 HD
ENDBRANCH  22  24
ENDBRANCH  21  22
ENDBRANCH  19  21
ENDBRANCH   4  19
TORSDOF 7
ENDMDL
