MODEL 1
REMARK VINA RESULT:      -7.4      0.000      0.000
REMARK  7 active torsions:
REMARK  status: ('A' for Active; 'I' for Inactive)
REMARK    1  A    between atoms: N_4  and  C_7 
REMARK       I    between atoms: N_5  and  C_17 
REMARK       I    between atoms: N_6  and  C_17 
REMARK    2  A    between atoms: N_6  and  C_22 
REMARK    3  A    between atoms: C_7  and  C_10 
REMARK    4  A    between atoms: C_10  and  C_13 
REMARK    5  A    between atoms: C_13  and  C_14 
REMARK    6  A    between atoms: C_14  and  C_15 
REMARK    7  A    between atoms: C_14  and  C_16 
ROOT
HETATM    1  C   UNK N   1      28.246  16.027   5.071  0.00  0.00     0.016 C 
ENDROOT
BRANCH   1   2
HETATM    2  C   UNK N   1      29.422  15.091   4.851  0.00  0.00     0.031 C 
BRANCH   2   3
HETATM    3  C   UNK N   1      30.322  15.655   3.767  0.00  0.00     0.272 C 
BRANCH   3   4
HETATM    4  N   UNK N   1      31.691  15.696   4.254  0.00  0.00     0.091 N 
HETATM    5  C   UNK N   1      31.737  15.050   5.563  0.00  0.00     0.292 C 
HETATM    6  C   UNK N   1      33.183  15.035   6.052  0.00  0.00     0.158 C 
HETATM    7  N   UNK N   1      33.692  16.392   6.035  0.00  0.00    -0.331 N 
HETATM    8  C   UNK N   1      33.566  17.140   4.805  0.00  0.00     0.158 C 
HETATM    9  C   UNK N   1      34.204  16.988   7.152  0.00  0.00     0.318 C 
HETATM   10  C   UNK N   1      32.100  17.096   4.396  0.00  0.00     0.292 C 
HETATM   11  O   UNK N   1      34.609  18.140   7.090  0.00  0.00    -0.247 OA
HETATM   12  N   UNK N   1      34.254  16.317   8.337  0.00  0.00    -0.343 N 
HETATM   13  H   UNK N   1      33.903  15.351   8.404  0.00  0.00     0.164 HD
BRANCH  12  14
HETATM   14  C   UNK N   1      34.777  16.956   9.524  0.00  0.00     0.120 C 
HETATM   15  C   UNK N   1      35.654  15.997  10.309  0.00  0.00     0.026 C 
ENDBRANCH  12  14
ENDBRANCH   3   4
ENDBRANCH   2   3
ENDBRANCH   1   2
BRANCH   1  16
HETATM   16  C   UNK N   1      28.665  17.492   5.172  0.00  0.00     0.051 C 
BRANCH  16  17
HETATM   17  C   UNK N   1      28.995  17.759   6.632  0.00  0.00    -0.049 A 
HETATM   18  C   UNK N   1      27.974  18.255   7.460  0.00  0.00     0.011 A 
HETATM   19  C   UNK N   1      28.223  18.571   8.798  0.00  0.00     0.043 A 
HETATM   20  C   UNK N   1      29.502  18.397   9.327  0.00  0.00     0.116 A 
HETATM   21  F   UNK N   1      29.750  18.719  10.620  0.00  0.00    -0.206 F 
HETATM   22  C   UNK N   1      30.527  17.894   8.521  0.00  0.00     0.043 A 
HETATM   23  C   UNK N   1      30.274  17.576   7.182  0.00  0.00     0.011 A 
ENDBRANCH  16  17
BRANCH  16  24
HETATM   24  C   UNK N   1      27.637  18.335   4.434  0.00  0.00    -0.049 A 
HETATM   25  C   UNK N   1      26.449  17.715   4.012  0.00  0.00     0.011 A 
HETATM   26  C   UNK N   1      25.439  18.449   3.392  0.00  0.00     0.043 A 
HETATM   27  C   UNK N   1      25.605  19.817   3.181  0.00  0.00     0.116 A 
HETATM   28  F   UNK N   1      24.614  20.535   2.601  0.00  0.00    -0.206 F 
HETATM   29  C   UNK N   1      26.790  20.446   3.574  0.00  0.00     0.043 A 
HETATM   30  C   UNK N   1      27.801  19.708   4.198  0.00  0.00     0.011 A 
ENDBRANCH  16  24
ENDBRANCH   1  16
TORSDOF 7
ENDMDL
MODEL 2
REMARK VINA RESULT:      -7.4      2.361      3.773
REMARK  7 active torsions:
REMARK  status: ('A' for Active; 'I' for Inactive)
REMARK    1  A    between atoms: N_4  and  C_7 
REMARK       I    between atoms: N_5  and  C_17 
REMARK       I    between atoms: N_6  and  C_17 
REMARK    2  A    between atoms: N_6  and  C_22 
REMARK    3  A    between atoms: C_7  and  C_10 
REMARK    4  A    between atoms: C_10  and  C_13 
REMARK    5  A    between atoms: C_13  and  C_14 
REMARK    6  A    between atoms: C_14  and  C_15 
REMARK    7  A    between atoms: C_14  and  C_16 
ROOT
HETATM    1  C   UNK N   1      28.496  18.198   6.530  0.00  0.00     0.016 C 
ENDROOT
BRANCH   1   2
HETATM    2  C   UNK N   1      28.361  17.184   7.654  0.00  0.00     0.031 C 
BRANCH   2   3
HETATM    3  C   UNK N   1      29.327  17.534   8.770  0.00  0.00     0.272 C 
BRANCH   3   4
HETATM    4  N   UNK N   1      30.681  17.222   8.347  0.00  0.00     0.091 N 
HETATM    5  C   UNK N   1      31.150  16.065   9.104  0.00  0.00     0.292 C 
HETATM    6  C   UNK N   1      32.549  15.695   8.620  0.00  0.00     0.158 C 
HETATM    7  N   UNK N   1      33.400  16.863   8.726  0.00  0.00    -0.331 N 
HETATM    8  C   UNK N   1      32.940  18.085   8.106  0.00  0.00     0.158 C 
HETATM    9  C   UNK N   1      34.559  16.854   9.447  0.00  0.00     0.318 C 
HETATM   10  C   UNK N   1      31.545  18.369   8.643  0.00  0.00     0.292 C 
HETATM   11  O   UNK N   1      35.237  17.870   9.516  0.00  0.00    -0.247 OA
HETATM   12  N   UNK N   1      34.961  15.727  10.102  0.00  0.00    -0.343 N 
HETATM   13  H   UNK N   1      34.392  14.871  10.061  0.00  0.00     0.164 HD
BRANCH  12  14
HETATM   14  C   UNK N   1      36.178  15.725  10.882  0.00  0.00     0.120 C 
HETATM   15  C   UNK N   1      35.942  15.091  12.242  0.00  0.00     0.026 C 
ENDBRANCH  12  14
ENDBRANCH   3   4
ENDBRANCH   2   3
ENDBRANCH   1   2
BRANCH   1  16
HETATM   16  C   UNK N   1      28.178  17.608   5.158  0.00  0.00     0.051 C 
BRANCH  16  17
HETATM   17  C   UNK N   1      29.508  17.370   4.458  0.00  0.00    -0.049 A 
HETATM   18  C   UNK N   1      29.512  16.571   3.303  0.00  0.00     0.011 A 
HETATM   19  C   UNK N   1      30.706  16.270   2.642  0.00  0.00     0.043 A 
HETATM   20  C   UNK N   1      31.915  16.763   3.131  0.00  0.00     0.116 A 
HETATM   21  F   UNK N   1      33.076  16.459   2.501  0.00  0.00    -0.206 F 
HETATM   22  C   UNK N   1      31.928  17.570   4.273  0.00  0.00     0.043 A 
HETATM   23  C   UNK N   1      30.730  17.872   4.932  0.00  0.00     0.011 A 
ENDBRANCH  16  17
BRANCH  16  24
HETATM   24  C   UNK N   1      27.094  18.456   4.512  0.00  0.00    -0.049 A 
HETATM   25  C   UNK N   1      27.455  19.710   3.990  0.00  0.00     0.011 A 
HETATM   26  C   UNK N   1      26.521  20.505   3.326  0.00  0.00     0.043 A 
HETATM   27  C   UNK N   1      25.210  20.057   3.176  0.00  0.00     0.116 A 
HETATM   28  F   UNK N   1      24.310  20.817   2.509  0.00  0.00    -0.206 F 
HETATM   29  C   UNK N   1      24.829  18.822   3.708  0.00  0.00     0.043 A 
HETATM   30  C   UNK N   1      25.766  18.026   4.373  0.00  0.00     0.011 A 
ENDBRANCH  16  24
ENDBRANCH   1  16
TORSDOF 7
ENDMDL
MODEL 3
REMARK VINA RESULT:      -7.3      3.481      5.515
REMARK  7 active torsions:
REMARK  status: ('A' for Active; 'I' for Inactive)
REMARK    1  A    between atoms: N_4  and  C_7 
REMARK       I    between atoms: N_5  and  C_17 
REMARK       I    between atoms: N_6  and  C_17 
REMARK    2  A    between atoms: N_6  and  C_22 
REMARK    3  A    between atoms: C_7  and  C_10 
REMARK    4  A    between atoms: C_10  and  C_13 
REMARK    5  A    between atoms: C_13  and  C_14 
REMARK    6  A    between atoms: C_14  and  C_15 
REMARK    7  A    between atoms: C_14  and  C_16 
ROOT
HETATM    1  C   UNK N   1      31.342  17.337   7.783  0.00  0.00     0.016 C 
ENDROOT
BRANCH   1   2
HETATM    2  C   UNK N   1      32.331  16.279   8.241  0.00  0.00     0.031 C 
BRANCH   2   3
HETATM    3  C   UNK N   1      33.596  16.951   8.742  0.00  0.00     0.272 C 
BRANCH   3   4
HETATM    4  N   UNK N   1      34.474  15.948   9.320  0.00  0.00     0.091 N 
HETATM    5  C   UNK N   1      33.676  14.774   9.663  0.00  0.00     0.292 C 
HETATM    6  C   UNK N   1      34.603  13.694  10.214  0.00  0.00     0.158 C 
HETATM    7  N   UNK N   1      35.356  14.250  11.320  0.00  0.00    -0.331 N 
HETATM    8  C   UNK N   1      36.073  15.483  11.091  0.00  0.00     0.158 C 
HETATM    9  C   UNK N   1      35.340  13.688  12.565  0.00  0.00     0.318 C 
HETATM   10  C   UNK N   1      35.074  16.493  10.542  0.00  0.00     0.292 C 
HETATM   11  O   UNK N   1      35.982  14.202  13.469  0.00  0.00    -0.247 OA
HETATM   12  N   UNK N   1      34.602  12.567  12.811  0.00  0.00    -0.343 N 
HETATM   13  H   UNK N   1      34.048  12.134  12.060  0.00  0.00     0.164 HD
BRANCH  12  14
HETATM   14  C   UNK N   1      34.569  11.985  14.134  0.00  0.00     0.120 C 
HETATM   15  C   UNK N   1      33.840  10.653  14.115  0.00  0.00     0.026 C 
ENDBRANCH  12  14
ENDBRANCH   3   4
ENDBRANCH   2   3
ENDBRANCH   1   2
BRANCH   1  16
HETATM   16  C   UNK N   1      30.455  16.862   6.634  0.00  0.00     0.051 C 
BRANCH  16  17
HETATM   17  C   UNK N   1      31.375  16.542   5.466  0.00  0.00    -0.049 A 
HETATM   18  C   UNK N   1      31.355  15.236   4.948  0.00  0.00     0.011 A 
HETATM   19  C   UNK N   1      32.213  14.861   3.911  0.00  0.00     0.043 A 
HETATM   20  C   UNK N   1      33.106  15.790   3.377  0.00  0.00     0.116 A 
HETATM   21  F   UNK N   1      33.950  15.424   2.382  0.00  0.00    -0.206 F 
HETATM   22  C   UNK N   1      33.131  17.097   3.872  0.00  0.00     0.043 A 
HETATM   23  C   UNK N   1      32.270  17.471   4.910  0.00  0.00     0.011 A 
ENDBRANCH  16  17
BRANCH  16  24
HETATM   24  C   UNK N   1      29.306  17.845   6.479  0.00  0.00    -0.049 A 
HETATM   25  C   UNK N   1      28.799  18.463   7.635  0.00  0.00     0.011 A 
HETATM   26  C   UNK N   1      27.792  19.424   7.551  0.00  0.00     0.043 A 
HETATM   27  C   UNK N   1      27.274  19.778   6.306  0.00  0.00     0.116 A 
HETATM   28  F   UNK N   1      26.314  20.729   6.223  0.00  0.00    -0.206 F 
HETATM   29  C   UNK N   1      27.750  19.157   5.148  0.00  0.00     0.043 A 
HETATM   30  C   UNK N   1      28.761  18.195   5.235  0.00  0.00     0.011 A 
ENDBRANCH  16  24
ENDBRANCH   1  16
TORSDOF 7
ENDMDL
MODEL 4
REMARK VINA RESULT:      -7.3      6.242     12.209
REMARK  7 active torsions:
REMARK  status: ('A' for Active; 'I' for Inactive)
REMARK    1  A    between atoms: N_4  and  C_7 
REMARK       I    between atoms: N_5  and  C_17 
REMARK       I    between atoms: N_6  and  C_17 
REMARK    2  A    between atoms: N_6  and  C_22 
REMARK    3  A    between atoms: C_7  and  C_10 
REMARK    4  A    between atoms: C_10  and  C_13 
REMARK    5  A    between atoms: C_13  and  C_14 
REMARK    6  A    between atoms: C_14  and  C_15 
REMARK    7  A    between atoms: C_14  and  C_16 
ROOT
HETATM    1  C   UNK N   1      35.164  12.497  13.949  0.00  0.00     0.016 C 
ENDROOT
BRANCH   1   2
HETATM    2  C   UNK N   1      35.192  12.822  12.465  0.00  0.00     0.031 C 
BRANCH   2   3
HETATM    3  C   UNK N   1      36.489  13.534  12.127  0.00  0.00     0.272 C 
BRANCH   3   4
HETATM    4  N   UNK N   1      36.242  14.506  11.076  0.00  0.00     0.091 N 
HETATM    5  C   UNK N   1      35.235  15.452  11.547  0.00  0.00     0.292 C 
HETATM    6  C   UNK N   1      35.016  16.512  10.471  0.00  0.00     0.158 C 
HETATM    7  N   UNK N   1      34.680  15.848   9.228  0.00  0.00    -0.331 N 
HETATM    8  C   UNK N   1      35.568  14.809   8.761  0.00  0.00     0.158 C 
HETATM    9  C   UNK N   1      33.529  16.124   8.546  0.00  0.00     0.318 C 
HETATM   10  C   UNK N   1      35.728  13.806   9.895  0.00  0.00     0.292 C 
HETATM   11  O   UNK N   1      33.284  15.527   7.507  0.00  0.00    -0.247 OA
HETATM   12  N   UNK N   1      32.645  17.047   9.020  0.00  0.00    -0.343 N 
HETATM   13  H   UNK N   1      32.835  17.546   9.900  0.00  0.00     0.164 HD
BRANCH  12  14
HETATM   14  C   UNK N   1      31.417  17.323   8.308  0.00  0.00     0.120 C 
HETATM   15  C   UNK N   1      30.657  18.459   8.970  0.00  0.00     0.026 C 
ENDBRANCH  12  14
ENDBRANCH   3   4
ENDBRANCH   2   3
ENDBRANCH   1   2
BRANCH   1  16
HETATM   16  C   UNK N   1      36.538  12.605  14.606  0.00  0.00     0.051 C 
BRANCH  16  17
HETATM   17  C   UNK N   1      37.027  11.184  14.847  0.00  0.00    -0.049 A 
HETATM   18  C   UNK N   1      38.355  10.876  14.510  0.00  0.00     0.011 A 
HETATM   19  C   UNK N   1      38.852   9.579  14.657  0.00  0.00     0.043 A 
HETATM   20  C   UNK N   1      38.023   8.568  15.143  0.00  0.00     0.116 A 
HETATM   21  F   UNK N   1      38.498   7.305  15.271  0.00  0.00    -0.206 F 
HETATM   22  C   UNK N   1      36.702   8.859  15.495  0.00  0.00     0.043 A 
HETATM   23  C   UNK N   1      36.207  10.160  15.349  0.00  0.00     0.011 A 
ENDBRANCH  16  17
BRANCH  16  24
HETATM   24  C   UNK N   1      36.447  13.605  15.747  0.00  0.00    -0.049 A 
HETATM   25  C   UNK N   1      37.226  14.772  15.671  0.00  0.00     0.011 A 
HETATM   26  C   UNK N   1      37.135  15.759  16.652  0.00  0.00     0.043 A 
HETATM   27  C   UNK N   1      36.263  15.590  17.727  0.00  0.00     0.116 A 
HETATM   28  F   UNK N   1      36.157  16.560  18.666  0.00  0.00    -0.206 F 
HETATM   29  C   UNK N   1      35.498  14.426  17.830  0.00  0.00     0.043 A 
HETATM   30  C   UNK N   1      35.589  13.438  16.844  0.00  0.00     0.011 A 
ENDBRANCH  16  24
ENDBRANCH   1  16
TORSDOF 7
ENDMDL
MODEL 5
REMARK VINA RESULT:      -7.3      6.157     11.999
REMARK  7 active torsions:
REMARK  status: ('A' for Active; 'I' for Inactive)
REMARK    1  A    between atoms: N_4  and  C_7 
REMARK       I    between atoms: N_5  and  C_17 
REMARK       I    between atoms: N_6  and  C_17 
REMARK    2  A    between atoms: N_6  and  C_22 
REMARK    3  A    between atoms: C_7  and  C_10 
REMARK    4  A    between atoms: C_10  and  C_13 
REMARK    5  A    between atoms: C_13  and  C_14 
REMARK    6  A    between atoms: C_14  and  C_15 
REMARK    7  A    between atoms: C_14  and  C_16 
ROOT
HETATM    1  C   UNK N   1      35.680  13.528  14.119  0.00  0.00     0.016 C 
ENDROOT
BRANCH   1   2
HETATM    2  C   UNK N   1      36.353  13.752  12.775  0.00  0.00     0.031 C 
BRANCH   2   3
HETATM    3  C   UNK N   1      36.289  15.226  12.416  0.00  0.00     0.272 C 
BRANCH   3   4
HETATM    4  N   UNK N   1      35.741  15.370  11.079  0.00  0.00     0.091 N 
HETATM    5  C   UNK N   1      35.275  16.744  10.914  0.00  0.00     0.292 C 
HETATM    6  C   UNK N   1      34.753  16.918   9.490  0.00  0.00     0.158 C 
HETATM    7  N   UNK N   1      33.744  15.909   9.240  0.00  0.00    -0.331 N 
HETATM    8  C   UNK N   1      34.094  14.532   9.501  0.00  0.00     0.158 C 
HETATM    9  C   UNK N   1      32.477  16.233   8.846  0.00  0.00     0.318 C 
HETATM   10  C   UNK N   1      34.603  14.457  10.933  0.00  0.00     0.292 C 
HETATM   11  O   UNK N   1      31.656  15.345   8.659  0.00  0.00    -0.247 OA
HETATM   12  N   UNK N   1      32.115  17.536   8.673  0.00  0.00    -0.343 N 
HETATM   13  H   UNK N   1      32.793  18.291   8.840  0.00  0.00     0.164 HD
BRANCH  12  14
HETATM   14  C   UNK N   1      30.767  17.878   8.276  0.00  0.00     0.120 C 
HETATM   15  C   UNK N   1      30.072  18.672   9.368  0.00  0.00     0.026 C 
ENDBRANCH  12  14
ENDBRANCH   3   4
ENDBRANCH   2   3
ENDBRANCH   1   2
BRANCH   1  16
HETATM   16  C   UNK N   1      36.116  12.227  14.790  0.00  0.00     0.051 C 
BRANCH  16  17
HETATM   17  C   UNK N   1      35.555  11.087  13.952  0.00  0.00    -0.049 A 
HETATM   18  C   UNK N   1      36.436  10.069  13.548  0.00  0.00     0.011 A 
HETATM   19  C   UNK N   1      35.998   9.022  12.735  0.00  0.00     0.043 A 
HETATM   20  C   UNK N   1      34.670   8.978  12.312  0.00  0.00     0.116 A 
HETATM   21  F   UNK N   1      34.246   7.971  11.509  0.00  0.00    -0.206 F 
HETATM   22  C   UNK N   1      33.777   9.976  12.714  0.00  0.00     0.043 A 
HETATM   23  C   UNK N   1      34.217  11.024  13.531  0.00  0.00     0.011 A 
ENDBRANCH  16  17
BRANCH  16  24
HETATM   24  C   UNK N   1      35.813  12.330  16.275  0.00  0.00    -0.049 A 
HETATM   25  C   UNK N   1      35.530  13.599  16.809  0.00  0.00     0.011 A 
HETATM   26  C   UNK N   1      35.178  13.749  18.150  0.00  0.00     0.043 A 
HETATM   27  C   UNK N   1      35.106  12.631  18.979  0.00  0.00     0.116 A 
HETATM   28  F   UNK N   1      34.740  12.774  20.274  0.00  0.00    -0.206 F 
HETATM   29  C   UNK N   1      35.406  11.364  18.470  0.00  0.00     0.043 A 
HETATM   30  C   UNK N   1      35.758  11.215  17.125  0.00  0.00     0.011 A 
ENDBRANCH  16  24
ENDBRANCH   1  16
TORSDOF 7
ENDMDL
MODEL 6
REMARK VINA RESULT:      -7.2      4.472      8.514
REMARK  7 active torsions:
REMARK  status: ('A' for Active; 'I' for Inactive)
REMARK    1  A    between atoms: N_4  and  C_7 
REMARK       I    between atoms: N_5  and  C_17 
REMARK       I    between atoms: N_6  and  C_17 
REMARK    2  A    between atoms: N_6  and  C_22 
REMARK    3  A    between atoms: C_7  and  C_10 
REMARK    4  A    between atoms: C_10  and  C_13 
REMARK    5  A    between atoms: C_13  and  C_14 
REMARK    6  A    between atoms: C_14  and  C_15 
REMARK    7  A    between atoms: C_14  and  C_16 
ROOT
HETATM    1  C   UNK N   1      28.613  15.699   5.308  0.00  0.00     0.016 C 
ENDROOT
BRANCH   1   2
HETATM    2  C   UNK N   1      27.482  15.840   4.303  0.00  0.00     0.031 C 
BRANCH   2   3
HETATM    3  C   UNK N   1      27.507  17.234   3.704  0.00  0.00     0.272 C 
BRANCH   3   4
HETATM    4  N   UNK N   1      26.381  17.996   4.216  0.00  0.00     0.091 N 
HETATM    5  C   UNK N   1      25.159  17.228   3.988  0.00  0.00     0.292 C 
HETATM    6  C   UNK N   1      23.979  17.995   4.579  0.00  0.00     0.158 C 
HETATM    7  N   UNK N   1      23.964  19.329   4.011  0.00  0.00    -0.331 N 
HETATM    8  C   UNK N   1      25.180  20.105   4.088  0.00  0.00     0.158 C 
HETATM    9  C   UNK N   1      22.874  19.824   3.354  0.00  0.00     0.318 C 
HETATM   10  C   UNK N   1      26.294  19.262   3.483  0.00  0.00     0.292 C 
HETATM   11  O   UNK N   1      22.914  20.952   2.881  0.00  0.00    -0.247 OA
HETATM   12  N   UNK N   1      21.748  19.069   3.208  0.00  0.00    -0.343 N 
HETATM   13  H   UNK N   1      21.709  18.114   3.590  0.00  0.00     0.164 HD
BRANCH  12  14
HETATM   14  C   UNK N   1      20.602  19.587   2.493  0.00  0.00     0.120 C 
HETATM   15  C   UNK N   1      19.423  18.637   2.610  0.00  0.00     0.026 C 
ENDBRANCH  12  14
ENDBRANCH   3   4
ENDBRANCH   2   3
ENDBRANCH   1   2
BRANCH   1  16
HETATM   16  C   UNK N   1      29.605  16.858   5.250  0.00  0.00     0.051 C 
BRANCH  16  17
HETATM   17  C   UNK N   1      30.840  16.349   4.522  0.00  0.00    -0.049 A 
HETATM   18  C   UNK N   1      31.623  17.280   3.819  0.00  0.00     0.011 A 
HETATM   19  C   UNK N   1      32.740  16.871   3.086  0.00  0.00     0.043 A 
HETATM   20  C   UNK N   1      33.089  15.522   3.044  0.00  0.00     0.116 A 
HETATM   21  F   UNK N   1      34.162  15.121   2.321  0.00  0.00    -0.206 F 
HETATM   22  C   UNK N   1      32.328  14.583   3.747  0.00  0.00     0.043 A 
HETATM   23  C   UNK N   1      31.211  14.995   4.483  0.00  0.00     0.011 A 
ENDBRANCH  16  17
BRANCH  16  24
HETATM   24  C   UNK N   1      29.711  17.467   6.639  0.00  0.00    -0.049 A 
HETATM   25  C   UNK N   1      28.583  18.119   7.166  0.00  0.00     0.011 A 
HETATM   26  C   UNK N   1      28.596  18.638   8.460  0.00  0.00     0.043 A 
HETATM   27  C   UNK N   1      29.740  18.514   9.247  0.00  0.00     0.116 A 
HETATM   28  F   UNK N   1      29.744  18.996  10.512  0.00  0.00    -0.206 F 
HETATM   29  C   UNK N   1      30.878  17.888   8.730  0.00  0.00     0.043 A 
HETATM   30  C   UNK N   1      30.863  17.367   7.433  0.00  0.00     0.011 A 
ENDBRANCH  16  24
ENDBRANCH   1  16
TORSDOF 7
ENDMDL
MODEL 7
REMARK VINA RESULT:      -7.0      6.507     11.980
REMARK  7 active torsions:
REMARK  status: ('A' for Active; 'I' for Inactive)
REMARK    1  A    between atoms: N_4  and  C_7 
REMARK       I    between atoms: N_5  and  C_17 
REMARK       I    between atoms: N_6  and  C_17 
REMARK    2  A    between atoms: N_6  and  C_22 
REMARK    3  A    between atoms: C_7  and  C_10 
REMARK    4  A    between atoms: C_10  and  C_13 
REMARK    5  A    between atoms: C_13  and  C_14 
REMARK    6  A    between atoms: C_14  and  C_15 
REMARK    7  A    between atoms: C_14  and  C_16 
ROOT
HETATM    1  C   UNK N   1      35.871  13.382  14.225  0.00  0.00     0.016 C 
ENDROOT
BRANCH   1   2
HETATM    2  C   UNK N   1      35.349  13.652  12.823  0.00  0.00     0.031 C 
BRANCH   2   3
HETATM    3  C   UNK N   1      36.516  13.926  11.892  0.00  0.00     0.272 C 
BRANCH   3   4
HETATM    4  N   UNK N   1      36.037  14.637  10.720  0.00  0.00     0.091 N 
HETATM    5  C   UNK N   1      35.250  15.784  11.162  0.00  0.00     0.292 C 
HETATM    6  C   UNK N   1      34.795  16.570   9.935  0.00  0.00     0.158 C 
HETATM    7  N   UNK N   1      34.093  15.670   9.043  0.00  0.00    -0.331 N 
HETATM    8  C   UNK N   1      34.762  14.448   8.660  0.00  0.00     0.158 C 
HETATM    9  C   UNK N   1      32.813  15.910   8.630  0.00  0.00     0.318 C 
HETATM   10  C   UNK N   1      35.179  13.739   9.940  0.00  0.00     0.292 C 
HETATM   11  O   UNK N   1      32.258  15.114   7.886  0.00  0.00    -0.247 OA
HETATM   12  N   UNK N   1      32.145  17.022   9.049  0.00  0.00    -0.343 N 
HETATM   13  H   UNK N   1      32.598  17.692   9.686  0.00  0.00     0.164 HD
BRANCH  12  14
HETATM   14  C   UNK N   1      30.783  17.265   8.628  0.00  0.00     0.120 C 
HETATM   15  C   UNK N   1      30.309  18.627   9.103  0.00  0.00     0.026 C 
ENDBRANCH  12  14
ENDBRANCH   3   4
ENDBRANCH   2   3
ENDBRANCH   1   2
BRANCH   1  16
HETATM   16  C   UNK N   1      35.263  12.130  14.852  0.00  0.00     0.051 C 
BRANCH  16  17
HETATM   17  C   UNK N   1      35.285  12.334  16.360  0.00  0.00    -0.049 A 
HETATM   18  C   UNK N   1      35.303  11.194  17.181  0.00  0.00     0.011 A 
HETATM   19  C   UNK N   1      35.271  11.310  18.572  0.00  0.00     0.043 A 
HETATM   20  C   UNK N   1      35.217  12.571  19.164  0.00  0.00     0.116 A 
HETATM   21  F   UNK N   1      35.170  12.686  20.514  0.00  0.00    -0.206 F 
HETATM   22  C   UNK N   1      35.210  13.717  18.363  0.00  0.00     0.043 A 
HETATM   23  C   UNK N   1      35.245  13.599  16.969  0.00  0.00     0.011 A 
ENDBRANCH  16  17
BRANCH  16  24
HETATM   24  C   UNK N   1      35.916  10.912  14.218  0.00  0.00    -0.049 A 
HETATM   25  C   UNK N   1      37.319  10.862  14.166  0.00  0.00     0.011 A 
HETATM   26  C   UNK N   1      37.978   9.743  13.659  0.00  0.00     0.043 A 
HETATM   27  C   UNK N   1      37.240   8.656  13.192  0.00  0.00     0.116 A 
HETATM   28  F   UNK N   1      37.880   7.559  12.722  0.00  0.00    -0.206 F 
HETATM   29  C   UNK N   1      35.843   8.698  13.215  0.00  0.00     0.043 A 
HETATM   30  C   UNK N   1      35.185   9.821  13.726  0.00  0.00     0.011 A 
ENDBRANCH  16  24
ENDBRANCH   1  16
TORSDOF 7
ENDMDL
MODEL 8
REMARK VINA RESULT:      -7.0      7.129     12.798
REMARK  7 active torsions:
REMARK  status: ('A' for Active; 'I' for Inactive)
REMARK    1  A    between atoms: N_4  and  C_7 
REMARK       I    between atoms: N_5  and  C_17 
REMARK       I    between atoms: N_6  and  C_17 
REMARK    2  A    between atoms: N_6  and  C_22 
REMARK    3  A    between atoms: C_7  and  C_10 
REMARK    4  A    between atoms: C_10  and  C_13 
REMARK    5  A    between atoms: C_13  and  C_14 
REMARK    6  A    between atoms: C_14  and  C_15 
REMARK    7  A    between atoms: C_14  and  C_16 
ROOT
HETATM    1  C   UNK N   1      34.792  11.430  14.171  0.00  0.00     0.016 C 
ENDROOT
BRANCH   1   2
HETATM    2  C   UNK N   1      34.958  12.448  13.055  0.00  0.00     0.031 C 
BRANCH   2   3
HETATM    3  C   UNK N   1      36.434  12.724  12.838  0.00  0.00     0.272 C 
BRANCH   3   4
HETATM    4  N   UNK N   1      36.582  13.869  11.955  0.00  0.00     0.091 N 
HETATM    5  C   UNK N   1      35.550  14.847  12.286  0.00  0.00     0.292 C 
HETATM    6  C   UNK N   1      35.739  16.078  11.403  0.00  0.00     0.158 C 
HETATM    7  N   UNK N   1      35.743  15.657  10.016  0.00  0.00    -0.331 N 
HETATM    8  C   UNK N   1      36.653  14.601   9.639  0.00  0.00     0.158 C 
HETATM    9  C   UNK N   1      34.871  16.171   9.100  0.00  0.00     0.318 C 
HETATM   10  C   UNK N   1      36.395  13.425  10.570  0.00  0.00     0.292 C 
HETATM   11  O   UNK N   1      34.904  15.774   7.943  0.00  0.00    -0.247 OA
HETATM   12  N   UNK N   1      33.954  17.112   9.465  0.00  0.00    -0.343 N 
HETATM   13  H   UNK N   1      33.908  17.443  10.438  0.00  0.00     0.164 HD
BRANCH  12  14
HETATM   14  C   UNK N   1      33.017  17.640   8.498  0.00  0.00     0.120 C 
HETATM   15  C   UNK N   1      31.693  16.900   8.574  0.00  0.00     0.026 C 
ENDBRANCH  12  14
ENDBRANCH   3   4
ENDBRANCH   2   3
ENDBRANCH   1   2
BRANCH   1  16
HETATM   16  C   UNK N   1      36.019  11.337  15.076  0.00  0.00     0.051 C 
BRANCH  16  17
HETATM   17  C   UNK N   1      36.575   9.929  14.925  0.00  0.00    -0.049 A 
HETATM   18  C   UNK N   1      35.669   8.884  14.677  0.00  0.00     0.011 A 
HETATM   19  C   UNK N   1      36.106   7.561  14.579  0.00  0.00     0.043 A 
HETATM   20  C   UNK N   1      37.460   7.264  14.732  0.00  0.00     0.116 A 
HETATM   21  F   UNK N   1      37.885   5.979  14.654  0.00  0.00    -0.206 F 
HETATM   22  C   UNK N   1      38.377   8.292  14.968  0.00  0.00     0.043 A 
HETATM   23  C   UNK N   1      37.937   9.617  15.063  0.00  0.00     0.011 A 
ENDBRANCH  16  17
BRANCH  16  24
HETATM   24  C   UNK N   1      35.648  11.890  16.442  0.00  0.00    -0.049 A 
HETATM   25  C   UNK N   1      35.619  11.003  17.532  0.00  0.00     0.011 A 
HETATM   26  C   UNK N   1      35.352  11.462  18.822  0.00  0.00     0.043 A 
HETATM   27  C   UNK N   1      35.108  12.817  19.040  0.00  0.00     0.116 A 
HETATM   28  F   UNK N   1      34.874  13.266  20.296  0.00  0.00    -0.206 F 
HETATM   29  C   UNK N   1      35.111  13.709  17.964  0.00  0.00     0.043 A 
HETATM   30  C   UNK N   1      35.380  13.247  16.672  0.00  0.00     0.011 A 
ENDBRANCH  16  24
ENDBRANCH   1  16
TORSDOF 7
ENDMDL
MODEL 9
REMARK VINA RESULT:      -7.0      2.480      3.891
REMARK  7 active torsions:
REMARK  status: ('A' for Active; 'I' for Inactive)
REMARK    1  A    between atoms: N_4  and  C_7 
REMARK       I    between atoms: N_5  and  C_17 
REMARK       I    between atoms: N_6  and  C_17 
REMARK    2  A    between atoms: N_6  and  C_22 
REMARK    3  A    between atoms: C_7  and  C_10 
REMARK    4  A    between atoms: C_10  and  C_13 
REMARK    5  A    between atoms: C_13  and  C_14 
REMARK    6  A    between atoms: C_14  and  C_15 
REMARK    7  A    between atoms: C_14  and  C_16 
ROOT
HETATM    1  C   UNK N   1      29.420  16.514   6.340  0.00  0.00     0.016 C 
ENDROOT
BRANCH   1   2
HETATM    2  C   UNK N   1      30.861  16.032   6.310  0.00  0.00     0.031 C 
BRANCH   2   3
HETATM    3  C   UNK N   1      31.776  17.191   5.956  0.00  0.00     0.272 C 
BRANCH   3   4
HETATM    4  N   UNK N   1      33.062  17.001   6.605  0.00  0.00     0.091 N 
HETATM    5  C   UNK N   1      33.083  15.674   7.215  0.00  0.00     0.292 C 
HETATM    6  C   UNK N   1      34.454  15.445   7.845  0.00  0.00     0.158 C 
HETATM    7  N   UNK N   1      34.729  16.531   8.764  0.00  0.00    -0.331 N 
HETATM    8  C   UNK N   1      34.605  17.881   8.263  0.00  0.00     0.158 C 
HETATM    9  C   UNK N   1      35.019  16.312  10.080  0.00  0.00     0.318 C 
HETATM   10  C   UNK N   1      33.216  18.013   7.654  0.00  0.00     0.292 C 
HETATM   11  O   UNK N   1      35.231  17.263  10.820  0.00  0.00    -0.247 OA
HETATM   12  N   UNK N   1      35.060  15.044  10.581  0.00  0.00    -0.343 N 
HETATM   13  H   UNK N   1      34.870  14.238   9.970  0.00  0.00     0.164 HD
BRANCH  12  14
HETATM   14  C   UNK N   1      35.347  14.814  11.979  0.00  0.00     0.120 C 
HETATM   15  C   UNK N   1      35.376  13.327  12.283  0.00  0.00     0.026 C 
ENDBRANCH  12  14
ENDBRANCH   3   4
ENDBRANCH   2   3
ENDBRANCH   1   2
BRANCH   1  16
HETATM   16  C   UNK N   1      28.992  17.185   5.037  0.00  0.00     0.051 C 
BRANCH  16  17
HETATM   17  C   UNK N   1      28.271  18.470   5.416  0.00  0.00    -0.049 A 
HETATM   18  C   UNK N   1      27.745  19.261   4.381  0.00  0.00     0.011 A 
HETATM   19  C   UNK N   1      27.117  20.479   4.656  0.00  0.00     0.043 A 
HETATM   20  C   UNK N   1      27.009  20.924   5.973  0.00  0.00     0.116 A 
HETATM   21  F   UNK N   1      26.415  22.112   6.240  0.00  0.00    -0.206 F 
HETATM   22  C   UNK N   1      27.516  20.143   7.016  0.00  0.00     0.043 A 
HETATM   23  C   UNK N   1      28.143  18.923   6.738  0.00  0.00     0.011 A 
ENDBRANCH  16  17
BRANCH  16  24
HETATM   24  C   UNK N   1      28.321  16.141   4.159  0.00  0.00    -0.049 A 
HETATM   25  C   UNK N   1      28.884  15.871   2.900  0.00  0.00     0.011 A 
HETATM   26  C   UNK N   1      28.355  14.876   2.078  0.00  0.00     0.043 A 
HETATM   27  C   UNK N   1      27.251  14.138   2.503  0.00  0.00     0.116 A 
HETATM   28  F   UNK N   1      26.754  13.156   1.715  0.00  0.00    -0.206 F 
HETATM   29  C   UNK N   1      26.666  14.409   3.743  0.00  0.00     0.043 A 
HETATM   30  C   UNK N   1      27.199  15.405   4.566  0.00  0.00     0.011 A 
ENDBRANCH  16  24
ENDBRANCH   1  16
TORSDOF 7
ENDMDL
