REMARK  6 active torsions:
REMARK  status: ('A' for Active; 'I' for Inactive)
REMARK    1  A    between atoms: C_8  and  C_7 
REMARK    2  A    between atoms: C_15  and  C_7 
REMARK    3  A    between atoms: N_19  and  C_8 
REMARK    4  A    between atoms: C_12  and  C_9 
REMARK    5  A    between atoms: C_13  and  C_10 
REMARK    6  A    between atoms: O_21  and  C_15 
ROOT
HETATM    1  C   UNK N   1      -1.633  -0.831   0.118  0.00  0.00     0.061 C 
HETATM    2  C   UNK N   1      -2.985  -0.844  -0.015  0.00  0.00     0.078 A 
HETATM    3  C   UNK N   1      -3.910   0.286  -0.298  0.00  0.00     0.266 A 
HETATM    4  C   UNK N   1      -5.392  -1.457  -0.113  0.00  0.00     0.148 A 
HETATM    5  N   UNK N   1      -5.203  -0.073  -0.340  0.00  0.00    -0.298 N 
HETATM    6  O   UNK N   1      -3.565   1.436  -0.511  0.00  0.00    -0.266 OA
HETATM    7  S   UNK N   1      -6.688  -2.081  -0.110  0.00  0.00    -0.052 SA
HETATM    8  S   UNK N   1      -3.883  -2.408   0.146  0.00  0.00    -0.055 SA
ENDROOT
BRANCH   1   9
HETATM    9  C   UNK N   1      -0.768   0.369   0.063  0.00  0.00     0.077 A 
HETATM   10  C   UNK N   1       0.617   0.377   0.084  0.00  0.00     0.040 A 
HETATM   11  C   UNK N   1       0.983   1.720   0.046  0.00  0.00     0.041 A 
HETATM   12  C   UNK N   1      -0.210   2.421   0.020  0.00  0.00     0.086 A 
HETATM   13  O   UNK N   1      -1.211   1.590   0.033  0.00  0.00    -0.310 OA
BRANCH  12  14
HETATM   14  C   UNK N   1      -0.417   3.873  -0.007  0.00  0.00    -0.002 A 
HETATM   15  C   UNK N   1       0.655   4.774  -0.057  0.00  0.00     0.016 A 
HETATM   16  C   UNK N   1       0.405   6.152  -0.080  0.00  0.00     0.024 A 
HETATM   17  C   UNK N   1      -0.911   6.629  -0.050  0.00  0.00     0.034 A 
HETATM   18  C   UNK N   1      -1.978   5.732   0.001  0.00  0.00     0.024 A 
HETATM   19 Cl   UNK N   1      -1.230   8.348  -0.078  0.00  0.00    -0.084 Cl
HETATM   20  C   UNK N   1      -1.731   4.361   0.021  0.00  0.00     0.016 A 
ENDBRANCH  12  14
ENDBRANCH   1   9
BRANCH   5  21
HETATM   21  C   UNK N   1      -6.281   0.857  -0.633  0.00  0.00     0.144 C 
BRANCH  21  22
HETATM   22  C   UNK N   1      -6.407   1.913   0.456  0.00  0.00     0.130 C 
BRANCH  22  23
HETATM   23  C   UNK N   1      -7.679   2.677   0.286  0.00  0.00     0.141 C 
HETATM   24  O   UNK N   1      -8.753   2.106   0.379  0.00  0.00    -0.650 OA
BRANCH  23  25
HETATM   25  O   UNK N   1      -7.642   4.001   0.047  0.00  0.00    -0.776 OA
HETATM   26  H   UNK N   1      -6.831   4.439  -0.119  0.00  0.00     0.167 HD
ENDBRANCH  23  25
ENDBRANCH  22  23
ENDBRANCH  21  22
ENDBRANCH   5  21
TORSDOF 6
