MODEL 1
REMARK VINA RESULT:      -3.8      0.000      0.000
REMARK  7 active torsions:
REMARK  status: ('A' for Active; 'I' for Inactive)
REMARK    1  A    between atoms: C_8  and  C_7 
REMARK    2  A    between atoms: C_9  and  C_7 
REMARK    3  A    between atoms: C_10  and  C_8 
REMARK    4  A    between atoms: C_11  and  C_9 
REMARK    5  A    between atoms: C_12  and  C_10 
REMARK    6  A    between atoms: N_13  and  C_11 
REMARK    7  A    between atoms: N_14  and  C_12 
ROOT
HETATM    1  C   UNK N   1      25.552  26.133  -6.388  0.00  0.00     0.002 C 
ENDROOT
BRANCH   1   2
HETATM    2  C   UNK N   1      24.713  27.141  -5.611  0.00  0.00     0.002 C 
BRANCH   2   3
HETATM    3  C   UNK N   1      25.517  27.796  -4.503  0.00  0.00     0.028 C 
BRANCH   3   4
HETATM    4  C   UNK N   1      26.603  28.717  -5.066  0.00  0.00     0.236 C 
BRANCH   4   5
HETATM    5  N   UNK N   1      27.254  29.518  -4.026  0.00  0.00    -0.079 N 
HETATM    6  C   UNK N   1      28.611  29.806  -4.451  0.00  0.00     0.271 C 
HETATM    7  C   UNK N   1      26.561  30.782  -3.827  0.00  0.00     0.271 C 
HETATM    8  C   UNK N   1      27.319  28.795  -2.764  0.00  0.00     0.271 C 
ENDBRANCH   4   5
ENDBRANCH   3   4
ENDBRANCH   2   3
ENDBRANCH   1   2
BRANCH   1   9
HETATM    9  C   UNK N   1      25.827  24.886  -5.563  0.00  0.00     0.028 C 
BRANCH   9  10
HETATM   10  C   UNK N   1      27.278  24.421  -5.715  0.00  0.00     0.236 C 
BRANCH  10  11
HETATM   11  N   UNK N   1      28.016  24.467  -4.450  0.00  0.00    -0.079 N 
HETATM   12  C   UNK N   1      28.694  25.747  -4.362  0.00  0.00     0.271 C 
HETATM   13  C   UNK N   1      29.024  23.418  -4.387  0.00  0.00     0.271 C 
HETATM   14  C   UNK N   1      27.118  24.346  -3.313  0.00  0.00     0.271 C 
ENDBRANCH  10  11
ENDBRANCH   9  10
ENDBRANCH   1   9
TORSDOF 7
ENDMDL
MODEL 2
REMARK VINA RESULT:      -3.7     15.255     18.019
REMARK  7 active torsions:
REMARK  status: ('A' for Active; 'I' for Inactive)
REMARK    1  A    between atoms: C_8  and  C_7 
REMARK    2  A    between atoms: C_9  and  C_7 
REMARK    3  A    between atoms: C_10  and  C_8 
REMARK    4  A    between atoms: C_11  and  C_9 
REMARK    5  A    between atoms: C_12  and  C_10 
REMARK    6  A    between atoms: N_13  and  C_11 
REMARK    7  A    between atoms: N_14  and  C_12 
ROOT
HETATM    1  C   UNK N   1      32.321  17.188   7.720  0.00  0.00     0.002 C 
ENDROOT
BRANCH   1   2
HETATM    2  C   UNK N   1      33.360  18.272   7.986  0.00  0.00     0.002 C 
BRANCH   2   3
HETATM    3  C   UNK N   1      34.563  17.718   8.727  0.00  0.00     0.028 C 
BRANCH   3   4
HETATM    4  C   UNK N   1      34.636  16.192   8.617  0.00  0.00     0.236 C 
BRANCH   4   5
HETATM    5  N   UNK N   1      35.062  15.560   9.868  0.00  0.00    -0.079 N 
HETATM    6  C   UNK N   1      35.505  16.600  10.779  0.00  0.00     0.271 C 
HETATM    7  C   UNK N   1      33.963  14.842  10.494  0.00  0.00     0.271 C 
HETATM    8  C   UNK N   1      36.176  14.648   9.647  0.00  0.00     0.271 C 
ENDBRANCH   4   5
ENDBRANCH   3   4
ENDBRANCH   2   3
ENDBRANCH   1   2
BRANCH   1   9
HETATM    9  C   UNK N   1      30.960  17.575   8.273  0.00  0.00     0.028 C 
BRANCH   9  10
HETATM   10  C   UNK N   1      29.851  17.363   7.238  0.00  0.00     0.236 C 
BRANCH  10  11
HETATM   11  N   UNK N   1      28.518  17.638   7.780  0.00  0.00    -0.079 N 
HETATM   12  C   UNK N   1      28.188  19.024   7.501  0.00  0.00     0.271 C 
HETATM   13  C   UNK N   1      28.483  17.448   9.223  0.00  0.00     0.271 C 
HETATM   14  C   UNK N   1      27.512  16.794   7.154  0.00  0.00     0.271 C 
ENDBRANCH  10  11
ENDBRANCH   9  10
ENDBRANCH   1   9
TORSDOF 7
ENDMDL
MODEL 3
REMARK VINA RESULT:      -3.6     13.191     15.573
REMARK  7 active torsions:
REMARK  status: ('A' for Active; 'I' for Inactive)
REMARK    1  A    between atoms: C_8  and  C_7 
REMARK    2  A    between atoms: C_9  and  C_7 
REMARK    3  A    between atoms: C_10  and  C_8 
REMARK    4  A    between atoms: C_11  and  C_9 
REMARK    5  A    between atoms: C_12  and  C_10 
REMARK    6  A    between atoms: N_13  and  C_11 
REMARK    7  A    between atoms: N_14  and  C_12 
ROOT
HETATM    1  C   UNK N   1      30.187  18.515   9.304  0.00  0.00     0.002 C 
ENDROOT
BRANCH   1   2
HETATM    2  C   UNK N   1      28.720  18.587   8.892  0.00  0.00     0.002 C 
BRANCH   2   3
HETATM    3  C   UNK N   1      28.567  18.595   7.382  0.00  0.00     0.028 C 
BRANCH   3   4
HETATM    4  C   UNK N   1      27.665  19.741   6.915  0.00  0.00     0.236 C 
BRANCH   4   5
HETATM    5  N   UNK N   1      27.123  19.517   5.573  0.00  0.00    -0.079 N 
HETATM    6  C   UNK N   1      28.171  19.783   4.605  0.00  0.00     0.271 C 
HETATM    7  C   UNK N   1      26.688  18.138   5.407  0.00  0.00     0.271 C 
HETATM    8  C   UNK N   1      26.011  20.415   5.294  0.00  0.00     0.271 C 
ENDBRANCH   4   5
ENDBRANCH   3   4
ENDBRANCH   2   3
ENDBRANCH   1   2
BRANCH   1   9
HETATM    9  C   UNK N   1      30.949  17.501   8.468  0.00  0.00     0.028 C 
BRANCH   9  10
HETATM   10  C   UNK N   1      32.405  17.928   8.258  0.00  0.00     0.236 C 
BRANCH  10  11
HETATM   11  N   UNK N   1      33.336  16.799   8.328  0.00  0.00    -0.079 N 
HETATM   12  C   UNK N   1      32.609  15.635   8.801  0.00  0.00     0.271 C 
HETATM   13  C   UNK N   1      34.420  17.064   9.263  0.00  0.00     0.271 C 
HETATM   14  C   UNK N   1      33.888  16.491   7.018  0.00  0.00     0.271 C 
ENDBRANCH  10  11
ENDBRANCH   9  10
ENDBRANCH   1   9
TORSDOF 7
ENDMDL
MODEL 4
REMARK VINA RESULT:      -3.6     13.029     15.525
REMARK  7 active torsions:
REMARK  status: ('A' for Active; 'I' for Inactive)
REMARK    1  A    between atoms: C_8  and  C_7 
REMARK    2  A    between atoms: C_9  and  C_7 
REMARK    3  A    between atoms: C_10  and  C_8 
REMARK    4  A    between atoms: C_11  and  C_9 
REMARK    5  A    between atoms: C_12  and  C_10 
REMARK    6  A    between atoms: N_13  and  C_11 
REMARK    7  A    between atoms: N_14  and  C_12 
ROOT
HETATM    1  C   UNK N   1      30.158  18.606   9.325  0.00  0.00     0.002 C 
ENDROOT
BRANCH   1   2
HETATM    2  C   UNK N   1      28.650  18.402   9.234  0.00  0.00     0.002 C 
BRANCH   2   3
HETATM    3  C   UNK N   1      28.235  17.934   7.851  0.00  0.00     0.028 C 
BRANCH   3   4
HETATM    4  C   UNK N   1      27.991  19.116   6.909  0.00  0.00     0.236 C 
BRANCH   4   5
HETATM    5  N   UNK N   1      27.988  18.718   5.499  0.00  0.00    -0.079 N 
HETATM    6  C   UNK N   1      26.800  17.923   5.249  0.00  0.00     0.271 C 
HETATM    7  C   UNK N   1      27.950  19.882   4.625  0.00  0.00     0.271 C 
HETATM    8  C   UNK N   1      29.153  17.906   5.176  0.00  0.00     0.271 C 
ENDBRANCH   4   5
ENDBRANCH   3   4
ENDBRANCH   2   3
ENDBRANCH   1   2
BRANCH   1   9
HETATM    9  C   UNK N   1      30.913  17.509   8.593  0.00  0.00     0.028 C 
BRANCH   9  10
HETATM   10  C   UNK N   1      32.345  17.937   8.262  0.00  0.00     0.236 C 
BRANCH  10  11
HETATM   11  N   UNK N   1      33.067  16.927   7.484  0.00  0.00    -0.079 N 
HETATM   12  C   UNK N   1      33.437  17.510   6.208  0.00  0.00     0.271 C 
HETATM   13  C   UNK N   1      32.231  15.763   7.224  0.00  0.00     0.271 C 
HETATM   14  C   UNK N   1      34.282  16.509   8.166  0.00  0.00     0.271 C 
ENDBRANCH  10  11
ENDBRANCH   9  10
ENDBRANCH   1   9
TORSDOF 7
ENDMDL
MODEL 5
REMARK VINA RESULT:      -3.6     14.103     16.490
REMARK  7 active torsions:
REMARK  status: ('A' for Active; 'I' for Inactive)
REMARK    1  A    between atoms: C_8  and  C_7 
REMARK    2  A    between atoms: C_9  and  C_7 
REMARK    3  A    between atoms: C_10  and  C_8 
REMARK    4  A    between atoms: C_11  and  C_9 
REMARK    5  A    between atoms: C_12  and  C_10 
REMARK    6  A    between atoms: N_13  and  C_11 
REMARK    7  A    between atoms: N_14  and  C_12 
ROOT
HETATM    1  C   UNK N   1      30.416  17.520   8.762  0.00  0.00     0.002 C 
ENDROOT
BRANCH   1   2
HETATM    2  C   UNK N   1      29.511  17.793   7.566  0.00  0.00     0.002 C 
BRANCH   2   3
HETATM    3  C   UNK N   1      29.704  16.755   6.476  0.00  0.00     0.028 C 
BRANCH   3   4
HETATM    4  C   UNK N   1      30.239  17.386   5.188  0.00  0.00     0.236 C 
BRANCH   4   5
HETATM    5  N   UNK N   1      31.414  16.685   4.665  0.00  0.00    -0.079 N 
HETATM    6  C   UNK N   1      31.545  15.423   5.370  0.00  0.00     0.271 C 
HETATM    7  C   UNK N   1      31.268  16.401   3.245  0.00  0.00     0.271 C 
HETATM    8  C   UNK N   1      32.631  17.454   4.886  0.00  0.00     0.271 C 
ENDBRANCH   4   5
ENDBRANCH   3   4
ENDBRANCH   2   3
ENDBRANCH   1   2
BRANCH   1   9
HETATM    9  C   UNK N   1      31.872  17.807   8.435  0.00  0.00     0.028 C 
BRANCH   9  10
HETATM   10  C   UNK N   1      32.757  16.586   8.696  0.00  0.00     0.236 C 
BRANCH  10  11
HETATM   11  N   UNK N   1      34.183  16.881   8.529  0.00  0.00    -0.079 N 
HETATM   12  C   UNK N   1      34.844  16.683   9.806  0.00  0.00     0.271 C 
HETATM   13  C   UNK N   1      34.393  18.262   8.120  0.00  0.00     0.271 C 
HETATM   14  C   UNK N   1      34.793  15.988   7.555  0.00  0.00     0.271 C 
ENDBRANCH  10  11
ENDBRANCH   9  10
ENDBRANCH   1   9
TORSDOF 7
ENDMDL
MODEL 6
REMARK VINA RESULT:      -3.6      2.317      3.979
REMARK  7 active torsions:
REMARK  status: ('A' for Active; 'I' for Inactive)
REMARK    1  A    between atoms: C_8  and  C_7 
REMARK    2  A    between atoms: C_9  and  C_7 
REMARK    3  A    between atoms: C_10  and  C_8 
REMARK    4  A    between atoms: C_11  and  C_9 
REMARK    5  A    between atoms: C_12  and  C_10 
REMARK    6  A    between atoms: N_13  and  C_11 
REMARK    7  A    between atoms: N_14  and  C_12 
ROOT
HETATM    1  C   UNK N   1      28.544  24.221  -3.440  0.00  0.00     0.002 C 
ENDROOT
BRANCH   1   2
HETATM    2  C   UNK N   1      27.041  24.205  -3.186  0.00  0.00     0.002 C 
BRANCH   2   3
HETATM    3  C   UNK N   1      26.279  24.866  -4.321  0.00  0.00     0.028 C 
BRANCH   3   4
HETATM    4  C   UNK N   1      26.998  26.121  -4.823  0.00  0.00     0.236 C 
BRANCH   4   5
HETATM    5  N   UNK N   1      26.117  27.291  -4.871  0.00  0.00    -0.079 N 
HETATM    6  C   UNK N   1      26.822  28.368  -5.543  0.00  0.00     0.271 C 
HETATM    7  C   UNK N   1      24.903  27.003  -5.620  0.00  0.00     0.271 C 
HETATM    8  C   UNK N   1      25.768  27.746  -3.533  0.00  0.00     0.271 C 
ENDBRANCH   4   5
ENDBRANCH   3   4
ENDBRANCH   2   3
ENDBRANCH   1   2
BRANCH   1   9
HETATM    9  C   UNK N   1      29.251  23.126  -2.659  0.00  0.00     0.028 C 
BRANCH   9  10
HETATM   10  C   UNK N   1      30.773  23.241  -2.783  0.00  0.00     0.236 C 
BRANCH  10  11
HETATM   11  N   UNK N   1      31.356  22.144  -3.560  0.00  0.00    -0.079 N 
HETATM   12  C   UNK N   1      31.813  22.676  -4.831  0.00  0.00     0.271 C 
HETATM   13  C   UNK N   1      30.372  21.106  -3.832  0.00  0.00     0.271 C 
HETATM   14  C   UNK N   1      32.497  21.562  -2.871  0.00  0.00     0.271 C 
ENDBRANCH  10  11
ENDBRANCH   9  10
ENDBRANCH   1   9
TORSDOF 7
ENDMDL
MODEL 7
REMARK VINA RESULT:      -3.5     19.536     21.957
REMARK  7 active torsions:
REMARK  status: ('A' for Active; 'I' for Inactive)
REMARK    1  A    between atoms: C_8  and  C_7 
REMARK    2  A    between atoms: C_9  and  C_7 
REMARK    3  A    between atoms: C_10  and  C_8 
REMARK    4  A    between atoms: C_11  and  C_9 
REMARK    5  A    between atoms: C_12  and  C_10 
REMARK    6  A    between atoms: N_13  and  C_11 
REMARK    7  A    between atoms: N_14  and  C_12 
ROOT
HETATM    1  C   UNK N   1      35.346  14.817  11.802  0.00  0.00     0.002 C 
ENDROOT
BRANCH   1   2
HETATM    2  C   UNK N   1      36.140  15.846  11.005  0.00  0.00     0.002 C 
BRANCH   2   3
HETATM    3  C   UNK N   1      35.226  16.854  10.333  0.00  0.00     0.028 C 
BRANCH   3   4
HETATM    4  C   UNK N   1      34.181  16.164   9.451  0.00  0.00     0.236 C 
BRANCH   4   5
HETATM    5  N   UNK N   1      33.925  16.896   8.208  0.00  0.00    -0.079 N 
HETATM    6  C   UNK N   1      34.544  16.171   7.114  0.00  0.00     0.271 C 
HETATM    7  C   UNK N   1      32.498  16.995   7.941  0.00  0.00     0.271 C 
HETATM    8  C   UNK N   1      34.505  18.231   8.251  0.00  0.00     0.271 C 
ENDBRANCH   4   5
ENDBRANCH   3   4
ENDBRANCH   2   3
ENDBRANCH   1   2
BRANCH   1   9
HETATM    9  C   UNK N   1      36.208  14.148  12.860  0.00  0.00     0.028 C 
BRANCH   9  10
HETATM   10  C   UNK N   1      35.361  13.327  13.837  0.00  0.00     0.236 C 
BRANCH  10  11
HETATM   11  N   UNK N   1      36.031  13.122  15.124  0.00  0.00    -0.079 N 
HETATM   12  C   UNK N   1      36.891  14.263  15.379  0.00  0.00     0.271 C 
HETATM   13  C   UNK N   1      36.862  11.926  15.103  0.00  0.00     0.271 C 
HETATM   14  C   UNK N   1      35.067  13.025  16.208  0.00  0.00     0.271 C 
ENDBRANCH  10  11
ENDBRANCH   9  10
ENDBRANCH   1   9
TORSDOF 7
ENDMDL
MODEL 8
REMARK VINA RESULT:      -3.5      2.532      5.987
REMARK  7 active torsions:
REMARK  status: ('A' for Active; 'I' for Inactive)
REMARK    1  A    between atoms: C_8  and  C_7 
REMARK    2  A    between atoms: C_9  and  C_7 
REMARK    3  A    between atoms: C_10  and  C_8 
REMARK    4  A    between atoms: C_11  and  C_9 
REMARK    5  A    between atoms: C_12  and  C_10 
REMARK    6  A    between atoms: N_13  and  C_11 
REMARK    7  A    between atoms: N_14  and  C_12 
ROOT
HETATM    1  C   UNK N   1      25.543  25.660  -6.394  0.00  0.00     0.002 C 
ENDROOT
BRANCH   1   2
HETATM    2  C   UNK N   1      25.914  24.612  -5.350  0.00  0.00     0.002 C 
BRANCH   2   3
HETATM    3  C   UNK N   1      25.783  23.205  -5.904  0.00  0.00     0.028 C 
BRANCH   3   4
HETATM    4  C   UNK N   1      26.786  22.950  -7.033  0.00  0.00     0.236 C 
BRANCH   4   5
HETATM    5  N   UNK N   1      26.197  22.204  -8.148  0.00  0.00    -0.079 N 
HETATM    6  C   UNK N   1      27.060  21.077  -8.451  0.00  0.00     0.271 C 
HETATM    7  C   UNK N   1      24.881  21.690  -7.798  0.00  0.00     0.271 C 
HETATM    8  C   UNK N   1      26.095  23.030  -9.342  0.00  0.00     0.271 C 
ENDBRANCH   4   5
ENDBRANCH   3   4
ENDBRANCH   2   3
ENDBRANCH   1   2
BRANCH   1   9
HETATM    9  C   UNK N   1      25.141  26.973  -5.745  0.00  0.00     0.028 C 
BRANCH   9  10
HETATM   10  C   UNK N   1      26.314  27.956  -5.693  0.00  0.00     0.236 C 
BRANCH  10  11
HETATM   11  N   UNK N   1      26.707  28.288  -4.321  0.00  0.00    -0.079 N 
HETATM   12  C   UNK N   1      26.767  29.734  -4.199  0.00  0.00     0.271 C 
HETATM   13  C   UNK N   1      28.024  27.754  -4.004  0.00  0.00     0.271 C 
HETATM   14  C   UNK N   1      25.735  27.788  -3.361  0.00  0.00     0.271 C 
ENDBRANCH  10  11
ENDBRANCH   9  10
ENDBRANCH   1   9
TORSDOF 7
ENDMDL
MODEL 9
REMARK VINA RESULT:      -3.5      1.845      4.659
REMARK  7 active torsions:
REMARK  status: ('A' for Active; 'I' for Inactive)
REMARK    1  A    between atoms: C_8  and  C_7 
REMARK    2  A    between atoms: C_9  and  C_7 
REMARK    3  A    between atoms: C_10  and  C_8 
REMARK    4  A    between atoms: C_11  and  C_9 
REMARK    5  A    between atoms: C_12  and  C_10 
REMARK    6  A    between atoms: N_13  and  C_11 
REMARK    7  A    between atoms: N_14  and  C_12 
ROOT
HETATM    1  C   UNK N   1      25.382  27.942  -4.351  0.00  0.00     0.002 C 
ENDROOT
BRANCH   1   2
HETATM    2  C   UNK N   1      24.768  27.282  -5.580  0.00  0.00     0.002 C 
BRANCH   2   3
HETATM    3  C   UNK N   1      25.192  25.829  -5.700  0.00  0.00     0.028 C 
BRANCH   3   4
HETATM    4  C   UNK N   1      25.863  25.549  -7.048  0.00  0.00     0.236 C 
BRANCH   4   5
HETATM    5  N   UNK N   1      26.277  24.151  -7.189  0.00  0.00    -0.079 N 
HETATM    6  C   UNK N   1      25.590  23.583  -8.334  0.00  0.00     0.271 C 
HETATM    7  C   UNK N   1      27.711  24.049  -7.420  0.00  0.00     0.271 C 
HETATM    8  C   UNK N   1      25.918  23.371  -6.013  0.00  0.00     0.271 C 
ENDBRANCH   4   5
ENDBRANCH   3   4
ENDBRANCH   2   3
ENDBRANCH   1   2
BRANCH   1   9
HETATM    9  C   UNK N   1      26.724  28.576  -4.672  0.00  0.00     0.028 C 
BRANCH   9  10
HETATM   10  C   UNK N   1      27.815  28.103  -3.707  0.00  0.00     0.236 C 
BRANCH  10  11
HETATM   11  N   UNK N   1      28.806  27.243  -4.358  0.00  0.00    -0.079 N 
HETATM   12  C   UNK N   1      28.785  27.518  -5.783  0.00  0.00     0.271 C 
HETATM   13  C   UNK N   1      28.493  25.834  -4.166  0.00  0.00     0.271 C 
HETATM   14  C   UNK N   1      30.145  27.516  -3.860  0.00  0.00     0.271 C 
ENDBRANCH  10  11
ENDBRANCH   9  10
ENDBRANCH   1   9
TORSDOF 7
ENDMDL
