REMARK  4 active torsions:
REMARK  status: ('A' for Active; 'I' for Inactive)
REMARK    1  A    between atoms: N_1  and  C_2 
REMARK    2  A    between atoms: N_1  and  C_3 
REMARK    3  A    between atoms: N_1  and  C_4 
REMARK    4  A    between atoms: N_1  and  C_5 
ROOT
HETATM    1  N   UNK N   1       0.366   2.025  -0.337  0.00  0.00    -0.068 N 
ENDROOT
BRANCH   1   2
HETATM    2  C   UNK N   1       1.270   1.040   0.299  0.00  0.00     0.233 C 
HETATM    3  C   UNK N   1       0.697   0.310   1.509  0.00  0.00     0.035 C 
ENDBRANCH   1   2
BRANCH   1   4
HETATM    4  C   UNK N   1      -0.155   3.064   0.579  0.00  0.00     0.233 C 
HETATM    5  C   UNK N   1      -1.189   2.587   1.594  0.00  0.00     0.035 C 
ENDBRANCH   1   4
BRANCH   1   6
HETATM    6  C   UNK N   1      -0.697   1.387  -1.138  0.00  0.00     0.233 C 
HETATM    7  C   UNK N   1      -1.589   0.406  -0.383  0.00  0.00     0.035 C 
ENDBRANCH   1   6
BRANCH   1   8
HETATM    8  C   UNK N   1       1.166   2.730  -1.347  0.00  0.00     0.233 C 
HETATM    9  C   UNK N   1       2.370   3.487  -0.776  0.00  0.00     0.035 C 
ENDBRANCH   1   8
TORSDOF 4
