MODEL 1
REMARK VINA RESULT:      -6.7      0.000      0.000
REMARK  7 active torsions:
REMARK  status: ('A' for Active; 'I' for Inactive)
REMARK    1  A    between atoms: C_7  and  C_4 
REMARK    2  A    between atoms: C_8  and  C_4 
REMARK    3  A    between atoms: C_12  and  C_7 
REMARK    4  A    between atoms: N_15  and  C_8 
REMARK    5  A    between atoms: C_9  and  N_15 
REMARK    6  A    between atoms: C_13  and  C_10 
REMARK    7  A    between atoms: O_19  and  C_12 
ROOT
HETATM    1  C   UNK N   1      33.336  15.612   9.295  0.00  0.00     0.119 C 
HETATM    2  C   UNK N   1      34.261  15.547  10.276  0.00  0.00     0.126 A 
HETATM    3  C   UNK N   1      35.264  14.712  12.014  0.00  0.00     0.162 A 
HETATM    4  C   UNK N   1      35.336  16.435  10.702  0.00  0.00     0.318 A 
HETATM    5  N   UNK N   1      34.302  14.477  11.182  0.00  0.00    -0.330 N 
ATOM      6  HN  UNK N   1      33.687  13.664  11.185  1.00  0.00     0.168 HD
HETATM    7  O   UNK N   1      35.649  17.522  10.260  0.00  0.00    -0.257 OA
HETATM    8  O   UNK N   1      35.928  15.873  11.768  0.00  0.00    -0.255 OA
ENDROOT
BRANCH   1   9
HETATM    9  N   UNK N   1      33.188  16.637   8.315  0.00  0.00    -0.397 N 
HETATM   10  H   UNK N   1      33.871  16.698   7.610  0.00  0.00     0.158 HD
BRANCH   9  11
HETATM   11  C   UNK N   1      32.113  17.587   8.285  0.00  0.00     0.119 C 
BRANCH  11  12
HETATM   12  C   UNK N   1      30.802  16.885   8.594  0.00  0.00     0.030 C 
BRANCH  12  13
HETATM   13  C   UNK N   1      29.600  17.724   8.173  0.00  0.00     0.111 C 
BRANCH  13  14
HETATM   14  C   UNK N   1      28.851  18.271   9.348  0.00  0.00     0.139 C 
HETATM   15  O   UNK N   1      29.458  18.793  10.268  0.00  0.00    -0.650 OA
BRANCH  14  16
HETATM   16  O   UNK N   1      27.508  18.187   9.393  0.00  0.00    -0.776 OA
HETATM   17  H   UNK N   1      26.970  18.208   8.625  0.00  0.00     0.167 HD
ENDBRANCH  14  16
ENDBRANCH  13  14
ENDBRANCH  12  13
ENDBRANCH  11  12
ENDBRANCH   9  11
ENDBRANCH   1   9
BRANCH   3  18
HETATM   18  C   UNK N   1      35.580  13.834  13.149  0.00  0.00     0.015 A 
HETATM   19  C   UNK N   1      34.973  12.578  13.274  0.00  0.00     0.016 A 
HETATM   20  C   UNK N   1      35.247  11.773  14.383  0.00  0.00     0.001 A 
HETATM   21  C   UNK N   1      36.125  12.222  15.373  0.00  0.00     0.000 A 
HETATM   22  C   UNK N   1      36.736  13.473  15.252  0.00  0.00     0.001 A 
HETATM   23  C   UNK N   1      36.462  14.279  14.144  0.00  0.00     0.016 A 
ENDBRANCH   3  18
TORSDOF 7
ENDMDL
MODEL 2
REMARK VINA RESULT:      -6.7     11.976     13.616
REMARK  7 active torsions:
REMARK  status: ('A' for Active; 'I' for Inactive)
REMARK    1  A    between atoms: C_7  and  C_4 
REMARK    2  A    between atoms: C_8  and  C_4 
REMARK    3  A    between atoms: C_12  and  C_7 
REMARK    4  A    between atoms: N_15  and  C_8 
REMARK    5  A    between atoms: C_9  and  N_15 
REMARK    6  A    between atoms: C_13  and  C_10 
REMARK    7  A    between atoms: O_19  and  C_12 
ROOT
HETATM    1  C   UNK N   1      21.919  16.590   5.652  0.00  0.00     0.119 C 
HETATM    2  C   UNK N   1      21.327  15.873   6.630  0.00  0.00     0.126 A 
HETATM    3  C   UNK N   1      21.236  14.534   8.340  0.00  0.00     0.162 A 
HETATM    4  C   UNK N   1      19.937  15.618   6.986  0.00  0.00     0.318 A 
HETATM    5  N   UNK N   1      22.074  15.133   7.558  0.00  0.00    -0.330 N 
ATOM      6  HN  UNK N   1      23.091  15.077   7.607  1.00  0.00     0.168 HD
HETATM    7  O   UNK N   1      18.924  15.994   6.430  0.00  0.00    -0.257 OA
HETATM    8  O   UNK N   1      19.934  14.797   8.049  0.00  0.00    -0.255 OA
ENDROOT
BRANCH   1   9
HETATM    9  N   UNK N   1      21.279  17.381   4.654  0.00  0.00    -0.397 N 
HETATM   10  H   UNK N   1      20.401  17.082   4.325  0.00  0.00     0.158 HD
BRANCH   9  11
HETATM   11  C   UNK N   1      21.824  18.585   4.095  0.00  0.00     0.119 C 
BRANCH  11  12
HETATM   12  C   UNK N   1      20.703  19.440   3.530  0.00  0.00     0.030 C 
BRANCH  12  13
HETATM   13  C   UNK N   1      20.535  19.227   2.028  0.00  0.00     0.111 C 
BRANCH  13  14
HETATM   14  C   UNK N   1      20.898  20.446   1.239  0.00  0.00     0.139 C 
HETATM   15  O   UNK N   1      21.460  21.381   1.787  0.00  0.00    -0.650 OA
BRANCH  14  16
HETATM   16  O   UNK N   1      20.606  20.516  -0.073  0.00  0.00    -0.776 OA
HETATM   17  H   UNK N   1      21.240  20.748  -0.724  0.00  0.00     0.167 HD
ENDBRANCH  14  16
ENDBRANCH  13  14
ENDBRANCH  12  13
ENDBRANCH  11  12
ENDBRANCH   9  11
ENDBRANCH   1   9
BRANCH   3  18
HETATM   18  C   UNK N   1      21.647  13.617   9.412  0.00  0.00     0.015 A 
HETATM   19  C   UNK N   1      20.705  13.094  10.307  0.00  0.00     0.016 A 
HETATM   20  C   UNK N   1      21.115  12.260  11.351  0.00  0.00     0.001 A 
HETATM   21  C   UNK N   1      22.469  11.949  11.505  0.00  0.00     0.000 A 
HETATM   22  C   UNK N   1      23.412  12.465  10.614  0.00  0.00     0.001 A 
HETATM   23  C   UNK N   1      23.003  13.299   9.570  0.00  0.00     0.016 A 
ENDBRANCH   3  18
TORSDOF 7
ENDMDL
MODEL 3
REMARK VINA RESULT:      -6.7      3.030      4.028
REMARK  7 active torsions:
REMARK  status: ('A' for Active; 'I' for Inactive)
REMARK    1  A    between atoms: C_7  and  C_4 
REMARK    2  A    between atoms: C_8  and  C_4 
REMARK    3  A    between atoms: C_12  and  C_7 
REMARK    4  A    between atoms: N_15  and  C_8 
REMARK    5  A    between atoms: C_9  and  N_15 
REMARK    6  A    between atoms: C_13  and  C_10 
REMARK    7  A    between atoms: O_19  and  C_12 
ROOT
HETATM    1  C   UNK N   1      34.826  13.159  11.210  0.00  0.00     0.119 C 
HETATM    2  C   UNK N   1      35.295  13.461  12.439  0.00  0.00     0.126 A 
HETATM    3  C   UNK N   1      35.626  13.178  14.568  0.00  0.00     0.162 A 
HETATM    4  C   UNK N   1      36.012  14.606  12.986  0.00  0.00     0.318 A 
HETATM    5  N   UNK N   1      35.098  12.608  13.534  0.00  0.00    -0.330 N 
ATOM      6  HN  UNK N   1      34.625  11.705  13.519  1.00  0.00     0.168 HD
HETATM    7  O   UNK N   1      36.351  15.633  12.430  0.00  0.00    -0.257 OA
HETATM    8  O   UNK N   1      36.200  14.380  14.296  0.00  0.00    -0.255 OA
ENDROOT
BRANCH   1   9
HETATM    9  N   UNK N   1      34.960  13.935  10.021  0.00  0.00    -0.397 N 
HETATM   10  H   UNK N   1      35.763  13.793   9.470  0.00  0.00     0.158 HD
BRANCH   9  11
HETATM   11  C   UNK N   1      34.006  14.908   9.571  0.00  0.00     0.119 C 
BRANCH  11  12
HETATM   12  C   UNK N   1      34.638  16.288   9.586  0.00  0.00     0.030 C 
BRANCH  12  13
HETATM   13  C   UNK N   1      33.749  17.323   8.903  0.00  0.00     0.111 C 
BRANCH  13  14
HETATM   14  C   UNK N   1      34.527  18.234   8.005  0.00  0.00     0.139 C 
HETATM   15  O   UNK N   1      34.482  18.082   6.796  0.00  0.00    -0.650 OA
BRANCH  14  16
HETATM   16  O   UNK N   1      35.277  19.222   8.529  0.00  0.00    -0.776 OA
HETATM   17  H   UNK N   1      36.168  19.370   8.279  0.00  0.00     0.167 HD
ENDBRANCH  14  16
ENDBRANCH  13  14
ENDBRANCH  12  13
ENDBRANCH  11  12
ENDBRANCH   9  11
ENDBRANCH   1   9
BRANCH   3  18
HETATM   18  C   UNK N   1      35.569  12.606  15.921  0.00  0.00     0.015 A 
HETATM   19  C   UNK N   1      35.766  11.235  16.127  0.00  0.00     0.016 A 
HETATM   20  C   UNK N   1      35.663  10.696  17.413  0.00  0.00     0.001 A 
HETATM   21  C   UNK N   1      35.358  11.526  18.496  0.00  0.00     0.000 A 
HETATM   22  C   UNK N   1      35.163  12.894  18.296  0.00  0.00     0.001 A 
HETATM   23  C   UNK N   1      35.266  13.434  17.011  0.00  0.00     0.016 A 
ENDBRANCH   3  18
TORSDOF 7
ENDMDL
MODEL 4
REMARK VINA RESULT:      -6.6      2.909      3.159
REMARK  7 active torsions:
REMARK  status: ('A' for Active; 'I' for Inactive)
REMARK    1  A    between atoms: C_7  and  C_4 
REMARK    2  A    between atoms: C_8  and  C_4 
REMARK    3  A    between atoms: C_12  and  C_7 
REMARK    4  A    between atoms: N_15  and  C_8 
REMARK    5  A    between atoms: C_9  and  N_15 
REMARK    6  A    between atoms: C_13  and  C_10 
REMARK    7  A    between atoms: O_19  and  C_12 
ROOT
HETATM    1  C   UNK N   1      35.239  13.969   9.126  0.00  0.00     0.119 C 
HETATM    2  C   UNK N   1      35.527  14.146  10.433  0.00  0.00     0.126 A 
HETATM    3  C   UNK N   1      35.564  13.646  12.548  0.00  0.00     0.162 A 
HETATM    4  C   UNK N   1      36.138  15.232  11.189  0.00  0.00     0.318 A 
HETATM    5  N   UNK N   1      35.197  13.183  11.397  0.00  0.00    -0.330 N 
ATOM      6  HN  UNK N   1      34.749  12.283  11.225  1.00  0.00     0.168 HD
HETATM    7  O   UNK N   1      36.530  16.312  10.792  0.00  0.00    -0.257 OA
HETATM    8  O   UNK N   1      36.146  14.873  12.482  0.00  0.00    -0.255 OA
ENDROOT
BRANCH   1   9
HETATM    9  N   UNK N   1      35.522  14.864   8.053  0.00  0.00    -0.397 N 
HETATM   10  H   UNK N   1      36.350  15.392   8.102  0.00  0.00     0.158 HD
BRANCH   9  11
HETATM   11  C   UNK N   1      34.682  15.049   6.903  0.00  0.00     0.119 C 
BRANCH  11  12
HETATM   12  C   UNK N   1      33.588  16.051   7.225  0.00  0.00     0.030 C 
BRANCH  12  13
HETATM   13  C   UNK N   1      34.075  17.488   7.059  0.00  0.00     0.111 C 
BRANCH  13  14
HETATM   14  C   UNK N   1      34.468  18.108   8.364  0.00  0.00     0.139 C 
HETATM   15  O   UNK N   1      35.060  19.174   8.377  0.00  0.00    -0.650 OA
BRANCH  14  16
HETATM   16  O   UNK N   1      34.170  17.492   9.523  0.00  0.00    -0.776 OA
HETATM   17  H   UNK N   1      33.508  17.802  10.109  0.00  0.00     0.167 HD
ENDBRANCH  14  16
ENDBRANCH  13  14
ENDBRANCH  12  13
ENDBRANCH  11  12
ENDBRANCH   9  11
ENDBRANCH   1   9
BRANCH   3  18
HETATM   18  C   UNK N   1      35.332  12.937  13.814  0.00  0.00     0.015 A 
HETATM   19  C   UNK N   1      34.489  11.819  13.864  0.00  0.00     0.016 A 
HETATM   20  C   UNK N   1      34.240  11.183  15.083  0.00  0.00     0.001 A 
HETATM   21  C   UNK N   1      34.827  11.664  16.257  0.00  0.00     0.000 A 
HETATM   22  C   UNK N   1      35.670  12.777  16.211  0.00  0.00     0.001 A 
HETATM   23  C   UNK N   1      35.921  13.414  14.993  0.00  0.00     0.016 A 
ENDBRANCH   3  18
TORSDOF 7
ENDMDL
MODEL 5
REMARK VINA RESULT:      -6.5      4.149      9.944
REMARK  7 active torsions:
REMARK  status: ('A' for Active; 'I' for Inactive)
REMARK    1  A    between atoms: C_7  and  C_4 
REMARK    2  A    between atoms: C_8  and  C_4 
REMARK    3  A    between atoms: C_12  and  C_7 
REMARK    4  A    between atoms: N_15  and  C_8 
REMARK    5  A    between atoms: C_9  and  N_15 
REMARK    6  A    between atoms: C_13  and  C_10 
REMARK    7  A    between atoms: O_19  and  C_12 
ROOT
HETATM    1  C   UNK N   1      30.798  16.782   7.751  0.00  0.00     0.119 C 
HETATM    2  C   UNK N   1      29.712  17.560   7.556  0.00  0.00     0.126 A 
HETATM    3  C   UNK N   1      28.113  18.499   6.423  0.00  0.00     0.162 A 
HETATM    4  C   UNK N   1      28.949  18.452   8.421  0.00  0.00     0.318 A 
HETATM    5  N   UNK N   1      29.094  17.664   6.302  0.00  0.00    -0.330 N 
ATOM      6  HN  UNK N   1      29.367  17.174   5.451  1.00  0.00     0.168 HD
HETATM    7  O   UNK N   1      29.146  18.742   9.585  0.00  0.00    -0.257 OA
HETATM    8  O   UNK N   1      27.972  18.998   7.679  0.00  0.00    -0.255 OA
ENDROOT
BRANCH   1   9
HETATM    9  N   UNK N   1      31.514  16.589   8.968  0.00  0.00    -0.397 N 
HETATM   10  H   UNK N   1      31.323  17.201   9.715  0.00  0.00     0.158 HD
BRANCH   9  11
HETATM   11  C   UNK N   1      32.494  15.563   9.183  0.00  0.00     0.119 C 
BRANCH  11  12
HETATM   12  C   UNK N   1      33.763  15.901   8.421  0.00  0.00     0.030 C 
BRANCH  12  13
HETATM   13  C   UNK N   1      34.527  17.047   9.079  0.00  0.00     0.111 C 
BRANCH  13  14
HETATM   14  C   UNK N   1      34.708  18.211   8.155  0.00  0.00     0.139 C 
HETATM   15  O   UNK N   1      34.308  18.143   7.004  0.00  0.00    -0.650 OA
BRANCH  14  16
HETATM   16  O   UNK N   1      35.313  19.332   8.589  0.00  0.00    -0.776 OA
HETATM   17  H   UNK N   1      35.248  19.635   9.474  0.00  0.00     0.167 HD
ENDBRANCH  14  16
ENDBRANCH  13  14
ENDBRANCH  12  13
ENDBRANCH  11  12
ENDBRANCH   9  11
ENDBRANCH   1   9
BRANCH   3  18
HETATM   18  C   UNK N   1      27.260  18.908   5.298  0.00  0.00     0.015 A 
HETATM   19  C   UNK N   1      27.562  20.054   4.551  0.00  0.00     0.016 A 
HETATM   20  C   UNK N   1      26.716  20.459   3.515  0.00  0.00     0.001 A 
HETATM   21  C   UNK N   1      25.564  19.722   3.224  0.00  0.00     0.000 A 
HETATM   22  C   UNK N   1      25.260  18.578   3.964  0.00  0.00     0.001 A 
HETATM   23  C   UNK N   1      26.105  18.172   5.001  0.00  0.00     0.016 A 
ENDBRANCH   3  18
TORSDOF 7
ENDMDL
MODEL 6
REMARK VINA RESULT:      -6.5      3.015      8.354
REMARK  7 active torsions:
REMARK  status: ('A' for Active; 'I' for Inactive)
REMARK    1  A    between atoms: C_7  and  C_4 
REMARK    2  A    between atoms: C_8  and  C_4 
REMARK    3  A    between atoms: C_12  and  C_7 
REMARK    4  A    between atoms: N_15  and  C_8 
REMARK    5  A    between atoms: C_9  and  N_15 
REMARK    6  A    between atoms: C_13  and  C_10 
REMARK    7  A    between atoms: O_19  and  C_12 
ROOT
HETATM    1  C   UNK N   1      34.516  16.321   9.746  0.00  0.00     0.119 C 
HETATM    2  C   UNK N   1      34.178  16.972   8.612  0.00  0.00     0.126 A 
HETATM    3  C   UNK N   1      33.232  17.231   6.673  0.00  0.00     0.162 A 
HETATM    4  C   UNK N   1      34.535  18.271   8.056  0.00  0.00     0.318 A 
HETATM    5  N   UNK N   1      33.343  16.389   7.648  0.00  0.00    -0.330 N 
ATOM      6  HN  UNK N   1      32.904  15.470   7.705  1.00  0.00     0.168 HD
HETATM    7  O   UNK N   1      35.291  19.111   8.502  0.00  0.00    -0.257 OA
HETATM    8  O   UNK N   1      33.922  18.386   6.868  0.00  0.00    -0.255 OA
ENDROOT
BRANCH   1   9
HETATM    9  N   UNK N   1      35.349  16.800  10.799  0.00  0.00    -0.397 N 
HETATM   10  H   UNK N   1      35.574  17.758  10.806  0.00  0.00     0.158 HD
BRANCH   9  11
HETATM   11  C   UNK N   1      35.882  15.983  11.851  0.00  0.00     0.119 C 
BRANCH  11  12
HETATM   12  C   UNK N   1      35.803  14.520  11.452  0.00  0.00     0.030 C 
BRANCH  12  13
HETATM   13  C   UNK N   1      36.571  13.628  12.424  0.00  0.00     0.111 C 
BRANCH  13  14
HETATM   14  C   UNK N   1      36.136  13.830  13.842  0.00  0.00     0.139 C 
HETATM   15  O   UNK N   1      35.008  13.516  14.183  0.00  0.00    -0.650 OA
BRANCH  14  16
HETATM   16  O   UNK N   1      36.986  14.358  14.743  0.00  0.00    -0.776 OA
HETATM   17  H   UNK N   1      37.883  14.547  14.546  0.00  0.00     0.167 HD
ENDBRANCH  14  16
ENDBRANCH  13  14
ENDBRANCH  12  13
ENDBRANCH  11  12
ENDBRANCH   9  11
ENDBRANCH   1   9
BRANCH   3  18
HETATM   18  C   UNK N   1      32.474  16.948   5.446  0.00  0.00     0.015 A 
HETATM   19  C   UNK N   1      32.948  17.374   4.198  0.00  0.00     0.016 A 
HETATM   20  C   UNK N   1      32.194  17.141   3.044  0.00  0.00     0.001 A 
HETATM   21  C   UNK N   1      30.963  16.484   3.135  0.00  0.00     0.000 A 
HETATM   22  C   UNK N   1      30.488  16.055   4.376  0.00  0.00     0.001 A 
HETATM   23  C   UNK N   1      31.241  16.288   5.530  0.00  0.00     0.016 A 
ENDBRANCH   3  18
TORSDOF 7
ENDMDL
MODEL 7
REMARK VINA RESULT:      -6.4      2.733      9.451
REMARK  7 active torsions:
REMARK  status: ('A' for Active; 'I' for Inactive)
REMARK    1  A    between atoms: C_7  and  C_4 
REMARK    2  A    between atoms: C_8  and  C_4 
REMARK    3  A    between atoms: C_12  and  C_7 
REMARK    4  A    between atoms: N_15  and  C_8 
REMARK    5  A    between atoms: C_9  and  N_15 
REMARK    6  A    between atoms: C_13  and  C_10 
REMARK    7  A    between atoms: O_19  and  C_12 
ROOT
HETATM    1  C   UNK N   1      31.769  16.856   8.249  0.00  0.00     0.119 C 
HETATM    2  C   UNK N   1      30.508  17.328   8.145  0.00  0.00     0.126 A 
HETATM    3  C   UNK N   1      28.820  18.303   7.185  0.00  0.00     0.162 A 
HETATM    4  C   UNK N   1      29.389  17.410   9.075  0.00  0.00     0.318 A 
HETATM    5  N   UNK N   1      30.039  17.926   6.968  0.00  0.00    -0.330 N 
ATOM      6  HN  UNK N   1      30.561  18.045   6.100  1.00  0.00     0.168 HD
HETATM    7  O   UNK N   1      29.339  17.077  10.243  0.00  0.00    -0.257 OA
HETATM    8  O   UNK N   1      28.372  18.009   8.434  0.00  0.00    -0.255 OA
ENDROOT
BRANCH   1   9
HETATM    9  N   UNK N   1      32.365  16.228   9.381  0.00  0.00    -0.397 N 
HETATM   10  H   UNK N   1      32.600  16.796  10.150  0.00  0.00     0.158 HD
BRANCH   9  11
HETATM   11  C   UNK N   1      32.646  14.824   9.480  0.00  0.00     0.119 C 
BRANCH  11  12
HETATM   12  C   UNK N   1      34.142  14.612   9.634  0.00  0.00     0.030 C 
BRANCH  12  13
HETATM   13  C   UNK N   1      34.671  15.241  10.920  0.00  0.00     0.111 C 
BRANCH  13  14
HETATM   14  C   UNK N   1      35.682  16.312  10.652  0.00  0.00     0.139 C 
HETATM   15  O   UNK N   1      35.325  17.385  10.194  0.00  0.00    -0.650 OA
BRANCH  14  16
HETATM   16  O   UNK N   1      36.984  16.095  10.915  0.00  0.00    -0.776 OA
HETATM   17  H   UNK N   1      37.675  16.551  10.475  0.00  0.00     0.167 HD
ENDBRANCH  14  16
ENDBRANCH  13  14
ENDBRANCH  12  13
ENDBRANCH  11  12
ENDBRANCH   9  11
ENDBRANCH   1   9
BRANCH   3  18
HETATM   18  C   UNK N   1      28.010  19.024   6.193  0.00  0.00     0.015 A 
HETATM   19  C   UNK N   1      27.975  18.605   4.857  0.00  0.00     0.016 A 
HETATM   20  C   UNK N   1      27.238  19.327   3.914  0.00  0.00     0.001 A 
HETATM   21  C   UNK N   1      26.538  20.473   4.303  0.00  0.00     0.000 A 
HETATM   22  C   UNK N   1      26.568  20.893   5.634  0.00  0.00     0.001 A 
HETATM   23  C   UNK N   1      27.304  20.172   6.578  0.00  0.00     0.016 A 
ENDBRANCH   3  18
TORSDOF 7
ENDMDL
MODEL 8
REMARK VINA RESULT:      -6.3      2.620      7.753
REMARK  7 active torsions:
REMARK  status: ('A' for Active; 'I' for Inactive)
REMARK    1  A    between atoms: C_7  and  C_4 
REMARK    2  A    between atoms: C_8  and  C_4 
REMARK    3  A    between atoms: C_12  and  C_7 
REMARK    4  A    between atoms: N_15  and  C_8 
REMARK    5  A    between atoms: C_9  and  N_15 
REMARK    6  A    between atoms: C_13  and  C_10 
REMARK    7  A    between atoms: O_19  and  C_12 
ROOT
HETATM    1  C   UNK N   1      36.223  14.534   9.453  0.00  0.00     0.119 C 
HETATM    2  C   UNK N   1      35.330  15.500   9.147  0.00  0.00     0.126 A 
HETATM    3  C   UNK N   1      33.881  16.552   7.916  0.00  0.00     0.162 A 
HETATM    4  C   UNK N   1      34.888  16.709   9.828  0.00  0.00     0.318 A 
HETATM    5  N   UNK N   1      34.625  15.495   7.935  0.00  0.00    -0.330 N 
ATOM      6  HN  UNK N   1      34.689  14.789   7.201  1.00  0.00     0.168 HD
HETATM    7  O   UNK N   1      35.266  17.172  10.887  0.00  0.00    -0.257 OA
HETATM    8  O   UNK N   1      33.990  17.317   9.035  0.00  0.00    -0.255 OA
ENDROOT
BRANCH   1   9
HETATM    9  N   UNK N   1      36.997  14.422  10.644  0.00  0.00    -0.397 N 
HETATM   10  H   UNK N   1      36.997  15.186  11.265  0.00  0.00     0.158 HD
BRANCH   9  11
HETATM   11  C   UNK N   1      37.778  13.273  11.003  0.00  0.00     0.119 C 
BRANCH  11  12
HETATM   12  C   UNK N   1      36.987  12.395  11.957  0.00  0.00     0.030 C 
BRANCH  12  13
HETATM   13  C   UNK N   1      36.674  13.121  13.263  0.00  0.00     0.111 C 
BRANCH  13  14
HETATM   14  C   UNK N   1      35.207  13.362  13.439  0.00  0.00     0.139 C 
HETATM   15  O   UNK N   1      34.699  13.246  14.542  0.00  0.00    -0.650 OA
BRANCH  14  16
HETATM   16  O   UNK N   1      34.446  13.707  12.383  0.00  0.00    -0.776 OA
HETATM   17  H   UNK N   1      34.171  13.092  11.731  0.00  0.00     0.167 HD
ENDBRANCH  14  16
ENDBRANCH  13  14
ENDBRANCH  12  13
ENDBRANCH  11  12
ENDBRANCH   9  11
ENDBRANCH   1   9
BRANCH   3  18
HETATM   18  C   UNK N   1      33.032  16.922   6.774  0.00  0.00     0.015 A 
HETATM   19  C   UNK N   1      31.637  16.830   6.860  0.00  0.00     0.016 A 
HETATM   20  C   UNK N   1      30.844  17.139   5.752  0.00  0.00     0.001 A 
HETATM   21  C   UNK N   1      31.443  17.538   4.554  0.00  0.00     0.000 A 
HETATM   22  C   UNK N   1      32.833  17.634   4.464  0.00  0.00     0.001 A 
HETATM   23  C   UNK N   1      33.628  17.325   5.571  0.00  0.00     0.016 A 
ENDBRANCH   3  18
TORSDOF 7
ENDMDL
MODEL 9
REMARK VINA RESULT:      -6.3      3.687      5.526
REMARK  7 active torsions:
REMARK  status: ('A' for Active; 'I' for Inactive)
REMARK    1  A    between atoms: C_7  and  C_4 
REMARK    2  A    between atoms: C_8  and  C_4 
REMARK    3  A    between atoms: C_12  and  C_7 
REMARK    4  A    between atoms: N_15  and  C_8 
REMARK    5  A    between atoms: C_9  and  N_15 
REMARK    6  A    between atoms: C_13  and  C_10 
REMARK    7  A    between atoms: O_19  and  C_12 
ROOT
HETATM    1  C   UNK N   1      36.029  12.197  12.449  0.00  0.00     0.119 C 
HETATM    2  C   UNK N   1      36.063  12.701  13.701  0.00  0.00     0.126 A 
HETATM    3  C   UNK N   1      35.871  12.669  15.866  0.00  0.00     0.162 A 
HETATM    4  C   UNK N   1      36.302  14.034  14.240  0.00  0.00     0.318 A 
HETATM    5  N   UNK N   1      35.797  11.905  14.824  0.00  0.00    -0.330 N 
ATOM      6  HN  UNK N   1      35.582  10.908  14.821  1.00  0.00     0.168 HD
HETATM    7  O   UNK N   1      36.513  15.072  13.644  0.00  0.00    -0.257 OA
HETATM    8  O   UNK N   1      36.182  13.960  15.575  0.00  0.00    -0.255 OA
ENDROOT
BRANCH   1   9
HETATM    9  N   UNK N   1      36.281  12.894  11.231  0.00  0.00    -0.397 N 
HETATM   10  H   UNK N   1      37.150  13.344  11.132  0.00  0.00     0.158 HD
BRANCH   9  11
HETATM   11  C   UNK N   1      35.355  12.986  10.139  0.00  0.00     0.119 C 
BRANCH  11  12
HETATM   12  C   UNK N   1      35.751  14.136   9.229  0.00  0.00     0.030 C 
BRANCH  12  13
HETATM   13  C   UNK N   1      34.967  15.405   9.550  0.00  0.00     0.111 C 
BRANCH  13  14
HETATM   14  C   UNK N   1      35.723  16.322  10.461  0.00  0.00     0.139 C 
HETATM   15  O   UNK N   1      35.236  17.391  10.789  0.00  0.00    -0.650 OA
BRANCH  14  16
HETATM   16  O   UNK N   1      36.940  15.971  10.917  0.00  0.00    -0.776 OA
HETATM   17  H   UNK N   1      37.082  15.636  11.781  0.00  0.00     0.167 HD
ENDBRANCH  14  16
ENDBRANCH  13  14
ENDBRANCH  12  13
ENDBRANCH  11  12
ENDBRANCH   9  11
ENDBRANCH   1   9
BRANCH   3  18
HETATM   18  C   UNK N   1      35.597  12.199  17.231  0.00  0.00     0.015 A 
HETATM   19  C   UNK N   1      35.304  13.109  18.255  0.00  0.00     0.016 A 
HETATM   20  C   UNK N   1      35.092  12.654  19.559  0.00  0.00     0.001 A 
HETATM   21  C   UNK N   1      35.176  11.288  19.845  0.00  0.00     0.000 A 
HETATM   22  C   UNK N   1      35.465  10.376  18.827  0.00  0.00     0.001 A 
HETATM   23  C   UNK N   1      35.678  10.831  17.522  0.00  0.00     0.016 A 
ENDBRANCH   3  18
TORSDOF 7
ENDMDL
