MODEL 1
REMARK VINA RESULT:      -7.2      0.000      0.000
REMARK  6 active torsions:
REMARK  status: ('A' for Active; 'I' for Inactive)
REMARK    1  A    between atoms: N_23  and  C_14 
REMARK    2  A    between atoms: C_19  and  C_16 
REMARK    3  A    between atoms: C_17  and  C_21 
REMARK    4  A    between atoms: N_23  and  C_18 
REMARK    5  A    between atoms: C_22  and  C_20 
REMARK       I    between atoms: N_23  and  C_21 
REMARK    6  A    between atoms: O_25  and  C_22 
ROOT
HETATM    1  C   UNK N   1      35.363  12.652  13.804  0.00  0.00     0.051 A 
HETATM    2  C   UNK N   1      35.082  12.197  12.480  0.00  0.00     0.062 A 
HETATM    3  C   UNK N   1      34.832  11.883  14.821  0.00  0.00     0.018 A 
HETATM    4  C   UNK N   1      34.276  11.000  12.496  0.00  0.00     0.106 A 
HETATM    5  S   UNK N   1      34.007  10.648  14.109  0.00  0.00    -0.081 SA
ENDROOT
BRANCH   2   6
HETATM    6  N   UNK N   1      35.557  12.983  11.340  0.00  0.00    -0.312 N 
HETATM    7  C   UNK N   1      34.848  14.117  10.939  0.00  0.00     0.229 C 
HETATM    8  O   UNK N   1      33.955  14.556  11.649  0.00  0.00    -0.273 OA
BRANCH   6   9
HETATM    9  C   UNK N   1      36.707  12.565  10.567  0.00  0.00     0.085 C 
HETATM   10  C   UNK N   1      36.478  11.445   9.564  0.00  0.00     0.032 C 
HETATM   11  C   UNK N   1      38.045  12.669  11.285  0.00  0.00     0.032 C 
ENDBRANCH   6   9
BRANCH   7  12
HETATM   12  C   UNK N   1      35.081  14.904   9.646  0.00  0.00     0.078 C 
HETATM   13  C   UNK N   1      34.220  14.291   8.526  0.00  0.00     0.014 C 
HETATM   14  C   UNK N   1      34.230  15.200   7.308  0.00  0.00     0.005 C 
HETATM   15  C   UNK N   1      33.479  16.494   7.635  0.00  0.00    -0.019 C 
HETATM   16  C   UNK N   1      33.888  17.565   6.648  0.00  0.00     0.010 C 
HETATM   17  C   UNK N   1      33.719  16.985   9.072  0.00  0.00     0.005 C 
HETATM   18  C   UNK N   1      35.023  16.448   9.663  0.00  0.00     0.014 C 
ENDBRANCH   7  12
ENDBRANCH   2   6
BRANCH   4  19
HETATM   19  C   UNK N   1      33.725  10.094  11.452  0.00  0.00     0.185 C 
HETATM   20  O   UNK N   1      33.924   8.898  11.465  0.00  0.00    -0.646 OA
BRANCH  19  21
HETATM   21  O   UNK N   1      32.935  10.606  10.487  0.00  0.00    -0.772 OA
HETATM   22  H   UNK N   1      32.289  10.069  10.073  0.00  0.00     0.167 HD
ENDBRANCH  19  21
ENDBRANCH   4  19
BRANCH   3  23
HETATM   23  C   UNK N   1      35.020  12.163  16.252  0.00  0.00    -0.019 A 
HETATM   24  C   UNK N   1      34.989  13.472  16.746  0.00  0.00     0.013 A 
HETATM   25  C   UNK N   1      35.154  13.707  18.115  0.00  0.00     0.001 A 
HETATM   26  C   UNK N   1      35.349  12.637  18.995  0.00  0.00     0.000 A 
HETATM   27  C   UNK N   1      35.382  11.329  18.507  0.00  0.00     0.001 A 
HETATM   28  C   UNK N   1      35.218  11.093  17.142  0.00  0.00     0.013 A 
ENDBRANCH   3  23
TORSDOF 6
ENDMDL
MODEL 2
REMARK VINA RESULT:      -7.1     13.057     15.067
REMARK  6 active torsions:
REMARK  status: ('A' for Active; 'I' for Inactive)
REMARK    1  A    between atoms: N_23  and  C_14 
REMARK    2  A    between atoms: C_19  and  C_16 
REMARK    3  A    between atoms: C_17  and  C_21 
REMARK    4  A    between atoms: N_23  and  C_18 
REMARK    5  A    between atoms: C_22  and  C_20 
REMARK       I    between atoms: N_23  and  C_21 
REMARK    6  A    between atoms: O_25  and  C_22 
ROOT
HETATM    1  C   UNK N   1      22.188  14.438   7.520  0.00  0.00     0.051 A 
HETATM    2  C   UNK N   1      21.212  15.181   6.787  0.00  0.00     0.062 A 
HETATM    3  C   UNK N   1      21.836  14.112   8.815  0.00  0.00     0.018 A 
HETATM    4  C   UNK N   1      20.039  15.440   7.588  0.00  0.00     0.106 A 
HETATM    5  S   UNK N   1      20.334  14.737   9.076  0.00  0.00    -0.081 SA
ENDROOT
BRANCH   2   6
HETATM    6  N   UNK N   1      21.525  15.620   5.427  0.00  0.00    -0.312 N 
HETATM    7  C   UNK N   1      21.601  16.985   5.140  0.00  0.00     0.229 C 
HETATM    8  O   UNK N   1      21.599  17.796   6.054  0.00  0.00    -0.273 OA
BRANCH   6   9
HETATM    9  C   UNK N   1      21.681  14.668   4.348  0.00  0.00     0.085 C 
HETATM   10  C   UNK N   1      20.550  13.669   4.157  0.00  0.00     0.032 C 
HETATM   11  C   UNK N   1      23.114  14.246   4.056  0.00  0.00     0.032 C 
ENDBRANCH   6   9
BRANCH   7  12
HETATM   12  C   UNK N   1      21.691  17.600   3.740  0.00  0.00     0.078 C 
HETATM   13  C   UNK N   1      20.311  17.506   3.063  0.00  0.00     0.014 C 
HETATM   14  C   UNK N   1      20.302  18.332   1.789  0.00  0.00     0.005 C 
HETATM   15  C   UNK N   1      20.397  19.818   2.147  0.00  0.00    -0.019 C 
HETATM   16  C   UNK N   1      20.869  20.589   0.933  0.00  0.00     0.010 C 
HETATM   17  C   UNK N   1      21.327  20.093   3.339  0.00  0.00     0.005 C 
HETATM   18  C   UNK N   1      22.356  18.982   3.547  0.00  0.00     0.014 C 
ENDBRANCH   7  12
ENDBRANCH   2   6
BRANCH   4  19
HETATM   19  C   UNK N   1      18.736  16.116   7.347  0.00  0.00     0.185 C 
HETATM   20  O   UNK N   1      18.158  16.732   8.216  0.00  0.00    -0.646 OA
BRANCH  19  21
HETATM   21  O   UNK N   1      18.201  16.091   6.110  0.00  0.00    -0.772 OA
HETATM   22  H   UNK N   1      17.941  15.277   5.726  0.00  0.00     0.167 HD
ENDBRANCH  19  21
ENDBRANCH   4  19
BRANCH   3  23
HETATM   23  C   UNK N   1      22.683  13.334   9.729  0.00  0.00    -0.019 A 
HETATM   24  C   UNK N   1      24.064  13.224   9.523  0.00  0.00     0.013 A 
HETATM   25  C   UNK N   1      24.849  12.492  10.420  0.00  0.00     0.001 A 
HETATM   26  C   UNK N   1      24.260  11.868  11.525  0.00  0.00     0.000 A 
HETATM   27  C   UNK N   1      22.883  11.974  11.734  0.00  0.00     0.001 A 
HETATM   28  C   UNK N   1      22.099  12.704  10.841  0.00  0.00     0.013 A 
ENDBRANCH   3  23
TORSDOF 6
ENDMDL
MODEL 3
REMARK VINA RESULT:      -7.0      3.110      4.861
REMARK  6 active torsions:
REMARK  status: ('A' for Active; 'I' for Inactive)
REMARK    1  A    between atoms: N_23  and  C_14 
REMARK    2  A    between atoms: C_19  and  C_16 
REMARK    3  A    between atoms: C_17  and  C_21 
REMARK    4  A    between atoms: N_23  and  C_18 
REMARK    5  A    between atoms: C_22  and  C_20 
REMARK       I    between atoms: N_23  and  C_21 
REMARK    6  A    between atoms: O_25  and  C_22 
ROOT
HETATM    1  C   UNK N   1      34.376  14.924  10.706  0.00  0.00     0.051 A 
HETATM    2  C   UNK N   1      33.912  14.824   9.359  0.00  0.00     0.062 A 
HETATM    3  C   UNK N   1      34.817  13.744  11.271  0.00  0.00     0.018 A 
HETATM    4  C   UNK N   1      34.004  13.468   8.872  0.00  0.00     0.106 A 
HETATM    5  S   UNK N   1      34.634  12.568  10.133  0.00  0.00    -0.081 SA
ENDROOT
BRANCH   2   6
HETATM    6  N   UNK N   1      33.371  16.014   8.701  0.00  0.00    -0.312 N 
HETATM    7  C   UNK N   1      32.020  16.333   8.849  0.00  0.00     0.229 C 
HETATM    8  O   UNK N   1      31.343  15.735   9.673  0.00  0.00    -0.273 OA
BRANCH   6   9
HETATM    9  C   UNK N   1      34.193  16.830   7.833  0.00  0.00     0.085 C 
HETATM   10  C   UNK N   1      34.430  18.265   8.276  0.00  0.00     0.032 C 
HETATM   11  C   UNK N   1      34.088  16.509   6.349  0.00  0.00     0.032 C 
ENDBRANCH   6   9
BRANCH   7  12
HETATM   12  C   UNK N   1      31.262  17.399   8.052  0.00  0.00     0.078 C 
HETATM   13  C   UNK N   1      30.325  16.701   7.049  0.00  0.00     0.014 C 
HETATM   14  C   UNK N   1      29.379  17.716   6.431  0.00  0.00     0.005 C 
HETATM   15  C   UNK N   1      28.405  18.219   7.501  0.00  0.00    -0.019 C 
HETATM   16  C   UNK N   1      27.808  19.533   7.047  0.00  0.00     0.010 C 
HETATM   17  C   UNK N   1      29.060  18.388   8.881  0.00  0.00     0.005 C 
HETATM   18  C   UNK N   1      30.575  18.570   8.790  0.00  0.00     0.014 C 
ENDBRANCH   7  12
ENDBRANCH   2   6
BRANCH   4  19
HETATM   19  C   UNK N   1      33.706  12.799   7.577  0.00  0.00     0.185 C 
HETATM   20  O   UNK N   1      34.421  11.934   7.118  0.00  0.00    -0.646 OA
BRANCH  19  21
HETATM   21  O   UNK N   1      32.578  13.122   6.914  0.00  0.00    -0.772 OA
HETATM   22  H   UNK N   1      32.061  12.454   6.509  0.00  0.00     0.167 HD
ENDBRANCH  19  21
ENDBRANCH   4  19
BRANCH   3  23
HETATM   23  C   UNK N   1      35.354  13.632  12.635  0.00  0.00    -0.019 A 
HETATM   24  C   UNK N   1      36.193  14.618  13.168  0.00  0.00     0.013 A 
HETATM   25  C   UNK N   1      36.675  14.494  14.476  0.00  0.00     0.001 A 
HETATM   26  C   UNK N   1      36.322  13.387  15.254  0.00  0.00     0.000 A 
HETATM   27  C   UNK N   1      35.487  12.399  14.726  0.00  0.00     0.001 A 
HETATM   28  C   UNK N   1      35.005  12.522  13.423  0.00  0.00     0.013 A 
ENDBRANCH   3  23
TORSDOF 6
ENDMDL
MODEL 4
REMARK VINA RESULT:      -6.9      3.868      6.587
REMARK  6 active torsions:
REMARK  status: ('A' for Active; 'I' for Inactive)
REMARK    1  A    between atoms: N_23  and  C_14 
REMARK    2  A    between atoms: C_19  and  C_16 
REMARK    3  A    between atoms: C_17  and  C_21 
REMARK    4  A    between atoms: N_23  and  C_18 
REMARK    5  A    between atoms: C_22  and  C_20 
REMARK       I    between atoms: N_23  and  C_21 
REMARK    6  A    between atoms: O_25  and  C_22 
ROOT
HETATM    1  C   UNK N   1      33.397  15.179  10.100  0.00  0.00     0.051 A 
HETATM    2  C   UNK N   1      33.172  16.189   9.115  0.00  0.00     0.062 A 
HETATM    3  C   UNK N   1      34.640  15.202  10.700  0.00  0.00     0.018 A 
HETATM    4  C   UNK N   1      34.332  17.034   8.956  0.00  0.00     0.106 A 
HETATM    5  S   UNK N   1      35.477  16.450  10.026  0.00  0.00    -0.081 SA
ENDROOT
BRANCH   2   6
HETATM    6  N   UNK N   1      31.903  16.204   8.387  0.00  0.00    -0.312 N 
HETATM    7  C   UNK N   1      31.799  15.536   7.165  0.00  0.00     0.229 C 
HETATM    8  O   UNK N   1      32.697  14.789   6.805  0.00  0.00    -0.273 OA
BRANCH   6   9
HETATM    9  C   UNK N   1      30.770  16.964   8.869  0.00  0.00     0.085 C 
HETATM   10  C   UNK N   1      30.879  18.478   8.771  0.00  0.00     0.032 C 
HETATM   11  C   UNK N   1      30.015  16.339  10.033  0.00  0.00     0.032 C 
ENDBRANCH   6   9
BRANCH   7  12
HETATM   12  C   UNK N   1      30.628  15.646   6.184  0.00  0.00     0.078 C 
HETATM   13  C   UNK N   1      30.852  16.867   5.272  0.00  0.00     0.014 C 
HETATM   14  C   UNK N   1      29.850  16.852   4.131  0.00  0.00     0.005 C 
HETATM   15  C   UNK N   1      30.161  15.678   3.197  0.00  0.00    -0.019 C 
HETATM   16  C   UNK N   1      28.933  15.366   2.370  0.00  0.00     0.010 C 
HETATM   17  C   UNK N   1      30.624  14.418   3.947  0.00  0.00     0.005 C 
HETATM   18  C   UNK N   1      30.157  14.399   5.402  0.00  0.00     0.014 C 
ENDBRANCH   7  12
ENDBRANCH   2   6
BRANCH   4  19
HETATM   19  C   UNK N   1      34.651  18.227   8.127  0.00  0.00     0.185 C 
HETATM   20  O   UNK N   1      35.237  19.188   8.577  0.00  0.00    -0.646 OA
BRANCH  19  21
HETATM   21  O   UNK N   1      34.329  18.224   6.818  0.00  0.00    -0.772 OA
HETATM   22  H   UNK N   1      34.768  18.799   6.223  0.00  0.00     0.167 HD
ENDBRANCH  19  21
ENDBRANCH   4  19
BRANCH   3  23
HETATM   23  C   UNK N   1      35.067  14.267  11.752  0.00  0.00    -0.019 A 
HETATM   24  C   UNK N   1      35.803  14.706  12.858  0.00  0.00     0.013 A 
HETATM   25  C   UNK N   1      36.180  13.798  13.853  0.00  0.00     0.001 A 
HETATM   26  C   UNK N   1      35.823  12.450  13.747  0.00  0.00     0.000 A 
HETATM   27  C   UNK N   1      35.090  12.006  12.644  0.00  0.00     0.001 A 
HETATM   28  C   UNK N   1      34.713  12.911  11.652  0.00  0.00     0.013 A 
ENDBRANCH   3  23
TORSDOF 6
ENDMDL
MODEL 5
REMARK VINA RESULT:      -6.9     12.566     15.897
REMARK  6 active torsions:
REMARK  status: ('A' for Active; 'I' for Inactive)
REMARK    1  A    between atoms: N_23  and  C_14 
REMARK    2  A    between atoms: C_19  and  C_16 
REMARK    3  A    between atoms: C_17  and  C_21 
REMARK    4  A    between atoms: N_23  and  C_18 
REMARK    5  A    between atoms: C_22  and  C_20 
REMARK       I    between atoms: N_23  and  C_21 
REMARK    6  A    between atoms: O_25  and  C_22 
ROOT
HETATM    1  C   UNK N   1      23.368  16.932   4.700  0.00  0.00     0.051 A 
HETATM    2  C   UNK N   1      22.088  16.308   4.821  0.00  0.00     0.062 A 
HETATM    3  C   UNK N   1      23.374  18.152   4.051  0.00  0.00     0.018 A 
HETATM    4  C   UNK N   1      21.053  17.111   4.214  0.00  0.00     0.106 A 
HETATM    5  S   UNK N   1      21.819  18.471   3.612  0.00  0.00    -0.081 SA
ENDROOT
BRANCH   2   6
HETATM    6  N   UNK N   1      21.996  14.987   5.442  0.00  0.00    -0.312 N 
HETATM    7  C   UNK N   1      21.933  14.879   6.833  0.00  0.00     0.229 C 
HETATM    8  O   UNK N   1      21.761  15.882   7.510  0.00  0.00    -0.273 OA
BRANCH   6   9
HETATM    9  C   UNK N   1      22.048  13.778   4.648  0.00  0.00     0.085 C 
HETATM   10  C   UNK N   1      23.401  13.413   4.057  0.00  0.00     0.032 C 
HETATM   11  C   UNK N   1      20.778  13.454   3.874  0.00  0.00     0.032 C 
ENDBRANCH   6   9
BRANCH   7  12
HETATM   12  C   UNK N   1      22.063  13.581   7.635  0.00  0.00     0.078 C 
HETATM   13  C   UNK N   1      23.533  13.396   8.053  0.00  0.00     0.014 C 
HETATM   14  C   UNK N   1      23.647  12.265   9.061  0.00  0.00     0.005 C 
HETATM   15  C   UNK N   1      22.977  12.684  10.373  0.00  0.00    -0.019 C 
HETATM   16  C   UNK N   1      22.658  11.446  11.182  0.00  0.00     0.010 C 
HETATM   17  C   UNK N   1      21.703  13.516  10.161  0.00  0.00     0.005 C 
HETATM   18  C   UNK N   1      21.075  13.284   8.786  0.00  0.00     0.014 C 
ENDBRANCH   7  12
ENDBRANCH   2   6
BRANCH   4  19
HETATM   19  C   UNK N   1      19.578  16.983   4.072  0.00  0.00     0.185 C 
HETATM   20  O   UNK N   1      18.911  16.315   4.833  0.00  0.00    -0.646 OA
BRANCH  19  21
HETATM   21  O   UNK N   1      18.949  17.673   3.100  0.00  0.00    -0.772 OA
HETATM   22  H   UNK N   1      18.107  18.050   3.259  0.00  0.00     0.167 HD
ENDBRANCH  19  21
ENDBRANCH   4  19
BRANCH   3  23
HETATM   23  C   UNK N   1      24.578  18.968   3.841  0.00  0.00    -0.019 A 
HETATM   24  C   UNK N   1      24.586  20.027   2.925  0.00  0.00     0.013 A 
HETATM   25  C   UNK N   1      25.741  20.799   2.759  0.00  0.00     0.001 A 
HETATM   26  C   UNK N   1      26.890  20.518   3.506  0.00  0.00     0.000 A 
HETATM   27  C   UNK N   1      26.887  19.462   4.420  0.00  0.00     0.001 A 
HETATM   28  C   UNK N   1      25.736  18.691   4.587  0.00  0.00     0.013 A 
ENDBRANCH   3  23
TORSDOF 6
ENDMDL
MODEL 6
REMARK VINA RESULT:      -6.8      3.737      6.106
REMARK  6 active torsions:
REMARK  status: ('A' for Active; 'I' for Inactive)
REMARK    1  A    between atoms: N_23  and  C_14 
REMARK    2  A    between atoms: C_19  and  C_16 
REMARK    3  A    between atoms: C_17  and  C_21 
REMARK    4  A    between atoms: N_23  and  C_18 
REMARK    5  A    between atoms: C_22  and  C_20 
REMARK       I    between atoms: N_23  and  C_21 
REMARK    6  A    between atoms: O_25  and  C_22 
ROOT
HETATM    1  C   UNK N   1      34.133  14.786   9.776  0.00  0.00     0.051 A 
HETATM    2  C   UNK N   1      33.949  15.746   8.733  0.00  0.00     0.062 A 
HETATM    3  C   UNK N   1      34.935  15.194  10.823  0.00  0.00     0.018 A 
HETATM    4  C   UNK N   1      34.668  16.966   9.010  0.00  0.00     0.106 A 
HETATM    5  S   UNK N   1      35.433  16.726  10.479  0.00  0.00    -0.081 SA
ENDROOT
BRANCH   2   6
HETATM    6  N   UNK N   1      33.161  15.377   7.557  0.00  0.00    -0.312 N 
HETATM    7  C   UNK N   1      31.928  15.992   7.329  0.00  0.00     0.229 C 
HETATM    8  O   UNK N   1      31.602  16.962   7.998  0.00  0.00    -0.273 OA
BRANCH   6   9
HETATM    9  C   UNK N   1      33.597  14.328   6.660  0.00  0.00     0.085 C 
HETATM   10  C   UNK N   1      33.223  12.906   7.047  0.00  0.00     0.032 C 
HETATM   11  C   UNK N   1      34.916  14.590   5.946  0.00  0.00     0.032 C 
ENDBRANCH   6   9
BRANCH   7  12
HETATM   12  C   UNK N   1      30.894  15.560   6.285  0.00  0.00     0.078 C 
HETATM   13  C   UNK N   1      29.553  16.252   6.593  0.00  0.00     0.014 C 
HETATM   14  C   UNK N   1      28.588  16.050   5.437  0.00  0.00     0.005 C 
HETATM   15  C   UNK N   1      29.091  16.825   4.215  0.00  0.00    -0.019 C 
HETATM   16  C   UNK N   1      28.441  16.260   2.970  0.00  0.00     0.010 C 
HETATM   17  C   UNK N   1      30.621  16.794   4.068  0.00  0.00     0.005 C 
HETATM   18  C   UNK N   1      31.253  15.599   4.783  0.00  0.00     0.014 C 
ENDBRANCH   7  12
ENDBRANCH   2   6
BRANCH   4  19
HETATM   19  C   UNK N   1      34.812  18.276   8.320  0.00  0.00     0.185 C 
HETATM   20  O   UNK N   1      35.411  19.205   8.817  0.00  0.00    -0.646 OA
BRANCH  19  21
HETATM   21  O   UNK N   1      34.308  18.424   7.079  0.00  0.00    -0.772 OA
HETATM   22  H   UNK N   1      34.421  17.747   6.441  0.00  0.00     0.167 HD
ENDBRANCH  19  21
ENDBRANCH   4  19
BRANCH   3  23
HETATM   23  C   UNK N   1      35.234  14.371  12.003  0.00  0.00    -0.019 A 
HETATM   24  C   UNK N   1      34.712  13.079  12.138  0.00  0.00     0.013 A 
HETATM   25  C   UNK N   1      35.028  12.311  13.264  0.00  0.00     0.001 A 
HETATM   26  C   UNK N   1      35.865  12.829  14.257  0.00  0.00     0.000 A 
HETATM   27  C   UNK N   1      36.387  14.118  14.128  0.00  0.00     0.001 A 
HETATM   28  C   UNK N   1      36.073  14.885  13.006  0.00  0.00     0.013 A 
ENDBRANCH   3  23
TORSDOF 6
ENDMDL
MODEL 7
REMARK VINA RESULT:      -6.8      3.460      8.677
REMARK  6 active torsions:
REMARK  status: ('A' for Active; 'I' for Inactive)
REMARK    1  A    between atoms: N_23  and  C_14 
REMARK    2  A    between atoms: C_19  and  C_16 
REMARK    3  A    between atoms: C_17  and  C_21 
REMARK    4  A    between atoms: N_23  and  C_18 
REMARK    5  A    between atoms: C_22  and  C_20 
REMARK       I    between atoms: N_23  and  C_21 
REMARK    6  A    between atoms: O_25  and  C_22 
ROOT
HETATM    1  C   UNK N   1      32.270  15.361   8.019  0.00  0.00     0.051 A 
HETATM    2  C   UNK N   1      33.531  15.663   8.617  0.00  0.00     0.062 A 
HETATM    3  C   UNK N   1      31.552  16.450   7.564  0.00  0.00     0.018 A 
HETATM    4  C   UNK N   1      33.784  17.084   8.619  0.00  0.00     0.106 A 
HETATM    5  S   UNK N   1      32.449  17.790   7.898  0.00  0.00    -0.081 SA
ENDROOT
BRANCH   2   6
HETATM    6  N   UNK N   1      34.333  14.576   9.178  0.00  0.00    -0.312 N 
HETATM    7  C   UNK N   1      34.449  14.446  10.564  0.00  0.00     0.229 C 
HETATM    8  O   UNK N   1      33.735  15.115  11.296  0.00  0.00    -0.273 OA
BRANCH   6   9
HETATM    9  C   UNK N   1      35.075  13.672   8.325  0.00  0.00     0.085 C 
HETATM   10  C   UNK N   1      36.051  14.311   7.349  0.00  0.00     0.032 C 
HETATM   11  C   UNK N   1      34.338  12.401   7.928  0.00  0.00     0.032 C 
ENDBRANCH   6   9
BRANCH   7  12
HETATM   12  C   UNK N   1      35.421  13.515  11.295  0.00  0.00     0.078 C 
HETATM   13  C   UNK N   1      36.032  14.269  12.490  0.00  0.00     0.014 C 
HETATM   14  C   UNK N   1      36.794  13.301  13.379  0.00  0.00     0.005 C 
HETATM   15  C   UNK N   1      35.804  12.348  14.057  0.00  0.00    -0.019 C 
HETATM   16  C   UNK N   1      36.549  11.119  14.533  0.00  0.00     0.010 C 
HETATM   17  C   UNK N   1      34.641  11.935  13.141  0.00  0.00     0.005 C 
HETATM   18  C   UNK N   1      34.985  12.078  11.659  0.00  0.00     0.014 C 
ENDBRANCH   7  12
ENDBRANCH   2   6
BRANCH   4  19
HETATM   19  C   UNK N   1      34.911  17.947   9.065  0.00  0.00     0.185 C 
HETATM   20  O   UNK N   1      35.207  18.972   8.489  0.00  0.00    -0.646 OA
BRANCH  19  21
HETATM   21  O   UNK N   1      35.595  17.611  10.177  0.00  0.00    -0.772 OA
HETATM   22  H   UNK N   1      36.229  18.200  10.536  0.00  0.00     0.167 HD
ENDBRANCH  19  21
ENDBRANCH   4  19
BRANCH   3  23
HETATM   23  C   UNK N   1      30.244  16.357   6.900  0.00  0.00    -0.019 A 
HETATM   24  C   UNK N   1      29.180  17.187   7.273  0.00  0.00     0.013 A 
HETATM   25  C   UNK N   1      27.951  17.089   6.611  0.00  0.00     0.001 A 
HETATM   26  C   UNK N   1      27.782  16.165   5.575  0.00  0.00     0.000 A 
HETATM   27  C   UNK N   1      28.840  15.334   5.200  0.00  0.00     0.001 A 
HETATM   28  C   UNK N   1      30.065  15.430   5.859  0.00  0.00     0.013 A 
ENDBRANCH   3  23
TORSDOF 6
ENDMDL
MODEL 8
REMARK VINA RESULT:      -6.7      2.382      7.911
REMARK  6 active torsions:
REMARK  status: ('A' for Active; 'I' for Inactive)
REMARK    1  A    between atoms: N_23  and  C_14 
REMARK    2  A    between atoms: C_19  and  C_16 
REMARK    3  A    between atoms: C_17  and  C_21 
REMARK    4  A    between atoms: N_23  and  C_18 
REMARK    5  A    between atoms: C_22  and  C_20 
REMARK       I    between atoms: N_23  and  C_21 
REMARK    6  A    between atoms: O_25  and  C_22 
ROOT
HETATM    1  C   UNK N   1      33.844  13.725   9.797  0.00  0.00     0.051 A 
HETATM    2  C   UNK N   1      35.051  13.243  10.390  0.00  0.00     0.062 A 
HETATM    3  C   UNK N   1      33.998  14.761   8.897  0.00  0.00     0.018 A 
HETATM    4  C   UNK N   1      36.200  13.971   9.907  0.00  0.00     0.106 A 
HETATM    5  S   UNK N   1      35.608  15.103   8.827  0.00  0.00    -0.081 SA
ENDROOT
BRANCH   2   6
HETATM    6  N   UNK N   1      34.977  12.186  11.398  0.00  0.00    -0.312 N 
HETATM    7  C   UNK N   1      34.960  12.522  12.754  0.00  0.00     0.229 C 
HETATM    8  O   UNK N   1      34.814  13.689  13.086  0.00  0.00    -0.273 OA
BRANCH   6   9
HETATM    9  C   UNK N   1      35.000  10.788  11.023  0.00  0.00     0.085 C 
HETATM   10  C   UNK N   1      36.186  10.329  10.190  0.00  0.00     0.032 C 
HETATM   11  C   UNK N   1      33.634  10.153  10.801  0.00  0.00     0.032 C 
ENDBRANCH   6   9
BRANCH   7  12
HETATM   12  C   UNK N   1      35.114  11.540  13.919  0.00  0.00     0.078 C 
HETATM   13  C   UNK N   1      36.591  11.505  14.352  0.00  0.00     0.014 C 
HETATM   14  C   UNK N   1      36.730  10.746  15.661  0.00  0.00     0.005 C 
HETATM   15  C   UNK N   1      36.071  11.550  16.787  0.00  0.00    -0.019 C 
HETATM   16  C   UNK N   1      35.775  10.624  17.947  0.00  0.00     0.010 C 
HETATM   17  C   UNK N   1      34.785  12.266  16.344  0.00  0.00     0.005 C 
HETATM   18  C   UNK N   1      34.143  11.612  15.120  0.00  0.00     0.014 C 
ENDBRANCH   7  12
ENDBRANCH   2   6
BRANCH   4  19
HETATM   19  C   UNK N   1      37.667  13.887  10.141  0.00  0.00     0.185 C 
HETATM   20  O   UNK N   1      38.474  14.303   9.338  0.00  0.00    -0.646 OA
BRANCH  19  21
HETATM   21  O   UNK N   1      38.119  13.382  11.306  0.00  0.00    -0.772 OA
HETATM   22  H   UNK N   1      39.037  13.380  11.495  0.00  0.00     0.167 HD
ENDBRANCH  19  21
ENDBRANCH   4  19
BRANCH   3  23
HETATM   23  C   UNK N   1      32.890  15.386   8.161  0.00  0.00    -0.019 A 
HETATM   24  C   UNK N   1      32.516  16.714   8.401  0.00  0.00     0.013 A 
HETATM   25  C   UNK N   1      31.469  17.289   7.672  0.00  0.00     0.001 A 
HETATM   26  C   UNK N   1      30.792  16.540   6.703  0.00  0.00     0.000 A 
HETATM   27  C   UNK N   1      31.160  15.215   6.462  0.00  0.00     0.001 A 
HETATM   28  C   UNK N   1      32.204  14.641   7.187  0.00  0.00     0.013 A 
ENDBRANCH   3  23
TORSDOF 6
ENDMDL
MODEL 9
REMARK VINA RESULT:      -6.7      9.179     12.552
REMARK  6 active torsions:
REMARK  status: ('A' for Active; 'I' for Inactive)
REMARK    1  A    between atoms: N_23  and  C_14 
REMARK    2  A    between atoms: C_19  and  C_16 
REMARK    3  A    between atoms: C_17  and  C_21 
REMARK    4  A    between atoms: N_23  and  C_18 
REMARK    5  A    between atoms: C_22  and  C_20 
REMARK       I    between atoms: N_23  and  C_21 
REMARK    6  A    between atoms: O_25  and  C_22 
ROOT
HETATM    1  C   UNK N   1      28.976  17.242   5.012  0.00  0.00     0.051 A 
HETATM    2  C   UNK N   1      27.962  17.630   5.939  0.00  0.00     0.062 A 
HETATM    3  C   UNK N   1      30.173  16.843   5.574  0.00  0.00     0.018 A 
HETATM    4  C   UNK N   1      28.427  17.522   7.302  0.00  0.00     0.106 A 
HETATM    5  S   UNK N   1      30.003  16.971   7.207  0.00  0.00    -0.081 SA
ENDROOT
BRANCH   2   6
HETATM    6  N   UNK N   1      26.681  18.123   5.430  0.00  0.00    -0.312 N 
HETATM    7  C   UNK N   1      25.610  17.240   5.282  0.00  0.00     0.229 C 
HETATM    8  O   UNK N   1      25.683  16.115   5.755  0.00  0.00    -0.273 OA
BRANCH   6   9
HETATM    9  C   UNK N   1      26.523  19.495   5.000  0.00  0.00     0.085 C 
HETATM   10  C   UNK N   1      26.969  19.817   3.582  0.00  0.00     0.032 C 
HETATM   11  C   UNK N   1      26.682  20.542   6.094  0.00  0.00     0.032 C 
ENDBRANCH   6   9
BRANCH   7  12
HETATM   12  C   UNK N   1      24.295  17.544   4.559  0.00  0.00     0.078 C 
HETATM   13  C   UNK N   1      23.825  16.277   3.821  0.00  0.00     0.014 C 
HETATM   14  C   UNK N   1      22.406  16.469   3.313  0.00  0.00     0.005 C 
HETATM   15  C   UNK N   1      21.445  16.537   4.505  0.00  0.00    -0.019 C 
HETATM   16  C   UNK N   1      20.156  17.195   4.064  0.00  0.00     0.010 C 
HETATM   17  C   UNK N   1      22.032  17.287   5.711  0.00  0.00     0.005 C 
HETATM   18  C   UNK N   1      23.147  18.254   5.312  0.00  0.00     0.014 C 
ENDBRANCH   7  12
ENDBRANCH   2   6
BRANCH   4  19
HETATM   19  C   UNK N   1      27.814  17.751   8.638  0.00  0.00     0.185 C 
HETATM   20  O   UNK N   1      27.529  16.838   9.383  0.00  0.00    -0.646 OA
BRANCH  19  21
HETATM   21  O   UNK N   1      27.617  19.015   9.063  0.00  0.00    -0.772 OA
HETATM   22  H   UNK N   1      28.345  19.544   9.323  0.00  0.00     0.167 HD
ENDBRANCH  19  21
ENDBRANCH   4  19
BRANCH   3  23
HETATM   23  C   UNK N   1      31.336  16.385   4.801  0.00  0.00    -0.019 A 
HETATM   24  C   UNK N   1      31.893  15.118   5.009  0.00  0.00     0.013 A 
HETATM   25  C   UNK N   1      32.989  14.701   4.246  0.00  0.00     0.001 A 
HETATM   26  C   UNK N   1      33.532  15.546   3.273  0.00  0.00     0.000 A 
HETATM   27  C   UNK N   1      32.981  16.812   3.062  0.00  0.00     0.001 A 
HETATM   28  C   UNK N   1      31.888  17.229   3.822  0.00  0.00     0.013 A 
ENDBRANCH   3  23
TORSDOF 6
ENDMDL
