MODEL 1
REMARK VINA RESULT:      -5.8      0.000      0.000
REMARK  13 active torsions:
REMARK  status: ('A' for Active; 'I' for Inactive)
REMARK    1  A    between atoms: C_3  and  C_2 
REMARK    2  A    between atoms: C_4  and  C_3 
REMARK    3  A    between atoms: C_5  and  C_4 
REMARK    4  A    between atoms: C_6  and  C_5 
REMARK    5  A    between atoms: C_9  and  C_6 
REMARK    6  A    between atoms: C_8  and  C_7 
REMARK    7  A    between atoms: C_11  and  C_8 
REMARK    8  A    between atoms: C_13  and  C_10 
REMARK    9  A    between atoms: C_14  and  C_11 
REMARK   10  A    between atoms: C_16  and  C_12 
REMARK   11  A    between atoms: C_17  and  C_13 
REMARK   12  A    between atoms: C_20  and  C_14 
REMARK   13  A    between atoms: O_26  and  C_20 
ROOT
HETATM    1  C   UNK N   1      27.018  23.166  -8.175  0.00  0.00     0.054 C 
HETATM    2  C   UNK N   1      25.795  25.148  -7.683  0.00  0.00     0.038 C 
HETATM    3  C   UNK N   1      26.477  24.563  -6.408  0.00  0.00     0.023 C 
HETATM    4  C   UNK N   1      25.747  23.898  -8.606  0.00  0.00     0.109 C 
HETATM    5  C   UNK N   1      26.539  23.054  -6.723  0.00  0.00     0.106 C 
HETATM    6  N   UNK N   1      24.775  23.020  -8.010  0.00  0.00    -0.335 N 
ATOM      7  HN  UNK N   1      23.860  22.803  -8.409  1.00  0.00     0.180 HD
HETATM    8  N   UNK N   1      25.207  22.568  -6.950  0.00  0.00    -0.335 N 
ATOM      9  HN  UNK N   1      24.695  21.945  -6.326  1.00  0.00     0.180 HD
ENDROOT
BRANCH   3  10
HETATM   10  C   UNK N   1      25.771  24.923  -5.100  0.00  0.00     0.034 C 
BRANCH  10  11
HETATM   11  C   UNK N   1      26.258  24.055  -3.973  0.00  0.00    -0.030 C 
HETATM   12  C   UNK N   1      27.458  24.209  -3.389  0.00  0.00    -0.031 C 
BRANCH  12  13
HETATM   13  C   UNK N   1      28.435  25.293  -3.762  0.00  0.00     0.027 C 
BRANCH  13  14
HETATM   14  C   UNK N   1      29.893  24.823  -3.724  0.00  0.00     0.014 C 
BRANCH  14  15
HETATM   15  C   UNK N   1      30.029  23.301  -3.686  0.00  0.00     0.110 C 
BRANCH  15  16
HETATM   16  C   UNK N   1      30.648  22.820  -2.415  0.00  0.00     0.139 C 
HETATM   17  O   UNK N   1      31.623  22.089  -2.454  0.00  0.00    -0.650 OA
BRANCH  16  18
HETATM   18  O   UNK N   1      30.117  23.167  -1.228  0.00  0.00    -0.776 OA
HETATM   19  H   UNK N   1      30.185  22.669  -0.437  0.00  0.00     0.167 HD
ENDBRANCH  16  18
ENDBRANCH  15  16
ENDBRANCH  14  15
ENDBRANCH  13  14
ENDBRANCH  12  13
ENDBRANCH  10  11
ENDBRANCH   3  10
BRANCH   2  20
HETATM   20  C   UNK N   1      26.551  26.376  -8.156  0.00  0.00    -0.024 C 
HETATM   21  C   UNK N   1      27.727  26.777  -7.650  0.00  0.00    -0.030 C 
BRANCH  21  22
HETATM   22  C   UNK N   1      28.371  28.027  -8.169  0.00  0.00     0.027 C 
BRANCH  22  23
HETATM   23  C   UNK N   1      28.514  29.082  -7.083  0.00  0.00     0.004 C 
BRANCH  23  24
HETATM   24  C   UNK N   1      28.791  28.470  -5.724  0.00  0.00     0.000 C 
BRANCH  24  25
HETATM   25  C   UNK N   1      27.863  29.115  -4.717  0.00  0.00    -0.000 C 
BRANCH  25  26
HETATM   26  C   UNK N   1      26.450  28.620  -4.925  0.00  0.00    -0.005 C 
HETATM   27  C   UNK N   1      25.861  28.219  -3.590  0.00  0.00     0.005 C 
ENDBRANCH  25  26
ENDBRANCH  24  25
ENDBRANCH  23  24
ENDBRANCH  22  23
ENDBRANCH  21  22
ENDBRANCH   2  20
TORSDOF 13
ENDMDL
MODEL 2
REMARK VINA RESULT:      -5.6      2.665      4.629
REMARK  13 active torsions:
REMARK  status: ('A' for Active; 'I' for Inactive)
REMARK    1  A    between atoms: C_3  and  C_2 
REMARK    2  A    between atoms: C_4  and  C_3 
REMARK    3  A    between atoms: C_5  and  C_4 
REMARK    4  A    between atoms: C_6  and  C_5 
REMARK    5  A    between atoms: C_9  and  C_6 
REMARK    6  A    between atoms: C_8  and  C_7 
REMARK    7  A    between atoms: C_11  and  C_8 
REMARK    8  A    between atoms: C_13  and  C_10 
REMARK    9  A    between atoms: C_14  and  C_11 
REMARK   10  A    between atoms: C_16  and  C_12 
REMARK   11  A    between atoms: C_17  and  C_13 
REMARK   12  A    between atoms: C_20  and  C_14 
REMARK   13  A    between atoms: O_26  and  C_20 
ROOT
HETATM    1  C   UNK N   1      25.758  27.756  -3.333  0.00  0.00     0.054 C 
HETATM    2  C   UNK N   1      26.926  28.497  -5.269  0.00  0.00     0.038 C 
HETATM    3  C   UNK N   1      27.874  27.764  -4.271  0.00  0.00     0.023 C 
HETATM    4  C   UNK N   1      25.757  28.912  -4.332  0.00  0.00     0.109 C 
HETATM    5  C   UNK N   1      27.204  28.037  -2.909  0.00  0.00     0.106 C 
HETATM    6  N   UNK N   1      26.296  29.939  -3.481  0.00  0.00    -0.335 N 
ATOM      7  HN  UNK N   1      26.034  30.925  -3.515  1.00  0.00     0.180 HD
HETATM    8  N   UNK N   1      27.120  29.455  -2.704  0.00  0.00    -0.335 N 
ATOM      9  HN  UNK N   1      27.661  29.982  -2.020  1.00  0.00     0.180 HD
ENDROOT
BRANCH   3  10
HETATM   10  C   UNK N   1      29.339  28.197  -4.371  0.00  0.00     0.034 C 
BRANCH  10  11
HETATM   11  C   UNK N   1      30.173  27.500  -3.332  0.00  0.00    -0.030 C 
HETATM   12  C   UNK N   1      30.684  26.269  -3.500  0.00  0.00    -0.031 C 
BRANCH  12  13
HETATM   13  C   UNK N   1      30.520  25.461  -4.761  0.00  0.00     0.027 C 
BRANCH  13  14
HETATM   14  C   UNK N   1      30.358  23.961  -4.495  0.00  0.00     0.014 C 
BRANCH  14  15
HETATM   15  C   UNK N   1      31.612  23.322  -3.899  0.00  0.00     0.110 C 
BRANCH  15  16
HETATM   16  C   UNK N   1      31.308  22.507  -2.684  0.00  0.00     0.139 C 
HETATM   17  O   UNK N   1      30.686  23.004  -1.760  0.00  0.00    -0.650 OA
BRANCH  16  18
HETATM   18  O   UNK N   1      31.742  21.236  -2.594  0.00  0.00    -0.776 OA
HETATM   19  H   UNK N   1      31.461  20.527  -3.139  0.00  0.00     0.167 HD
ENDBRANCH  16  18
ENDBRANCH  15  16
ENDBRANCH  14  15
ENDBRANCH  13  14
ENDBRANCH  12  13
ENDBRANCH  10  11
ENDBRANCH   3  10
BRANCH   2  20
HETATM   20  C   UNK N   1      26.626  27.595  -6.453  0.00  0.00    -0.024 C 
HETATM   21  C   UNK N   1      27.559  26.913  -7.134  0.00  0.00    -0.030 C 
BRANCH  21  22
HETATM   22  C   UNK N   1      27.156  26.077  -8.312  0.00  0.00     0.027 C 
BRANCH  22  23
HETATM   23  C   UNK N   1      26.625  24.717  -7.884  0.00  0.00     0.004 C 
BRANCH  23  24
HETATM   24  C   UNK N   1      27.270  24.229  -6.603  0.00  0.00     0.000 C 
BRANCH  24  25
HETATM   25  C   UNK N   1      26.199  23.583  -5.750  0.00  0.00    -0.000 C 
BRANCH  25  26
HETATM   26  C   UNK N   1      25.895  24.455  -4.553  0.00  0.00    -0.005 C 
HETATM   27  C   UNK N   1      26.998  24.297  -3.528  0.00  0.00     0.005 C 
ENDBRANCH  25  26
ENDBRANCH  24  25
ENDBRANCH  23  24
ENDBRANCH  22  23
ENDBRANCH  21  22
ENDBRANCH   2  20
TORSDOF 13
ENDMDL
MODEL 3
REMARK VINA RESULT:      -5.5      2.512      4.799
REMARK  13 active torsions:
REMARK  status: ('A' for Active; 'I' for Inactive)
REMARK    1  A    between atoms: C_3  and  C_2 
REMARK    2  A    between atoms: C_4  and  C_3 
REMARK    3  A    between atoms: C_5  and  C_4 
REMARK    4  A    between atoms: C_6  and  C_5 
REMARK    5  A    between atoms: C_9  and  C_6 
REMARK    6  A    between atoms: C_8  and  C_7 
REMARK    7  A    between atoms: C_11  and  C_8 
REMARK    8  A    between atoms: C_13  and  C_10 
REMARK    9  A    between atoms: C_14  and  C_11 
REMARK   10  A    between atoms: C_16  and  C_12 
REMARK   11  A    between atoms: C_17  and  C_13 
REMARK   12  A    between atoms: C_20  and  C_14 
REMARK   13  A    between atoms: O_26  and  C_20 
ROOT
HETATM    1  C   UNK N   1      25.578  28.635  -4.459  0.00  0.00     0.054 C 
HETATM    2  C   UNK N   1      27.291  27.190  -5.260  0.00  0.00     0.038 C 
HETATM    3  C   UNK N   1      26.217  26.409  -4.442  0.00  0.00     0.023 C 
HETATM    4  C   UNK N   1      27.081  28.639  -4.738  0.00  0.00     0.109 C 
HETATM    5  C   UNK N   1      25.701  27.479  -3.458  0.00  0.00     0.106 C 
HETATM    6  N   UNK N   1      27.557  28.628  -3.380  0.00  0.00    -0.335 N 
ATOM      7  HN  UNK N   1      28.398  29.104  -3.051  1.00  0.00     0.180 HD
HETATM    8  N   UNK N   1      26.801  27.963  -2.672  0.00  0.00    -0.335 N 
ATOM      9  HN  UNK N   1      26.935  27.781  -1.678  1.00  0.00     0.180 HD
ENDROOT
BRANCH   3  10
HETATM   10  C   UNK N   1      26.740  25.128  -3.788  0.00  0.00     0.034 C 
BRANCH  10  11
HETATM   11  C   UNK N   1      26.619  23.961  -4.729  0.00  0.00    -0.030 C 
HETATM   12  C   UNK N   1      27.664  23.434  -5.388  0.00  0.00    -0.031 C 
BRANCH  12  13
HETATM   13  C   UNK N   1      29.082  23.917  -5.230  0.00  0.00     0.027 C 
BRANCH  13  14
HETATM   14  C   UNK N   1      30.078  22.780  -4.979  0.00  0.00     0.014 C 
BRANCH  14  15
HETATM   15  C   UNK N   1      29.888  22.110  -3.618  0.00  0.00     0.110 C 
BRANCH  15  16
HETATM   16  C   UNK N   1      30.867  22.603  -2.603  0.00  0.00     0.139 C 
HETATM   17  O   UNK N   1      30.730  23.713  -2.117  0.00  0.00    -0.650 OA
BRANCH  16  18
HETATM   18  O   UNK N   1      31.915  21.838  -2.244  0.00  0.00    -0.776 OA
HETATM   19  H   UNK N   1      32.816  22.083  -2.316  0.00  0.00     0.167 HD
ENDBRANCH  16  18
ENDBRANCH  15  16
ENDBRANCH  14  15
ENDBRANCH  13  14
ENDBRANCH  12  13
ENDBRANCH  10  11
ENDBRANCH   3  10
BRANCH   2  20
HETATM   20  C   UNK N   1      27.111  26.915  -6.742  0.00  0.00    -0.024 C 
HETATM   21  C   UNK N   1      25.982  26.439  -7.287  0.00  0.00    -0.030 C 
BRANCH  21  22
HETATM   22  C   UNK N   1      25.924  26.171  -8.761  0.00  0.00     0.027 C 
BRANCH  22  23
HETATM   23  C   UNK N   1      26.388  24.762  -9.098  0.00  0.00     0.004 C 
BRANCH  23  24
HETATM   24  C   UNK N   1      25.445  23.705  -8.559  0.00  0.00     0.000 C 
BRANCH  24  25
HETATM   25  C   UNK N   1      25.883  22.361  -9.100  0.00  0.00    -0.000 C 
BRANCH  25  26
HETATM   26  C   UNK N   1      25.938  21.346  -7.979  0.00  0.00    -0.005 C 
HETATM   27  C   UNK N   1      24.643  21.397  -7.197  0.00  0.00     0.005 C 
ENDBRANCH  25  26
ENDBRANCH  24  25
ENDBRANCH  23  24
ENDBRANCH  22  23
ENDBRANCH  21  22
ENDBRANCH   2  20
TORSDOF 13
ENDMDL
MODEL 4
REMARK VINA RESULT:      -5.4      3.876      5.933
REMARK  13 active torsions:
REMARK  status: ('A' for Active; 'I' for Inactive)
REMARK    1  A    between atoms: C_3  and  C_2 
REMARK    2  A    between atoms: C_4  and  C_3 
REMARK    3  A    between atoms: C_5  and  C_4 
REMARK    4  A    between atoms: C_6  and  C_5 
REMARK    5  A    between atoms: C_9  and  C_6 
REMARK    6  A    between atoms: C_8  and  C_7 
REMARK    7  A    between atoms: C_11  and  C_8 
REMARK    8  A    between atoms: C_13  and  C_10 
REMARK    9  A    between atoms: C_14  and  C_11 
REMARK   10  A    between atoms: C_16  and  C_12 
REMARK   11  A    between atoms: C_17  and  C_13 
REMARK   12  A    between atoms: C_20  and  C_14 
REMARK   13  A    between atoms: O_26  and  C_20 
ROOT
HETATM    1  C   UNK N   1      29.837  22.813  -2.592  0.00  0.00     0.054 C 
HETATM    2  C   UNK N   1      29.506  24.064  -4.590  0.00  0.00     0.038 C 
HETATM    3  C   UNK N   1      29.479  22.529  -4.862  0.00  0.00     0.023 C 
HETATM    4  C   UNK N   1      30.281  24.123  -3.243  0.00  0.00     0.109 C 
HETATM    5  C   UNK N   1      30.392  21.974  -3.749  0.00  0.00     0.106 C 
HETATM    6  N   UNK N   1      31.635  23.760  -3.566  0.00  0.00    -0.335 N 
ATOM      7  HN  UNK N   1      32.433  24.397  -3.545  1.00  0.00     0.180 HD
HETATM    8  N   UNK N   1      31.693  22.569  -3.870  0.00  0.00    -0.335 N 
ATOM      9  HN  UNK N   1      32.537  22.078  -4.165  1.00  0.00     0.180 HD
ENDROOT
BRANCH   3  10
HETATM   10  C   UNK N   1      29.885  22.140  -6.285  0.00  0.00     0.034 C 
BRANCH  10  11
HETATM   11  C   UNK N   1      29.921  20.644  -6.441  0.00  0.00    -0.030 C 
HETATM   12  C   UNK N   1      29.310  19.992  -7.444  0.00  0.00    -0.031 C 
BRANCH  12  13
HETATM   13  C   UNK N   1      28.557  20.682  -8.552  0.00  0.00     0.027 C 
BRANCH  13  14
HETATM   14  C   UNK N   1      27.041  20.687  -8.333  0.00  0.00     0.014 C 
BRANCH  14  15
HETATM   15  C   UNK N   1      26.504  22.053  -7.905  0.00  0.00     0.110 C 
BRANCH  15  16
HETATM   16  C   UNK N   1      25.271  22.436  -8.655  0.00  0.00     0.139 C 
HETATM   17  O   UNK N   1      25.366  23.050  -9.704  0.00  0.00    -0.650 OA
BRANCH  16  18
HETATM   18  O   UNK N   1      24.055  22.131  -8.164  0.00  0.00    -0.776 OA
HETATM   19  H   UNK N   1      23.833  21.335  -7.722  0.00  0.00     0.167 HD
ENDBRANCH  16  18
ENDBRANCH  15  16
ENDBRANCH  14  15
ENDBRANCH  13  14
ENDBRANCH  12  13
ENDBRANCH  10  11
ENDBRANCH   3  10
BRANCH   2  20
HETATM   20  C   UNK N   1      28.095  24.622  -4.645  0.00  0.00    -0.024 C 
HETATM   21  C   UNK N   1      27.012  23.900  -4.964  0.00  0.00    -0.030 C 
BRANCH  21  22
HETATM   22  C   UNK N   1      25.668  24.562  -5.022  0.00  0.00     0.027 C 
BRANCH  22  23
HETATM   23  C   UNK N   1      25.548  25.494  -6.218  0.00  0.00     0.004 C 
BRANCH  23  24
HETATM   24  C   UNK N   1      25.025  26.862  -5.827  0.00  0.00     0.000 C 
BRANCH  24  25
HETATM   25  C   UNK N   1      26.206  27.800  -5.695  0.00  0.00    -0.000 C 
BRANCH  25  26
HETATM   26  C   UNK N   1      26.079  28.615  -4.427  0.00  0.00    -0.005 C 
HETATM   27  C   UNK N   1      25.888  27.680  -3.251  0.00  0.00     0.005 C 
ENDBRANCH  25  26
ENDBRANCH  24  25
ENDBRANCH  23  24
ENDBRANCH  22  23
ENDBRANCH  21  22
ENDBRANCH   2  20
TORSDOF 13
ENDMDL
MODEL 5
REMARK VINA RESULT:      -5.4      2.757      5.075
REMARK  13 active torsions:
REMARK  status: ('A' for Active; 'I' for Inactive)
REMARK    1  A    between atoms: C_3  and  C_2 
REMARK    2  A    between atoms: C_4  and  C_3 
REMARK    3  A    between atoms: C_5  and  C_4 
REMARK    4  A    between atoms: C_6  and  C_5 
REMARK    5  A    between atoms: C_9  and  C_6 
REMARK    6  A    between atoms: C_8  and  C_7 
REMARK    7  A    between atoms: C_11  and  C_8 
REMARK    8  A    between atoms: C_13  and  C_10 
REMARK    9  A    between atoms: C_14  and  C_11 
REMARK   10  A    between atoms: C_16  and  C_12 
REMARK   11  A    between atoms: C_17  and  C_13 
REMARK   12  A    between atoms: C_20  and  C_14 
REMARK   13  A    between atoms: O_26  and  C_20 
ROOT
HETATM    1  C   UNK N   1      27.300  30.788  -4.426  0.00  0.00     0.054 C 
HETATM    2  C   UNK N   1      27.699  28.549  -5.128  0.00  0.00     0.038 C 
HETATM    3  C   UNK N   1      26.219  28.757  -4.683  0.00  0.00     0.023 C 
HETATM    4  C   UNK N   1      28.405  29.732  -4.407  0.00  0.00     0.109 C 
HETATM    5  C   UNK N   1      26.336  29.890  -3.643  0.00  0.00     0.106 C 
HETATM    6  N   UNK N   1      28.368  29.401  -3.006  0.00  0.00    -0.335 N 
ATOM      7  HN  UNK N   1      29.181  29.150  -2.443  1.00  0.00     0.180 HD
HETATM    8  N   UNK N   1      27.212  29.466  -2.587  0.00  0.00    -0.335 N 
ATOM      9  HN  UNK N   1      26.921  29.251  -1.634  1.00  0.00     0.180 HD
ENDROOT
BRANCH   3  10
HETATM   10  C   UNK N   1      25.534  27.484  -4.181  0.00  0.00     0.034 C 
BRANCH  10  11
HETATM   11  C   UNK N   1      25.084  26.629  -5.333  0.00  0.00    -0.030 C 
HETATM   12  C   UNK N   1      25.417  25.334  -5.464  0.00  0.00    -0.031 C 
BRANCH  12  13
HETATM   13  C   UNK N   1      26.239  24.576  -4.454  0.00  0.00     0.027 C 
BRANCH  13  14
HETATM   14  C   UNK N   1      27.684  24.349  -4.908  0.00  0.00     0.014 C 
BRANCH  14  15
HETATM   15  C   UNK N   1      28.703  25.115  -4.065  0.00  0.00     0.110 C 
BRANCH  15  16
HETATM   16  C   UNK N   1      29.466  24.218  -3.145  0.00  0.00     0.139 C 
HETATM   17  O   UNK N   1      30.636  24.456  -2.898  0.00  0.00    -0.650 OA
BRANCH  16  18
HETATM   18  O   UNK N   1      28.874  23.134  -2.610  0.00  0.00    -0.776 OA
HETATM   19  H   UNK N   1      28.971  22.845  -1.724  0.00  0.00     0.167 HD
ENDBRANCH  16  18
ENDBRANCH  15  16
ENDBRANCH  14  15
ENDBRANCH  13  14
ENDBRANCH  12  13
ENDBRANCH  10  11
ENDBRANCH   3  10
BRANCH   2  20
HETATM   20  C   UNK N   1      27.776  28.468  -6.642  0.00  0.00    -0.024 C 
HETATM   21  C   UNK N   1      28.053  27.346  -7.322  0.00  0.00    -0.030 C 
BRANCH  21  22
HETATM   22  C   UNK N   1      28.138  27.387  -8.819  0.00  0.00     0.027 C 
BRANCH  22  23
HETATM   23  C   UNK N   1      27.417  26.210  -9.458  0.00  0.00     0.004 C 
BRANCH  23  24
HETATM   24  C   UNK N   1      25.971  26.115  -9.013  0.00  0.00     0.000 C 
BRANCH  24  25
HETATM   25  C   UNK N   1      25.570  24.655  -9.018  0.00  0.00    -0.000 C 
BRANCH  25  26
HETATM   26  C   UNK N   1      26.717  23.802  -8.527  0.00  0.00    -0.005 C 
HETATM   27  C   UNK N   1      26.168  22.517  -7.945  0.00  0.00     0.005 C 
ENDBRANCH  25  26
ENDBRANCH  24  25
ENDBRANCH  23  24
ENDBRANCH  22  23
ENDBRANCH  21  22
ENDBRANCH   2  20
TORSDOF 13
ENDMDL
MODEL 6
REMARK VINA RESULT:      -5.4     17.885     22.553
REMARK  13 active torsions:
REMARK  status: ('A' for Active; 'I' for Inactive)
REMARK    1  A    between atoms: C_3  and  C_2 
REMARK    2  A    between atoms: C_4  and  C_3 
REMARK    3  A    between atoms: C_5  and  C_4 
REMARK    4  A    between atoms: C_6  and  C_5 
REMARK    5  A    between atoms: C_9  and  C_6 
REMARK    6  A    between atoms: C_8  and  C_7 
REMARK    7  A    between atoms: C_11  and  C_8 
REMARK    8  A    between atoms: C_13  and  C_10 
REMARK    9  A    between atoms: C_14  and  C_11 
REMARK   10  A    between atoms: C_16  and  C_12 
REMARK   11  A    between atoms: C_17  and  C_13 
REMARK   12  A    between atoms: C_20  and  C_14 
REMARK   13  A    between atoms: O_26  and  C_20 
ROOT
HETATM    1  C   UNK N   1      37.540  13.283  11.431  0.00  0.00     0.054 C 
HETATM    2  C   UNK N   1      35.161  13.254  11.444  0.00  0.00     0.038 C 
HETATM    3  C   UNK N   1      35.731  12.941  10.026  0.00  0.00     0.023 C 
HETATM    4  C   UNK N   1      36.363  13.988  12.103  0.00  0.00     0.109 C 
HETATM    5  C   UNK N   1      37.075  13.698  10.030  0.00  0.00     0.106 C 
HETATM    6  N   UNK N   1      36.452  15.256  11.429  0.00  0.00    -0.335 N 
ATOM      7  HN  UNK N   1      36.237  16.160  11.852  1.00  0.00     0.180 HD
HETATM    8  N   UNK N   1      36.826  15.092  10.268  0.00  0.00    -0.335 N 
ATOM      9  HN  UNK N   1      36.941  15.834   9.578  1.00  0.00     0.180 HD
ENDROOT
BRANCH   3  10
HETATM   10  C   UNK N   1      34.787  13.305   8.878  0.00  0.00     0.034 C 
BRANCH  10  11
HETATM   11  C   UNK N   1      33.606  14.086   9.386  0.00  0.00    -0.030 C 
HETATM   12  C   UNK N   1      33.017  15.070   8.686  0.00  0.00    -0.031 C 
BRANCH  12  13
HETATM   13  C   UNK N   1      33.440  15.477   7.298  0.00  0.00     0.027 C 
BRANCH  13  14
HETATM   14  C   UNK N   1      33.222  16.968   7.020  0.00  0.00     0.014 C 
BRANCH  14  15
HETATM   15  C   UNK N   1      33.277  17.826   8.283  0.00  0.00     0.110 C 
BRANCH  15  16
HETATM   16  C   UNK N   1      34.677  18.168   8.674  0.00  0.00     0.139 C 
HETATM   17  O   UNK N   1      35.296  19.007   8.041  0.00  0.00    -0.650 OA
BRANCH  16  18
HETATM   18  O   UNK N   1      35.268  17.536   9.705  0.00  0.00    -0.776 OA
HETATM   19  H   UNK N   1      34.883  17.396  10.548  0.00  0.00     0.167 HD
ENDBRANCH  16  18
ENDBRANCH  15  16
ENDBRANCH  14  15
ENDBRANCH  13  14
ENDBRANCH  12  13
ENDBRANCH  10  11
ENDBRANCH   3  10
BRANCH   2  20
HETATM   20  C   UNK N   1      34.643  11.979  12.085  0.00  0.00    -0.024 C 
HETATM   21  C   UNK N   1      34.554  11.786  13.408  0.00  0.00    -0.030 C 
BRANCH  21  22
HETATM   22  C   UNK N   1      34.059  10.471  13.935  0.00  0.00     0.027 C 
BRANCH  22  23
HETATM   23  C   UNK N   1      34.362  10.306  15.417  0.00  0.00     0.004 C 
BRANCH  23  24
HETATM   24  C   UNK N   1      35.581  11.099  15.843  0.00  0.00     0.000 C 
BRANCH  24  25
HETATM   25  C   UNK N   1      35.260  11.795  17.149  0.00  0.00    -0.000 C 
BRANCH  25  26
HETATM   26  C   UNK N   1      35.248  13.294  16.946  0.00  0.00    -0.005 C 
HETATM   27  C   UNK N   1      36.284  13.663  15.905  0.00  0.00     0.005 C 
ENDBRANCH  25  26
ENDBRANCH  24  25
ENDBRANCH  23  24
ENDBRANCH  22  23
ENDBRANCH  21  22
ENDBRANCH   2  20
TORSDOF 13
ENDMDL
MODEL 7
REMARK VINA RESULT:      -5.4     11.097     13.609
REMARK  13 active torsions:
REMARK  status: ('A' for Active; 'I' for Inactive)
REMARK    1  A    between atoms: C_3  and  C_2 
REMARK    2  A    between atoms: C_4  and  C_3 
REMARK    3  A    between atoms: C_5  and  C_4 
REMARK    4  A    between atoms: C_6  and  C_5 
REMARK    5  A    between atoms: C_9  and  C_6 
REMARK    6  A    between atoms: C_8  and  C_7 
REMARK    7  A    between atoms: C_11  and  C_8 
REMARK    8  A    between atoms: C_13  and  C_10 
REMARK    9  A    between atoms: C_14  and  C_11 
REMARK   10  A    between atoms: C_16  and  C_12 
REMARK   11  A    between atoms: C_17  and  C_13 
REMARK   12  A    between atoms: C_20  and  C_14 
REMARK   13  A    between atoms: O_26  and  C_20 
ROOT
HETATM    1  C   UNK N   1      27.700  19.499   4.356  0.00  0.00     0.054 C 
HETATM    2  C   UNK N   1      25.902  17.949   4.188  0.00  0.00     0.038 C 
HETATM    3  C   UNK N   1      25.521  19.338   3.589  0.00  0.00     0.023 C 
HETATM    4  C   UNK N   1      27.081  18.333   5.126  0.00  0.00     0.109 C 
HETATM    5  C   UNK N   1      26.399  20.308   4.405  0.00  0.00     0.106 C 
HETATM    6  N   UNK N   1      26.484  19.074   6.206  0.00  0.00    -0.335 N 
ATOM      7  HN  UNK N   1      26.406  18.744   7.168  1.00  0.00     0.180 HD
HETATM    8  N   UNK N   1      26.084  20.164   5.799  0.00  0.00    -0.335 N 
ATOM      9  HN  UNK N   1      25.599  20.861   6.365  1.00  0.00     0.180 HD
ENDROOT
BRANCH   3  10
HETATM   10  C   UNK N   1      24.021  19.640   3.617  0.00  0.00     0.034 C 
BRANCH  10  11
HETATM   11  C   UNK N   1      23.289  18.633   4.461  0.00  0.00    -0.030 C 
HETATM   12  C   UNK N   1      22.144  18.044   4.078  0.00  0.00    -0.031 C 
BRANCH  12  13
HETATM   13  C   UNK N   1      21.485  18.286   2.745  0.00  0.00     0.027 C 
BRANCH  13  14
HETATM   14  C   UNK N   1      20.361  19.325   2.814  0.00  0.00     0.014 C 
BRANCH  14  15
HETATM   15  C   UNK N   1      20.844  20.746   2.521  0.00  0.00     0.110 C 
BRANCH  15  16
HETATM   16  C   UNK N   1      20.711  21.102   1.076  0.00  0.00     0.139 C 
HETATM   17  O   UNK N   1      20.904  20.253   0.222  0.00  0.00    -0.650 OA
BRANCH  16  18
HETATM   18  O   UNK N   1      20.406  22.362   0.713  0.00  0.00    -0.776 OA
HETATM   19  H   UNK N   1      19.544  22.729   0.697  0.00  0.00     0.167 HD
ENDBRANCH  16  18
ENDBRANCH  15  16
ENDBRANCH  14  15
ENDBRANCH  13  14
ENDBRANCH  12  13
ENDBRANCH  10  11
ENDBRANCH   3  10
BRANCH   2  20
HETATM   20  C   UNK N   1      26.154  16.955   3.069  0.00  0.00    -0.024 C 
HETATM   21  C   UNK N   1      25.353  15.915   2.791  0.00  0.00    -0.030 C 
BRANCH  21  22
HETATM   22  C   UNK N   1      25.716  14.974   1.682  0.00  0.00     0.027 C 
BRANCH  22  23
HETATM   23  C   UNK N   1      24.756  13.797   1.603  0.00  0.00     0.004 C 
BRANCH  23  24
HETATM   24  C   UNK N   1      23.788  13.926   0.443  0.00  0.00     0.000 C 
BRANCH  24  25
HETATM   25  C   UNK N   1      22.414  13.514   0.926  0.00  0.00    -0.000 C 
BRANCH  25  26
HETATM   26  C   UNK N   1      21.787  14.637   1.720  0.00  0.00    -0.005 C 
HETATM   27  C   UNK N   1      20.664  15.252   0.912  0.00  0.00     0.005 C 
ENDBRANCH  25  26
ENDBRANCH  24  25
ENDBRANCH  23  24
ENDBRANCH  22  23
ENDBRANCH  21  22
ENDBRANCH   2  20
TORSDOF 13
ENDMDL
MODEL 8
REMARK VINA RESULT:      -5.4     11.960     14.236
REMARK  13 active torsions:
REMARK  status: ('A' for Active; 'I' for Inactive)
REMARK    1  A    between atoms: C_3  and  C_2 
REMARK    2  A    between atoms: C_4  and  C_3 
REMARK    3  A    between atoms: C_5  and  C_4 
REMARK    4  A    between atoms: C_6  and  C_5 
REMARK    5  A    between atoms: C_9  and  C_6 
REMARK    6  A    between atoms: C_8  and  C_7 
REMARK    7  A    between atoms: C_11  and  C_8 
REMARK    8  A    between atoms: C_13  and  C_10 
REMARK    9  A    between atoms: C_14  and  C_11 
REMARK   10  A    between atoms: C_16  and  C_12 
REMARK   11  A    between atoms: C_17  and  C_13 
REMARK   12  A    between atoms: C_20  and  C_14 
REMARK   13  A    between atoms: O_26  and  C_20 
ROOT
HETATM    1  C   UNK N   1      20.549  18.813   1.037  0.00  0.00     0.054 C 
HETATM    2  C   UNK N   1      21.254  19.015   3.301  0.00  0.00     0.038 C 
HETATM    3  C   UNK N   1      21.104  17.521   2.877  0.00  0.00     0.023 C 
HETATM    4  C   UNK N   1      20.356  19.724   2.249  0.00  0.00     0.109 C 
HETATM    5  C   UNK N   1      20.012  17.589   1.789  0.00  0.00     0.106 C 
HETATM    6  N   UNK N   1      19.007  19.356   2.589  0.00  0.00    -0.335 N 
ATOM      7  HN  UNK N   1      18.305  19.993   2.968  1.00  0.00     0.180 HD
HETATM    8  N   UNK N   1      18.823  18.162   2.354  0.00  0.00    -0.335 N 
ATOM      9  HN  UNK N   1      17.957  17.655   2.535  1.00  0.00     0.180 HD
ENDROOT
BRANCH   3  10
HETATM   10  C   UNK N   1      20.803  16.570   4.037  0.00  0.00     0.034 C 
BRANCH  10  11
HETATM   11  C   UNK N   1      22.027  16.358   4.885  0.00  0.00    -0.030 C 
HETATM   12  C   UNK N   1      22.159  16.855   6.126  0.00  0.00    -0.031 C 
BRANCH  12  13
HETATM   13  C   UNK N   1      21.083  17.641   6.830  0.00  0.00     0.027 C 
BRANCH  13  14
HETATM   14  C   UNK N   1      20.027  16.750   7.493  0.00  0.00     0.014 C 
BRANCH  14  15
HETATM   15  C   UNK N   1      19.609  17.248   8.876  0.00  0.00     0.110 C 
BRANCH  15  16
HETATM   16  C   UNK N   1      18.125  17.267   9.046  0.00  0.00     0.139 C 
HETATM   17  O   UNK N   1      17.633  17.826  10.011  0.00  0.00    -0.650 OA
BRANCH  16  18
HETATM   18  O   UNK N   1      17.332  16.648   8.152  0.00  0.00    -0.776 OA
HETATM   19  H   UNK N   1      17.480  15.795   7.794  0.00  0.00     0.167 HD
ENDBRANCH  16  18
ENDBRANCH  15  16
ENDBRANCH  14  15
ENDBRANCH  13  14
ENDBRANCH  12  13
ENDBRANCH  10  11
ENDBRANCH   3  10
BRANCH   2  20
HETATM   20  C   UNK N   1      22.725  19.385   3.373  0.00  0.00    -0.024 C 
HETATM   21  C   UNK N   1      23.253  20.481   2.810  0.00  0.00    -0.030 C 
BRANCH  21  22
HETATM   22  C   UNK N   1      24.728  20.732   2.914  0.00  0.00     0.027 C 
BRANCH  22  23
HETATM   23  C   UNK N   1      25.457  19.562   3.558  0.00  0.00     0.004 C 
BRANCH  23  24
HETATM   24  C   UNK N   1      26.945  19.816   3.688  0.00  0.00     0.000 C 
BRANCH  24  25
HETATM   25  C   UNK N   1      27.363  19.460   5.099  0.00  0.00    -0.000 C 
BRANCH  25  26
HETATM   26  C   UNK N   1      26.580  20.286   6.095  0.00  0.00    -0.005 C 
HETATM   27  C   UNK N   1      27.169  21.680   6.157  0.00  0.00     0.005 C 
ENDBRANCH  25  26
ENDBRANCH  24  25
ENDBRANCH  23  24
ENDBRANCH  22  23
ENDBRANCH  21  22
ENDBRANCH   2  20
TORSDOF 13
ENDMDL
MODEL 9
REMARK VINA RESULT:      -5.3     12.284     15.299
REMARK  13 active torsions:
REMARK  status: ('A' for Active; 'I' for Inactive)
REMARK    1  A    between atoms: C_3  and  C_2 
REMARK    2  A    between atoms: C_4  and  C_3 
REMARK    3  A    between atoms: C_5  and  C_4 
REMARK    4  A    between atoms: C_6  and  C_5 
REMARK    5  A    between atoms: C_9  and  C_6 
REMARK    6  A    between atoms: C_8  and  C_7 
REMARK    7  A    between atoms: C_11  and  C_8 
REMARK    8  A    between atoms: C_13  and  C_10 
REMARK    9  A    between atoms: C_14  and  C_11 
REMARK   10  A    between atoms: C_16  and  C_12 
REMARK   11  A    between atoms: C_17  and  C_13 
REMARK   12  A    between atoms: C_20  and  C_14 
REMARK   13  A    between atoms: O_26  and  C_20 
ROOT
HETATM    1  C   UNK N   1      29.628  18.848   9.556  0.00  0.00     0.054 C 
HETATM    2  C   UNK N   1      29.911  17.114   7.951  0.00  0.00     0.038 C 
HETATM    3  C   UNK N   1      29.113  18.317   7.362  0.00  0.00     0.023 C 
HETATM    4  C   UNK N   1      29.700  17.324   9.477  0.00  0.00     0.109 C 
HETATM    5  C   UNK N   1      28.424  18.907   8.609  0.00  0.00     0.106 C 
HETATM    6  N   UNK N   1      28.312  17.026   9.715  0.00  0.00    -0.335 N 
ATOM      7  HN  UNK N   1      27.967  16.213  10.227  1.00  0.00     0.180 HD
HETATM    8  N   UNK N   1      27.601  17.896   9.211  0.00  0.00    -0.335 N 
ATOM      9  HN  UNK N   1      26.581  17.898   9.219  1.00  0.00     0.180 HD
ENDROOT
BRANCH   3  10
HETATM   10  C   UNK N   1      28.169  17.940   6.218  0.00  0.00     0.034 C 
BRANCH  10  11
HETATM   11  C   UNK N   1      28.588  18.610   4.938  0.00  0.00    -0.030 C 
HETATM   12  C   UNK N   1      27.953  19.675   4.421  0.00  0.00    -0.031 C 
BRANCH  12  13
HETATM   13  C   UNK N   1      26.780  20.351   5.082  0.00  0.00     0.027 C 
BRANCH  13  14
HETATM   14  C   UNK N   1      25.522  20.355   4.208  0.00  0.00     0.014 C 
BRANCH  14  15
HETATM   15  C   UNK N   1      25.227  18.993   3.579  0.00  0.00     0.110 C 
BRANCH  15  16
HETATM   16  C   UNK N   1      24.583  18.052   4.545  0.00  0.00     0.139 C 
HETATM   17  O   UNK N   1      23.587  18.399   5.156  0.00  0.00    -0.650 OA
BRANCH  16  18
HETATM   18  O   UNK N   1      25.114  16.835   4.762  0.00  0.00    -0.776 OA
HETATM   19  H   UNK N   1      24.949  16.296   5.511  0.00  0.00     0.167 HD
ENDBRANCH  16  18
ENDBRANCH  15  16
ENDBRANCH  14  15
ENDBRANCH  13  14
ENDBRANCH  12  13
ENDBRANCH  10  11
ENDBRANCH   3  10
BRANCH   2  20
HETATM   20  C   UNK N   1      31.327  17.116   7.404  0.00  0.00    -0.024 C 
HETATM   21  C   UNK N   1      32.159  16.066   7.466  0.00  0.00    -0.030 C 
BRANCH  21  22
HETATM   22  C   UNK N   1      33.551  16.189   6.923  0.00  0.00     0.027 C 
BRANCH  22  23
HETATM   23  C   UNK N   1      33.660  17.303   5.894  0.00  0.00     0.004 C 
BRANCH  23  24
HETATM   24  C   UNK N   1      33.384  16.812   4.487  0.00  0.00     0.000 C 
BRANCH  24  25
HETATM   25  C   UNK N   1      32.246  17.631   3.915  0.00  0.00    -0.000 C 
BRANCH  25  26
HETATM   26  C   UNK N   1      31.321  16.742   3.114  0.00  0.00    -0.005 C 
HETATM   27  C   UNK N   1      30.758  15.667   4.019  0.00  0.00     0.005 C 
ENDBRANCH  25  26
ENDBRANCH  24  25
ENDBRANCH  23  24
ENDBRANCH  22  23
ENDBRANCH  21  22
ENDBRANCH   2  20
TORSDOF 13
ENDMDL
