REMARK  7 active torsions:
REMARK  status: ('A' for Active; 'I' for Inactive)
REMARK    1  A    between atoms: O_1  and  C_14 
REMARK    2  A    between atoms: O_2  and  C_16 
REMARK    3  A    between atoms: C_5  and  C_6 
REMARK    4  A    between atoms: C_5  and  C_9 
REMARK    5  A    between atoms: C_7  and  C_8 
REMARK    6  A    between atoms: C_7  and  C_11 
REMARK    7  A    between atoms: C_11  and  C_17 
ROOT
HETATM    1  O   UNK N   1      14.805  -8.325   0.003  0.00  0.00    -0.285 OA
HETATM    2  O   UNK N   1      19.022 -11.500   0.018  0.00  0.00    -0.285 OA
HETATM    3  C   UNK N   1      17.165  -8.473  -0.007  0.00  0.00     0.008 A 
HETATM    4  C   UNK N   1      18.226  -9.310  -0.004  0.00  0.00     0.002 A 
HETATM    5  C   UNK N   1      15.785  -9.056   0.005  0.00  0.00     0.215 A 
HETATM    6  C   UNK N   1      18.035 -10.778   0.011  0.00  0.00     0.214 A 
HETATM    7  C   UNK N   1      15.578 -10.533   0.011  0.00  0.00     0.156 A 
HETATM    8  C   UNK N   1      16.658 -11.370   0.013  0.00  0.00     0.156 A 
HETATM    9  C   UNK N   1      19.629  -8.770  -0.018  0.00  0.00     0.053 C 
ENDROOT
BRANCH   3  10
HETATM   10  C   UNK N   1      17.448  -6.976  -0.036  0.00  0.00     0.071 C 
BRANCH  10  11
HETATM   11  C   UNK N   1      16.301  -6.014   0.031  0.00  0.00    -0.020 C 
HETATM   12  C   UNK N   1      16.476  -4.698  -0.176  0.00  0.00    -0.087 C 
HETATM   13  C   UNK N   1      15.296  -3.792  -0.121  0.00  0.00     0.043 C 
BRANCH  12  14
HETATM   14  C   UNK N   1      17.812  -4.110  -0.534  0.00  0.00     0.037 C 
BRANCH  14  15
HETATM   15  C   UNK N   1      18.673  -3.895   0.703  0.00  0.00     0.031 C 
BRANCH  15  16
HETATM   16  C   UNK N   1      19.953  -3.202   0.331  0.00  0.00    -0.024 C 
HETATM   17  C   UNK N   1      20.028  -1.898   0.026  0.00  0.00    -0.091 C 
HETATM   18  C   UNK N   1      18.824  -1.012   0.049  0.00  0.00     0.042 C 
HETATM   19  C   UNK N   1      21.348  -1.312  -0.338  0.00  0.00     0.042 C 
ENDBRANCH  15  16
ENDBRANCH  14  15
ENDBRANCH  12  14
ENDBRANCH  10  11
ENDBRANCH   3  10
BRANCH   7  20
HETATM   20  O   UNK N   1      14.285 -10.981   0.010  0.00  0.00    -0.350 OA
HETATM   21  C   UNK N   1      13.866 -12.293   0.004  0.00  0.00     0.210 C 
ENDBRANCH   7  20
BRANCH   8  22
HETATM   22  O   UNK N   1      16.464 -12.721   0.015  0.00  0.00    -0.350 OA
HETATM   23  C   UNK N   1      17.458 -13.673   0.004  0.00  0.00     0.210 C 
ENDBRANCH   8  22
TORSDOF 7
