MODEL 1
REMARK VINA RESULT:      -6.9      0.000      0.000
REMARK  8 active torsions:
REMARK  status: ('A' for Active; 'I' for Inactive)
REMARK    1  A    between atoms: C_3  and  O_12 
REMARK    2  A    between atoms: C_6  and  C_7 
REMARK    3  A    between atoms: C_7  and  C_8 
REMARK    4  A    between atoms: C_8  and  N_9 
REMARK       I    between atoms: N_9  and  C_10 
REMARK    5  A    between atoms: C_10  and  C_15 
REMARK    6  A    between atoms: C_13  and  C_14 
REMARK    7  A    between atoms: C_18  and  O_22 
REMARK    8  A    between atoms: C_19  and  O_21 
ROOT
HETATM    1  N   UNK N   1      30.330  16.669   3.251  0.00  0.00    -0.357 N 
HETATM    2  C   UNK N   1      31.654  16.929   3.356  0.00  0.00     0.241 C 
HETATM    3  O   UNK N   1      32.318  17.149   2.361  0.00  0.00    -0.269 OA
HETATM    4  H   UNK N   1      29.900  16.719   2.367  0.00  0.00     0.162 HD
ENDROOT
BRANCH   2   5
HETATM    5  C   UNK N   1      32.251  16.939   4.689  0.00  0.00     0.075 C 
HETATM    6  C   UNK N   1      33.183  16.137   5.195  0.00  0.00     0.017 C 
BRANCH   6   7
HETATM    7  C   UNK N   1      33.633  16.449   6.563  0.00  0.00    -0.033 A 
HETATM    8  C   UNK N   1      33.450  15.501   7.589  0.00  0.00     0.014 A 
HETATM    9  C   UNK N   1      33.841  15.774   8.891  0.00  0.00     0.040 A 
HETATM   10  C   UNK N   1      34.421  17.001   9.194  0.00  0.00     0.098 A 
HETATM   11  C   UNK N   1      34.613  17.959   8.183  0.00  0.00     0.099 A 
HETATM   12  C   UNK N   1      34.217  17.682   6.867  0.00  0.00     0.050 A 
BRANCH  10  13
HETATM   13  O   UNK N   1      34.793  17.259  10.458  0.00  0.00    -0.358 OA
HETATM   14  H   UNK N   1      35.696  17.202  10.702  0.00  0.00     0.217 HD
ENDBRANCH  10  13
BRANCH  11  15
HETATM   15  O   UNK N   1      35.173  19.143   8.474  0.00  0.00    -0.358 OA
HETATM   16  H   UNK N   1      35.777  19.216   9.188  0.00  0.00     0.217 HD
ENDBRANCH  11  15
ENDBRANCH   6   7
ENDBRANCH   2   5
BRANCH   1  17
HETATM   17  C   UNK N   1      29.527  16.320   4.408  0.00  0.00     0.127 C 
BRANCH  17  18
HETATM   18  C   UNK N   1      28.752  17.508   4.975  0.00  0.00     0.058 C 
BRANCH  18  19
HETATM   19  C   UNK N   1      29.045  17.822   6.414  0.00  0.00    -0.057 A 
HETATM   20  C   UNK N   1      30.063  17.156   7.114  0.00  0.00     0.010 A 
HETATM   21  C   UNK N   1      30.269  17.393   8.468  0.00  0.00     0.037 A 
HETATM   22  C   UNK N   1      29.458  18.301   9.142  0.00  0.00     0.065 A 
HETATM   23  C   UNK N   1      28.446  18.982   8.455  0.00  0.00     0.037 A 
HETATM   24  C   UNK N   1      28.236  18.739   7.093  0.00  0.00     0.010 A 
BRANCH  22  25
HETATM   25  O   UNK N   1      29.644  18.514  10.453  0.00  0.00    -0.361 OA
HETATM   26  H   UNK N   1      29.114  18.065  11.082  0.00  0.00     0.217 HD
ENDBRANCH  22  25
ENDBRANCH  18  19
ENDBRANCH  17  18
ENDBRANCH   1  17
TORSDOF 8
ENDMDL
MODEL 2
REMARK VINA RESULT:      -6.8     12.112     15.205
REMARK  8 active torsions:
REMARK  status: ('A' for Active; 'I' for Inactive)
REMARK    1  A    between atoms: C_3  and  O_12 
REMARK    2  A    between atoms: C_6  and  C_7 
REMARK    3  A    between atoms: C_7  and  C_8 
REMARK    4  A    between atoms: C_8  and  N_9 
REMARK       I    between atoms: N_9  and  C_10 
REMARK    5  A    between atoms: C_10  and  C_15 
REMARK    6  A    between atoms: C_13  and  C_14 
REMARK    7  A    between atoms: C_18  and  O_22 
REMARK    8  A    between atoms: C_19  and  O_21 
ROOT
HETATM    1  N   UNK N   1      27.198  21.696  -7.760  0.00  0.00    -0.357 N 
HETATM    2  C   UNK N   1      25.958  22.127  -7.431  0.00  0.00     0.241 C 
HETATM    3  O   UNK N   1      24.982  21.452  -7.696  0.00  0.00    -0.269 OA
HETATM    4  H   UNK N   1      27.304  20.803  -8.162  0.00  0.00     0.162 HD
ENDROOT
BRANCH   2   5
HETATM    5  C   UNK N   1      25.834  23.414  -6.752  0.00  0.00     0.075 C 
HETATM    6  C   UNK N   1      25.867  23.680  -5.449  0.00  0.00     0.017 C 
BRANCH   6   7
HETATM    7  C   UNK N   1      25.785  25.103  -5.075  0.00  0.00    -0.033 A 
HETATM    8  C   UNK N   1      25.320  26.044  -6.015  0.00  0.00     0.014 A 
HETATM    9  C   UNK N   1      25.256  27.394  -5.701  0.00  0.00     0.040 A 
HETATM   10  C   UNK N   1      25.656  27.829  -4.442  0.00  0.00     0.098 A 
HETATM   11  C   UNK N   1      26.121  26.904  -3.492  0.00  0.00     0.099 A 
HETATM   12  C   UNK N   1      26.186  25.540  -3.810  0.00  0.00     0.050 A 
BRANCH  10  13
HETATM   13  O   UNK N   1      25.593  29.137  -4.148  0.00  0.00    -0.358 OA
HETATM   14  H   UNK N   1      26.287  29.544  -3.668  0.00  0.00     0.217 HD
ENDBRANCH  10  13
BRANCH  11  15
HETATM   15  O   UNK N   1      26.507  27.323  -2.277  0.00  0.00    -0.358 OA
HETATM   16  H   UNK N   1      26.422  26.758  -1.534  0.00  0.00     0.217 HD
ENDBRANCH  11  15
ENDBRANCH   6   7
ENDBRANCH   2   5
BRANCH   1  17
HETATM   17  C   UNK N   1      28.375  22.513  -7.533  0.00  0.00     0.127 C 
BRANCH  17  18
HETATM   18  C   UNK N   1      29.511  21.746  -6.856  0.00  0.00     0.058 C 
BRANCH  18  19
HETATM   19  C   UNK N   1      29.703  22.063  -5.400  0.00  0.00    -0.057 A 
HETATM   20  C   UNK N   1      29.266  23.278  -4.854  0.00  0.00     0.010 A 
HETATM   21  C   UNK N   1      29.525  23.597  -3.526  0.00  0.00     0.037 A 
HETATM   22  C   UNK N   1      30.228  22.701  -2.726  0.00  0.00     0.065 A 
HETATM   23  C   UNK N   1      30.662  21.479  -3.253  0.00  0.00     0.037 A 
HETATM   24  C   UNK N   1      30.403  21.162  -4.592  0.00  0.00     0.010 A 
BRANCH  22  25
HETATM   25  O   UNK N   1      30.496  23.017  -1.450  0.00  0.00    -0.361 OA
HETATM   26  H   UNK N   1      30.392  22.375  -0.774  0.00  0.00     0.217 HD
ENDBRANCH  22  25
ENDBRANCH  18  19
ENDBRANCH  17  18
ENDBRANCH   1  17
TORSDOF 8
ENDMDL
MODEL 3
REMARK VINA RESULT:      -6.5     10.655     12.481
REMARK  8 active torsions:
REMARK  status: ('A' for Active; 'I' for Inactive)
REMARK    1  A    between atoms: C_3  and  O_12 
REMARK    2  A    between atoms: C_6  and  C_7 
REMARK    3  A    between atoms: C_7  and  C_8 
REMARK    4  A    between atoms: C_8  and  N_9 
REMARK       I    between atoms: N_9  and  C_10 
REMARK    5  A    between atoms: C_10  and  C_15 
REMARK    6  A    between atoms: C_13  and  C_14 
REMARK    7  A    between atoms: C_18  and  O_22 
REMARK    8  A    between atoms: C_19  and  O_21 
ROOT
HETATM    1  N   UNK N   1      20.121  14.158   5.940  0.00  0.00    -0.357 N 
HETATM    2  C   UNK N   1      19.277  14.791   5.094  0.00  0.00     0.241 C 
HETATM    3  O   UNK N   1      18.183  14.320   4.851  0.00  0.00    -0.269 OA
HETATM    4  H   UNK N   1      19.816  13.344   6.402  0.00  0.00     0.162 HD
ENDROOT
BRANCH   2   5
HETATM    5  C   UNK N   1      19.718  16.047   4.492  0.00  0.00     0.075 C 
HETATM    6  C   UNK N   1      20.045  16.300   3.229  0.00  0.00     0.017 C 
BRANCH   6   7
HETATM    7  C   UNK N   1      20.386  17.699   2.914  0.00  0.00    -0.033 A 
HETATM    8  C   UNK N   1      20.744  18.578   3.955  0.00  0.00     0.014 A 
HETATM    9  C   UNK N   1      21.046  19.907   3.695  0.00  0.00     0.040 A 
HETATM   10  C   UNK N   1      20.995  20.382   2.389  0.00  0.00     0.098 A 
HETATM   11  C   UNK N   1      20.640  19.519   1.338  0.00  0.00     0.099 A 
HETATM   12  C   UNK N   1      20.334  18.176   1.602  0.00  0.00     0.050 A 
BRANCH  10  13
HETATM   13  O   UNK N   1      21.285  21.670   2.146  0.00  0.00    -0.358 OA
HETATM   14  H   UNK N   1      21.401  22.268   2.858  0.00  0.00     0.217 HD
ENDBRANCH  10  13
BRANCH  11  15
HETATM   15  O   UNK N   1      20.590  19.977   0.078  0.00  0.00    -0.358 OA
HETATM   16  H   UNK N   1      20.322  19.412  -0.620  0.00  0.00     0.217 HD
ENDBRANCH  11  15
ENDBRANCH   6   7
ENDBRANCH   2   5
BRANCH   1  17
HETATM   17  C   UNK N   1      21.464  14.648   6.188  0.00  0.00     0.127 C 
BRANCH  17  18
HETATM   18  C   UNK N   1      21.644  15.207   7.599  0.00  0.00     0.058 C 
BRANCH  18  19
HETATM   19  C   UNK N   1      21.722  14.169   8.682  0.00  0.00    -0.057 A 
HETATM   20  C   UNK N   1      20.629  13.905   9.520  0.00  0.00     0.010 A 
HETATM   21  C   UNK N   1      20.739  13.005  10.573  0.00  0.00     0.037 A 
HETATM   22  C   UNK N   1      21.949  12.355  10.802  0.00  0.00     0.065 A 
HETATM   23  C   UNK N   1      23.046  12.599   9.967  0.00  0.00     0.037 A 
HETATM   24  C   UNK N   1      22.934  13.510   8.910  0.00  0.00     0.010 A 
BRANCH  22  25
HETATM   25  O   UNK N   1      22.061  11.501  11.830  0.00  0.00    -0.361 OA
HETATM   26  H   UNK N   1      21.465  11.553  12.552  0.00  0.00     0.217 HD
ENDBRANCH  22  25
ENDBRANCH  18  19
ENDBRANCH  17  18
ENDBRANCH   1  17
TORSDOF 8
ENDMDL
MODEL 4
REMARK VINA RESULT:      -6.5     12.667     15.020
REMARK  8 active torsions:
REMARK  status: ('A' for Active; 'I' for Inactive)
REMARK    1  A    between atoms: C_3  and  O_12 
REMARK    2  A    between atoms: C_6  and  C_7 
REMARK    3  A    between atoms: C_7  and  C_8 
REMARK    4  A    between atoms: C_8  and  N_9 
REMARK       I    between atoms: N_9  and  C_10 
REMARK    5  A    between atoms: C_10  and  C_15 
REMARK    6  A    between atoms: C_13  and  C_14 
REMARK    7  A    between atoms: C_18  and  O_22 
REMARK    8  A    between atoms: C_19  and  O_21 
ROOT
HETATM    1  N   UNK N   1      26.389  23.765  -8.640  0.00  0.00    -0.357 N 
HETATM    2  C   UNK N   1      27.284  22.785  -8.374  0.00  0.00     0.241 C 
HETATM    3  O   UNK N   1      27.568  21.964  -9.224  0.00  0.00    -0.269 OA
HETATM    4  H   UNK N   1      26.017  23.840  -9.549  0.00  0.00     0.162 HD
ENDROOT
BRANCH   2   5
HETATM    5  C   UNK N   1      27.893  22.751  -7.046  0.00  0.00     0.075 C 
HETATM    6  C   UNK N   1      29.030  22.180  -6.661  0.00  0.00     0.017 C 
BRANCH   6   7
HETATM    7  C   UNK N   1      29.413  22.384  -5.253  0.00  0.00    -0.033 A 
HETATM    8  C   UNK N   1      28.824  23.429  -4.515  0.00  0.00     0.014 A 
HETATM    9  C   UNK N   1      29.183  23.662  -3.195  0.00  0.00     0.040 A 
HETATM   10  C   UNK N   1      30.139  22.854  -2.588  0.00  0.00     0.098 A 
HETATM   11  C   UNK N   1      30.736  21.806  -3.309  0.00  0.00     0.099 A 
HETATM   12  C   UNK N   1      30.374  21.572  -4.643  0.00  0.00     0.050 A 
BRANCH  10  13
HETATM   13  O   UNK N   1      30.483  23.088  -1.312  0.00  0.00    -0.358 OA
HETATM   14  H   UNK N   1      30.896  22.416  -0.807  0.00  0.00     0.217 HD
ENDBRANCH  10  13
BRANCH  11  15
HETATM   15  O   UNK N   1      31.659  21.027  -2.723  0.00  0.00    -0.358 OA
HETATM   16  H   UNK N   1      31.406  20.223  -2.314  0.00  0.00     0.217 HD
ENDBRANCH  11  15
ENDBRANCH   6   7
ENDBRANCH   2   5
BRANCH   1  17
HETATM   17  C   UNK N   1      25.966  24.710  -7.624  0.00  0.00     0.127 C 
BRANCH  17  18
HETATM   18  C   UNK N   1      26.534  26.112  -7.841  0.00  0.00     0.058 C 
BRANCH  18  19
HETATM   19  C   UNK N   1      26.360  27.048  -6.679  0.00  0.00    -0.057 A 
HETATM   20  C   UNK N   1      27.276  28.081  -6.431  0.00  0.00     0.010 A 
HETATM   21  C   UNK N   1      27.153  28.887  -5.305  0.00  0.00     0.037 A 
HETATM   22  C   UNK N   1      26.110  28.669  -4.410  0.00  0.00     0.065 A 
HETATM   23  C   UNK N   1      25.181  27.649  -4.650  0.00  0.00     0.037 A 
HETATM   24  C   UNK N   1      25.309  26.836  -5.782  0.00  0.00     0.010 A 
BRANCH  22  25
HETATM   25  O   UNK N   1      26.003  29.434  -3.314  0.00  0.00    -0.361 OA
HETATM   26  H   UNK N   1      26.086  29.049  -2.463  0.00  0.00     0.217 HD
ENDBRANCH  22  25
ENDBRANCH  18  19
ENDBRANCH  17  18
ENDBRANCH   1  17
TORSDOF 8
ENDMDL
MODEL 5
REMARK VINA RESULT:      -6.5     11.728     15.275
REMARK  8 active torsions:
REMARK  status: ('A' for Active; 'I' for Inactive)
REMARK    1  A    between atoms: C_3  and  O_12 
REMARK    2  A    between atoms: C_6  and  C_7 
REMARK    3  A    between atoms: C_7  and  C_8 
REMARK    4  A    between atoms: C_8  and  N_9 
REMARK       I    between atoms: N_9  and  C_10 
REMARK    5  A    between atoms: C_10  and  C_15 
REMARK    6  A    between atoms: C_13  and  C_14 
REMARK    7  A    between atoms: C_18  and  O_22 
REMARK    8  A    between atoms: C_19  and  O_21 
ROOT
HETATM    1  N   UNK N   1      31.178  22.578  -3.377  0.00  0.00    -0.357 N 
HETATM    2  C   UNK N   1      30.254  23.125  -2.554  0.00  0.00     0.241 C 
HETATM    3  O   UNK N   1      30.358  23.008  -1.348  0.00  0.00    -0.269 OA
HETATM    4  H   UNK N   1      31.967  22.137  -2.986  0.00  0.00     0.162 HD
ENDROOT
BRANCH   2   5
HETATM    5  C   UNK N   1      29.141  23.856  -3.157  0.00  0.00     0.075 C 
HETATM    6  C   UNK N   1      27.843  23.780  -2.881  0.00  0.00     0.017 C 
BRANCH   6   7
HETATM    7  C   UNK N   1      26.968  24.707  -3.620  0.00  0.00    -0.033 A 
HETATM    8  C   UNK N   1      26.473  24.336  -4.886  0.00  0.00     0.014 A 
HETATM    9  C   UNK N   1      25.668  25.197  -5.617  0.00  0.00     0.040 A 
HETATM   10  C   UNK N   1      25.342  26.445  -5.098  0.00  0.00     0.098 A 
HETATM   11  C   UNK N   1      25.825  26.831  -3.836  0.00  0.00     0.099 A 
HETATM   12  C   UNK N   1      26.640  25.961  -3.097  0.00  0.00     0.050 A 
BRANCH  10  13
HETATM   13  O   UNK N   1      24.565  27.273  -5.813  0.00  0.00    -0.358 OA
HETATM   14  H   UNK N   1      24.430  27.117  -6.727  0.00  0.00     0.217 HD
ENDBRANCH  10  13
BRANCH  11  15
HETATM   15  O   UNK N   1      25.511  28.035  -3.334  0.00  0.00    -0.358 OA
HETATM   16  H   UNK N   1      25.422  28.774  -3.903  0.00  0.00     0.217 HD
ENDBRANCH  11  15
ENDBRANCH   6   7
ENDBRANCH   2   5
BRANCH   1  17
HETATM   17  C   UNK N   1      31.040  22.628  -4.820  0.00  0.00     0.127 C 
BRANCH  17  18
HETATM   18  C   UNK N   1      30.888  21.244  -5.451  0.00  0.00     0.058 C 
BRANCH  18  19
HETATM   19  C   UNK N   1      29.736  21.111  -6.406  0.00  0.00    -0.057 A 
HETATM   20  C   UNK N   1      29.605  19.991  -7.240  0.00  0.00     0.010 A 
HETATM   21  C   UNK N   1      28.583  19.918  -8.180  0.00  0.00     0.037 A 
HETATM   22  C   UNK N   1      27.677  20.968  -8.298  0.00  0.00     0.065 A 
HETATM   23  C   UNK N   1      27.788  22.088  -7.466  0.00  0.00     0.037 A 
HETATM   24  C   UNK N   1      28.820  22.162  -6.523  0.00  0.00     0.010 A 
BRANCH  22  25
HETATM   25  O   UNK N   1      26.704  20.906  -9.219  0.00  0.00    -0.361 OA
HETATM   26  H   UNK N   1      25.881  20.509  -9.008  0.00  0.00     0.217 HD
ENDBRANCH  22  25
ENDBRANCH  18  19
ENDBRANCH  17  18
ENDBRANCH   1  17
TORSDOF 8
ENDMDL
MODEL 6
REMARK VINA RESULT:      -6.4     12.381     15.073
REMARK  8 active torsions:
REMARK  status: ('A' for Active; 'I' for Inactive)
REMARK    1  A    between atoms: C_3  and  O_12 
REMARK    2  A    between atoms: C_6  and  C_7 
REMARK    3  A    between atoms: C_7  and  C_8 
REMARK    4  A    between atoms: C_8  and  N_9 
REMARK       I    between atoms: N_9  and  C_10 
REMARK    5  A    between atoms: C_10  and  C_15 
REMARK    6  A    between atoms: C_13  and  C_14 
REMARK    7  A    between atoms: C_18  and  O_22 
REMARK    8  A    between atoms: C_19  and  O_21 
ROOT
HETATM    1  N   UNK N   1      27.160  28.585  -4.187  0.00  0.00    -0.357 N 
HETATM    2  C   UNK N   1      28.435  28.223  -4.458  0.00  0.00     0.241 C 
HETATM    3  O   UNK N   1      29.238  29.047  -4.848  0.00  0.00    -0.269 OA
HETATM    4  H   UNK N   1      26.907  29.535  -4.253  0.00  0.00     0.162 HD
ENDROOT
BRANCH   2   5
HETATM    5  C   UNK N   1      28.809  26.824  -4.263  0.00  0.00     0.075 C 
HETATM    6  C   UNK N   1      29.093  25.900  -5.175  0.00  0.00     0.017 C 
BRANCH   6   7
HETATM    7  C   UNK N   1      29.509  24.584  -4.657  0.00  0.00    -0.033 A 
HETATM    8  C   UNK N   1      29.532  23.472  -5.522  0.00  0.00     0.014 A 
HETATM    9  C   UNK N   1      29.894  22.216  -5.058  0.00  0.00     0.040 A 
HETATM   10  C   UNK N   1      30.240  22.047  -3.722  0.00  0.00     0.098 A 
HETATM   11  C   UNK N   1      30.224  23.146  -2.846  0.00  0.00     0.099 A 
HETATM   12  C   UNK N   1      29.857  24.415  -3.314  0.00  0.00     0.050 A 
BRANCH  10  13
HETATM   13  O   UNK N   1      30.586  20.827  -3.281  0.00  0.00    -0.358 OA
HETATM   14  H   UNK N   1      29.978  20.319  -2.781  0.00  0.00     0.217 HD
ENDBRANCH  10  13
BRANCH  11  15
HETATM   15  O   UNK N   1      30.557  22.983  -1.556  0.00  0.00    -0.358 OA
HETATM   16  H   UNK N   1      30.262  23.597  -0.912  0.00  0.00     0.217 HD
ENDBRANCH  11  15
ENDBRANCH   6   7
ENDBRANCH   2   5
BRANCH   1  17
HETATM   17  C   UNK N   1      26.155  27.613  -3.799  0.00  0.00     0.127 C 
BRANCH  17  18
HETATM   18  C   UNK N   1      25.163  27.303  -4.920  0.00  0.00     0.058 C 
BRANCH  18  19
HETATM   19  C   UNK N   1      25.471  26.061  -5.707  0.00  0.00    -0.057 A 
HETATM   20  C   UNK N   1      25.534  24.802  -5.090  0.00  0.00     0.010 A 
HETATM   21  C   UNK N   1      25.904  23.673  -5.811  0.00  0.00     0.037 A 
HETATM   22  C   UNK N   1      26.217  23.789  -7.162  0.00  0.00     0.065 A 
HETATM   23  C   UNK N   1      26.148  25.035  -7.795  0.00  0.00     0.037 A 
HETATM   24  C   UNK N   1      25.780  26.172  -7.066  0.00  0.00     0.010 A 
BRANCH  22  25
HETATM   25  O   UNK N   1      26.593  22.702  -7.853  0.00  0.00    -0.361 OA
HETATM   26  H   UNK N   1      26.461  22.665  -8.780  0.00  0.00     0.217 HD
ENDBRANCH  22  25
ENDBRANCH  18  19
ENDBRANCH  17  18
ENDBRANCH   1  17
TORSDOF 8
ENDMDL
MODEL 7
REMARK VINA RESULT:      -6.4     13.299     16.073
REMARK  8 active torsions:
REMARK  status: ('A' for Active; 'I' for Inactive)
REMARK    1  A    between atoms: C_3  and  O_12 
REMARK    2  A    between atoms: C_6  and  C_7 
REMARK    3  A    between atoms: C_7  and  C_8 
REMARK    4  A    between atoms: C_8  and  N_9 
REMARK       I    between atoms: N_9  and  C_10 
REMARK    5  A    between atoms: C_10  and  C_15 
REMARK    6  A    between atoms: C_13  and  C_14 
REMARK    7  A    between atoms: C_18  and  O_22 
REMARK    8  A    between atoms: C_19  and  O_21 
ROOT
HETATM    1  N   UNK N   1      25.969  23.168  -7.920  0.00  0.00    -0.357 N 
HETATM    2  C   UNK N   1      25.659  24.424  -8.318  0.00  0.00     0.241 C 
HETATM    3  O   UNK N   1      25.186  24.620  -9.421  0.00  0.00    -0.269 OA
HETATM    4  H   UNK N   1      25.752  22.411  -8.511  0.00  0.00     0.162 HD
ENDROOT
BRANCH   2   5
HETATM    5  C   UNK N   1      25.905  25.522  -7.387  0.00  0.00     0.075 C 
HETATM    6  C   UNK N   1      26.920  26.380  -7.355  0.00  0.00     0.017 C 
BRANCH   6   7
HETATM    7  C   UNK N   1      26.848  27.432  -6.324  0.00  0.00    -0.033 A 
HETATM    8  C   UNK N   1      27.617  28.602  -6.470  0.00  0.00     0.014 A 
HETATM    9  C   UNK N   1      27.591  29.598  -5.505  0.00  0.00     0.040 A 
HETATM   10  C   UNK N   1      26.795  29.443  -4.375  0.00  0.00     0.098 A 
HETATM   11  C   UNK N   1      26.020  28.282  -4.214  0.00  0.00     0.099 A 
HETATM   12  C   UNK N   1      26.048  27.275  -5.189  0.00  0.00     0.050 A 
BRANCH  10  13
HETATM   13  O   UNK N   1      26.777  30.410  -3.445  0.00  0.00    -0.358 OA
HETATM   14  H   UNK N   1      26.761  31.310  -3.703  0.00  0.00     0.217 HD
ENDBRANCH  10  13
BRANCH  11  15
HETATM   15  O   UNK N   1      25.252  28.131  -3.124  0.00  0.00    -0.358 OA
HETATM   16  H   UNK N   1      24.471  28.640  -3.023  0.00  0.00     0.217 HD
ENDBRANCH  11  15
ENDBRANCH   6   7
ENDBRANCH   2   5
BRANCH   1  17
HETATM   17  C   UNK N   1      26.611  22.908  -6.645  0.00  0.00     0.127 C 
BRANCH  17  18
HETATM   18  C   UNK N   1      28.135  22.864  -6.744  0.00  0.00     0.058 C 
BRANCH  18  19
HETATM   19  C   UNK N   1      28.854  22.933  -5.427  0.00  0.00    -0.057 A 
HETATM   20  C   UNK N   1      29.840  21.997  -5.083  0.00  0.00     0.010 A 
HETATM   21  C   UNK N   1      30.437  22.018  -3.828  0.00  0.00     0.037 A 
HETATM   22  C   UNK N   1      30.053  22.980  -2.898  0.00  0.00     0.065 A 
HETATM   23  C   UNK N   1      29.079  23.929  -3.229  0.00  0.00     0.037 A 
HETATM   24  C   UNK N   1      28.475  23.902  -4.492  0.00  0.00     0.010 A 
BRANCH  22  25
HETATM   25  O   UNK N   1      30.615  22.988  -1.680  0.00  0.00    -0.361 OA
HETATM   26  H   UNK N   1      31.497  22.692  -1.567  0.00  0.00     0.217 HD
ENDBRANCH  22  25
ENDBRANCH  18  19
ENDBRANCH  17  18
ENDBRANCH   1  17
TORSDOF 8
ENDMDL
MODEL 8
REMARK VINA RESULT:      -6.3     12.688     15.057
REMARK  8 active torsions:
REMARK  status: ('A' for Active; 'I' for Inactive)
REMARK    1  A    between atoms: C_3  and  O_12 
REMARK    2  A    between atoms: C_6  and  C_7 
REMARK    3  A    between atoms: C_7  and  C_8 
REMARK    4  A    between atoms: C_8  and  N_9 
REMARK       I    between atoms: N_9  and  C_10 
REMARK    5  A    between atoms: C_10  and  C_15 
REMARK    6  A    between atoms: C_13  and  C_14 
REMARK    7  A    between atoms: C_18  and  O_22 
REMARK    8  A    between atoms: C_19  and  O_21 
ROOT
HETATM    1  N   UNK N   1      25.567  24.626  -6.652  0.00  0.00    -0.357 N 
HETATM    2  C   UNK N   1      26.279  23.532  -7.007  0.00  0.00     0.241 C 
HETATM    3  O   UNK N   1      26.015  22.933  -8.032  0.00  0.00    -0.269 OA
HETATM    4  H   UNK N   1      24.872  24.966  -7.262  0.00  0.00     0.162 HD
ENDROOT
BRANCH   2   5
HETATM    5  C   UNK N   1      27.365  23.103  -6.131  0.00  0.00     0.075 C 
HETATM    6  C   UNK N   1      28.588  22.691  -6.453  0.00  0.00     0.017 C 
BRANCH   6   7
HETATM    7  C   UNK N   1      29.489  22.390  -5.326  0.00  0.00    -0.033 A 
HETATM    8  C   UNK N   1      30.222  21.187  -5.323  0.00  0.00     0.014 A 
HETATM    9  C   UNK N   1      31.059  20.864  -4.265  0.00  0.00     0.040 A 
HETATM   10  C   UNK N   1      31.179  21.737  -3.189  0.00  0.00     0.098 A 
HETATM   11  C   UNK N   1      30.456  22.942  -3.176  0.00  0.00     0.099 A 
HETATM   12  C   UNK N   1      29.610  23.268  -4.245  0.00  0.00     0.050 A 
BRANCH  10  13
HETATM   13  O   UNK N   1      31.988  21.415  -2.168  0.00  0.00    -0.358 OA
HETATM   14  H   UNK N   1      32.387  22.090  -1.654  0.00  0.00     0.217 HD
ENDBRANCH  10  13
BRANCH  11  15
HETATM   15  O   UNK N   1      30.571  23.785  -2.138  0.00  0.00    -0.358 OA
HETATM   16  H   UNK N   1      29.863  24.355  -1.912  0.00  0.00     0.217 HD
ENDBRANCH  11  15
ENDBRANCH   6   7
ENDBRANCH   2   5
BRANCH   1  17
HETATM   17  C   UNK N   1      25.801  25.314  -5.396  0.00  0.00     0.127 C 
BRANCH  17  18
HETATM   18  C   UNK N   1      25.119  26.681  -5.330  0.00  0.00     0.058 C 
BRANCH  18  19
HETATM   19  C   UNK N   1      26.057  27.854  -5.365  0.00  0.00    -0.057 A 
HETATM   20  C   UNK N   1      27.023  27.987  -6.374  0.00  0.00     0.010 A 
HETATM   21  C   UNK N   1      27.941  29.030  -6.348  0.00  0.00     0.037 A 
HETATM   22  C   UNK N   1      27.905  29.956  -5.310  0.00  0.00     0.065 A 
HETATM   23  C   UNK N   1      26.940  29.844  -4.302  0.00  0.00     0.037 A 
HETATM   24  C   UNK N   1      26.019  28.790  -4.327  0.00  0.00     0.010 A 
BRANCH  22  25
HETATM   25  O   UNK N   1      28.804  30.951  -5.275  0.00  0.00    -0.361 OA
HETATM   26  H   UNK N   1      29.303  31.107  -4.497  0.00  0.00     0.217 HD
ENDBRANCH  22  25
ENDBRANCH  18  19
ENDBRANCH  17  18
ENDBRANCH   1  17
TORSDOF 8
ENDMDL
MODEL 9
REMARK VINA RESULT:      -6.3      2.368      5.540
REMARK  8 active torsions:
REMARK  status: ('A' for Active; 'I' for Inactive)
REMARK    1  A    between atoms: C_3  and  O_12 
REMARK    2  A    between atoms: C_6  and  C_7 
REMARK    3  A    between atoms: C_7  and  C_8 
REMARK    4  A    between atoms: C_8  and  N_9 
REMARK       I    between atoms: N_9  and  C_10 
REMARK    5  A    between atoms: C_10  and  C_15 
REMARK    6  A    between atoms: C_13  and  C_14 
REMARK    7  A    between atoms: C_18  and  O_22 
REMARK    8  A    between atoms: C_19  and  O_21 
ROOT
HETATM    1  N   UNK N   1      28.399  18.170   8.108  0.00  0.00    -0.357 N 
HETATM    2  C   UNK N   1      28.208  18.244   6.770  0.00  0.00     0.241 C 
HETATM    3  O   UNK N   1      27.270  18.870   6.317  0.00  0.00    -0.269 OA
HETATM    4  H   UNK N   1      27.804  18.679   8.706  0.00  0.00     0.162 HD
ENDROOT
BRANCH   2   5
HETATM    5  C   UNK N   1      29.160  17.556   5.901  0.00  0.00     0.075 C 
HETATM    6  C   UNK N   1      29.942  18.061   4.952  0.00  0.00     0.017 C 
BRANCH   6   7
HETATM    7  C   UNK N   1      30.854  17.111   4.290  0.00  0.00    -0.033 A 
HETATM    8  C   UNK N   1      32.146  17.531   3.919  0.00  0.00     0.014 A 
HETATM    9  C   UNK N   1      33.019  16.669   3.272  0.00  0.00     0.040 A 
HETATM   10  C   UNK N   1      32.616  15.370   2.982  0.00  0.00     0.098 A 
HETATM   11  C   UNK N   1      31.330  14.933   3.345  0.00  0.00     0.099 A 
HETATM   12  C   UNK N   1      30.448  15.806   3.999  0.00  0.00     0.050 A 
BRANCH  10  13
HETATM   13  O   UNK N   1      33.465  14.542   2.352  0.00  0.00    -0.358 OA
HETATM   14  H   UNK N   1      33.754  13.757   2.773  0.00  0.00     0.217 HD
ENDBRANCH  10  13
BRANCH  11  15
HETATM   15  O   UNK N   1      30.941  13.680   3.065  0.00  0.00    -0.358 OA
HETATM   16  H   UNK N   1      30.047  13.501   2.848  0.00  0.00     0.217 HD
ENDBRANCH  11  15
ENDBRANCH   6   7
ENDBRANCH   2   5
BRANCH   1  17
HETATM   17  C   UNK N   1      29.458  17.364   8.686  0.00  0.00     0.127 C 
BRANCH  17  18
HETATM   18  C   UNK N   1      30.759  18.143   8.882  0.00  0.00     0.058 C 
BRANCH  18  19
HETATM   19  C   UNK N   1      31.963  17.533   8.223  0.00  0.00    -0.057 A 
HETATM   20  C   UNK N   1      33.130  18.279   8.002  0.00  0.00     0.010 A 
HETATM   21  C   UNK N   1      34.207  17.731   7.314  0.00  0.00     0.037 A 
HETATM   22  C   UNK N   1      34.128  16.426   6.837  0.00  0.00     0.065 A 
HETATM   23  C   UNK N   1      32.975  15.665   7.059  0.00  0.00     0.037 A 
HETATM   24  C   UNK N   1      31.890  16.220   7.747  0.00  0.00     0.010 A 
BRANCH  22  25
HETATM   25  O   UNK N   1      35.160  15.904   6.155  0.00  0.00    -0.361 OA
HETATM   26  H   UNK N   1      35.023  15.177   5.580  0.00  0.00     0.217 HD
ENDBRANCH  22  25
ENDBRANCH  18  19
ENDBRANCH  17  18
ENDBRANCH   1  17
TORSDOF 8
ENDMDL
