MODEL 1
REMARK VINA RESULT:      -6.3      0.000      0.000
REMARK  11 active torsions:
REMARK  status: ('A' for Active; 'I' for Inactive)
REMARK    1  A    between atoms: C_7  and  C_6 
REMARK    2  A    between atoms: C_8  and  C_6 
REMARK    3  A    between atoms: C_13  and  C_7 
REMARK    4  A    between atoms: C_14  and  C_8 
REMARK    5  A    between atoms: C_10  and  C_9 
REMARK    6  A    between atoms: C_13  and  C_9 
REMARK    7  A    between atoms: C_18  and  C_10 
REMARK    8  A    between atoms: C_14  and  C_11 
REMARK    9  A    between atoms: C_20  and  C_11 
REMARK   10  A    between atoms: O_21  and  C_19 
REMARK   11  A    between atoms: O_23  and  C_20 
ROOT
HETATM    1  C   UNK N   1      26.410  24.968  -7.364  0.00  0.00     0.007 C 
ENDROOT
BRANCH   1   2
HETATM    2  C   UNK N   1      26.060  26.281  -7.348  0.00  0.00     0.013 C 
BRANCH   2   3
HETATM    3  C   UNK N   1      26.793  27.469  -6.777  0.00  0.00    -0.024 A 
HETATM    4  C   UNK N   1      27.941  27.925  -7.495  0.00  0.00    -0.049 A 
HETATM    5  C   UNK N   1      28.426  27.267  -8.749  0.00  0.00     0.049 C 
HETATM    6  C   UNK N   1      28.653  29.036  -7.067  0.00  0.00     0.044 A 
HETATM    7  C   UNK N   1      28.277  29.728  -5.930  0.00  0.00     0.072 A 
HETATM    8  C   UNK N   1      27.170  29.307  -5.186  0.00  0.00    -0.022 A 
HETATM    9  C   UNK N   1      26.794  30.071  -3.953  0.00  0.00     0.052 C 
HETATM   10  C   UNK N   1      26.419  28.181  -5.595  0.00  0.00    -0.043 A 
HETATM   11  C   UNK N   1      25.259  27.774  -4.748  0.00  0.00     0.049 C 
BRANCH   7  12
HETATM   12  O   UNK N   1      28.988  30.805  -5.553  0.00  0.00    -0.360 OA
HETATM   13  H   UNK N   1      29.448  30.801  -4.736  0.00  0.00     0.217 HD
ENDBRANCH   7  12
ENDBRANCH   2   3
ENDBRANCH   1   2
BRANCH   1  14
HETATM   14  C   UNK N   1      25.887  23.983  -6.355  0.00  0.00    -0.062 C 
HETATM   15  C   UNK N   1      25.882  22.532  -6.727  0.00  0.00     0.048 C 
BRANCH  14  16
HETATM   16  C   UNK N   1      25.476  24.375  -5.124  0.00  0.00     0.007 C 
BRANCH  16  17
HETATM   17  C   UNK N   1      26.264  24.267  -3.877  0.00  0.00     0.001 C 
BRANCH  17  18
HETATM   18  C   UNK N   1      27.301  25.111  -3.720  0.00  0.00     0.007 C 
BRANCH  18  19
HETATM   19  C   UNK N   1      28.720  24.748  -3.940  0.00  0.00    -0.056 C 
HETATM   20  C   UNK N   1      29.650  25.716  -4.607  0.00  0.00     0.048 C 
BRANCH  19  21
HETATM   21  C   UNK N   1      29.131  23.526  -3.522  0.00  0.00     0.087 C 
BRANCH  21  22
HETATM   22  C   UNK N   1      29.352  23.131  -2.109  0.00  0.00     0.165 C 
HETATM   23  O   UNK N   1      28.424  22.877  -1.364  0.00  0.00    -0.647 OA
BRANCH  22  24
HETATM   24  O   UNK N   1      30.615  23.053  -1.645  0.00  0.00    -0.773 OA
HETATM   25  H   UNK N   1      31.069  23.830  -1.385  0.00  0.00     0.167 HD
ENDBRANCH  22  24
ENDBRANCH  21  22
ENDBRANCH  19  21
ENDBRANCH  18  19
ENDBRANCH  17  18
ENDBRANCH  16  17
ENDBRANCH  14  16
ENDBRANCH   1  14
TORSDOF 11
ENDMDL
MODEL 2
REMARK VINA RESULT:      -6.2      1.640      3.202
REMARK  11 active torsions:
REMARK  status: ('A' for Active; 'I' for Inactive)
REMARK    1  A    between atoms: C_7  and  C_6 
REMARK    2  A    between atoms: C_8  and  C_6 
REMARK    3  A    between atoms: C_13  and  C_7 
REMARK    4  A    between atoms: C_14  and  C_8 
REMARK    5  A    between atoms: C_10  and  C_9 
REMARK    6  A    between atoms: C_13  and  C_9 
REMARK    7  A    between atoms: C_18  and  C_10 
REMARK    8  A    between atoms: C_14  and  C_11 
REMARK    9  A    between atoms: C_20  and  C_11 
REMARK   10  A    between atoms: O_21  and  C_19 
REMARK   11  A    between atoms: O_23  and  C_20 
ROOT
HETATM    1  C   UNK N   1      25.396  24.834  -5.233  0.00  0.00     0.007 C 
ENDROOT
BRANCH   1   2
HETATM    2  C   UNK N   1      25.221  26.072  -5.764  0.00  0.00     0.013 C 
BRANCH   2   3
HETATM    3  C   UNK N   1      26.240  27.134  -6.095  0.00  0.00    -0.024 A 
HETATM    4  C   UNK N   1      26.442  28.160  -5.122  0.00  0.00    -0.049 A 
HETATM    5  C   UNK N   1      25.684  28.214  -3.832  0.00  0.00     0.049 C 
HETATM    6  C   UNK N   1      27.388  29.155  -5.322  0.00  0.00     0.044 A 
HETATM    7  C   UNK N   1      28.156  29.185  -6.472  0.00  0.00     0.072 A 
HETATM    8  C   UNK N   1      27.980  28.211  -7.460  0.00  0.00    -0.022 A 
HETATM    9  C   UNK N   1      28.819  28.278  -8.699  0.00  0.00     0.052 C 
HETATM   10  C   UNK N   1      27.027  27.181  -7.287  0.00  0.00    -0.043 A 
HETATM   11  C   UNK N   1      26.877  26.182  -8.387  0.00  0.00     0.049 C 
BRANCH   7  12
HETATM   12  O   UNK N   1      29.068  30.161  -6.625  0.00  0.00    -0.360 OA
HETATM   13  H   UNK N   1      29.222  30.531  -7.472  0.00  0.00     0.217 HD
ENDBRANCH   7  12
ENDBRANCH   2   3
ENDBRANCH   1   2
BRANCH   1  14
HETATM   14  C   UNK N   1      26.750  24.307  -4.847  0.00  0.00    -0.062 C 
HETATM   15  C   UNK N   1      27.188  24.469  -3.424  0.00  0.00     0.048 C 
BRANCH  14  16
HETATM   16  C   UNK N   1      27.542  23.659  -5.736  0.00  0.00     0.007 C 
BRANCH  16  17
HETATM   17  C   UNK N   1      29.007  23.489  -5.623  0.00  0.00     0.001 C 
BRANCH  17  18
HETATM   18  C   UNK N   1      29.505  22.249  -5.789  0.00  0.00     0.007 C 
BRANCH  18  19
HETATM   19  C   UNK N   1      30.232  21.490  -4.744  0.00  0.00    -0.056 C 
HETATM   20  C   UNK N   1      31.260  20.471  -5.133  0.00  0.00     0.048 C 
BRANCH  19  21
HETATM   21  C   UNK N   1      29.930  21.752  -3.449  0.00  0.00     0.087 C 
BRANCH  21  22
HETATM   22  C   UNK N   1      30.873  22.297  -2.442  0.00  0.00     0.165 C 
HETATM   23  O   UNK N   1      32.053  21.999  -2.445  0.00  0.00    -0.647 OA
BRANCH  22  24
HETATM   24  O   UNK N   1      30.406  23.143  -1.503  0.00  0.00    -0.773 OA
HETATM   25  H   UNK N   1      30.792  23.990  -1.400  0.00  0.00     0.167 HD
ENDBRANCH  22  24
ENDBRANCH  21  22
ENDBRANCH  19  21
ENDBRANCH  18  19
ENDBRANCH  17  18
ENDBRANCH  16  17
ENDBRANCH  14  16
ENDBRANCH   1  14
TORSDOF 11
ENDMDL
MODEL 3
REMARK VINA RESULT:      -6.2      1.594      2.348
REMARK  11 active torsions:
REMARK  status: ('A' for Active; 'I' for Inactive)
REMARK    1  A    between atoms: C_7  and  C_6 
REMARK    2  A    between atoms: C_8  and  C_6 
REMARK    3  A    between atoms: C_13  and  C_7 
REMARK    4  A    between atoms: C_14  and  C_8 
REMARK    5  A    between atoms: C_10  and  C_9 
REMARK    6  A    between atoms: C_13  and  C_9 
REMARK    7  A    between atoms: C_18  and  C_10 
REMARK    8  A    between atoms: C_14  and  C_11 
REMARK    9  A    between atoms: C_20  and  C_11 
REMARK   10  A    between atoms: O_21  and  C_19 
REMARK   11  A    between atoms: O_23  and  C_20 
ROOT
HETATM    1  C   UNK N   1      25.563  24.812  -5.317  0.00  0.00     0.007 C 
ENDROOT
BRANCH   1   2
HETATM    2  C   UNK N   1      25.421  25.989  -5.983  0.00  0.00     0.013 C 
BRANCH   2   3
HETATM    3  C   UNK N   1      26.363  27.164  -6.080  0.00  0.00    -0.024 A 
HETATM    4  C   UNK N   1      27.184  27.239  -7.246  0.00  0.00    -0.049 A 
HETATM    5  C   UNK N   1      27.145  26.208  -8.331  0.00  0.00     0.049 C 
HETATM    6  C   UNK N   1      28.050  28.305  -7.440  0.00  0.00     0.044 A 
HETATM    7  C   UNK N   1      28.148  29.321  -6.506  0.00  0.00     0.072 A 
HETATM    8  C   UNK N   1      27.376  29.280  -5.340  0.00  0.00    -0.022 A 
HETATM    9  C   UNK N   1      27.512  30.389  -4.343  0.00  0.00     0.052 C 
HETATM   10  C   UNK N   1      26.481  28.209  -5.112  0.00  0.00    -0.043 A 
HETATM   11  C   UNK N   1      25.697  28.217  -3.841  0.00  0.00     0.049 C 
BRANCH   7  12
HETATM   12  O   UNK N   1      28.993  30.341  -6.734  0.00  0.00    -0.360 OA
HETATM   13  H   UNK N   1      28.698  31.226  -6.636  0.00  0.00     0.217 HD
ENDBRANCH   7  12
ENDBRANCH   2   3
ENDBRANCH   1   2
BRANCH   1  14
HETATM   14  C   UNK N   1      26.871  24.383  -4.711  0.00  0.00    -0.062 C 
HETATM   15  C   UNK N   1      26.984  24.373  -3.218  0.00  0.00     0.048 C 
BRANCH  14  16
HETATM   16  C   UNK N   1      27.908  23.966  -5.478  0.00  0.00     0.007 C 
BRANCH  16  17
HETATM   17  C   UNK N   1      29.277  24.526  -5.455  0.00  0.00     0.001 C 
BRANCH  17  18
HETATM   18  C   UNK N   1      30.290  23.709  -5.801  0.00  0.00     0.007 C 
BRANCH  18  19
HETATM   19  C   UNK N   1      30.735  22.541  -5.006  0.00  0.00    -0.056 C 
HETATM   20  C   UNK N   1      30.168  21.181  -5.283  0.00  0.00     0.048 C 
BRANCH  19  21
HETATM   21  C   UNK N   1      31.657  22.753  -4.035  0.00  0.00     0.087 C 
BRANCH  21  22
HETATM   22  C   UNK N   1      31.515  22.353  -2.614  0.00  0.00     0.165 C 
HETATM   23  O   UNK N   1      30.696  22.876  -1.882  0.00  0.00    -0.647 OA
BRANCH  22  24
HETATM   24  O   UNK N   1      32.316  21.383  -2.127  0.00  0.00    -0.773 OA
HETATM   25  H   UNK N   1      32.192  20.494  -2.395  0.00  0.00     0.167 HD
ENDBRANCH  22  24
ENDBRANCH  21  22
ENDBRANCH  19  21
ENDBRANCH  18  19
ENDBRANCH  17  18
ENDBRANCH  16  17
ENDBRANCH  14  16
ENDBRANCH   1  14
TORSDOF 11
ENDMDL
MODEL 4
REMARK VINA RESULT:      -6.1      1.881      4.529
REMARK  11 active torsions:
REMARK  status: ('A' for Active; 'I' for Inactive)
REMARK    1  A    between atoms: C_7  and  C_6 
REMARK    2  A    between atoms: C_8  and  C_6 
REMARK    3  A    between atoms: C_13  and  C_7 
REMARK    4  A    between atoms: C_14  and  C_8 
REMARK    5  A    between atoms: C_10  and  C_9 
REMARK    6  A    between atoms: C_13  and  C_9 
REMARK    7  A    between atoms: C_18  and  C_10 
REMARK    8  A    between atoms: C_14  and  C_11 
REMARK    9  A    between atoms: C_20  and  C_11 
REMARK   10  A    between atoms: O_21  and  C_19 
REMARK   11  A    between atoms: O_23  and  C_20 
ROOT
HETATM    1  C   UNK N   1      29.962  29.981  -5.127  0.00  0.00     0.007 C 
ENDROOT
BRANCH   1   2
HETATM    2  C   UNK N   1      28.663  30.106  -5.507  0.00  0.00     0.013 C 
BRANCH   2   3
HETATM    3  C   UNK N   1      27.574  29.064  -5.583  0.00  0.00    -0.024 A 
HETATM    4  C   UNK N   1      26.644  29.023  -4.501  0.00  0.00    -0.049 A 
HETATM    5  C   UNK N   1      26.726  29.947  -3.326  0.00  0.00     0.049 C 
HETATM    6  C   UNK N   1      25.586  28.126  -4.505  0.00  0.00     0.044 A 
HETATM    7  C   UNK N   1      25.407  27.240  -5.553  0.00  0.00     0.072 A 
HETATM    8  C   UNK N   1      26.304  27.233  -6.626  0.00  0.00    -0.022 A 
HETATM    9  C   UNK N   1      26.091  26.255  -7.741  0.00  0.00     0.052 C 
HETATM   10  C   UNK N   1      27.392  28.136  -6.656  0.00  0.00    -0.043 A 
HETATM   11  C   UNK N   1      28.323  28.066  -7.821  0.00  0.00     0.049 C 
BRANCH   7  12
HETATM   12  O   UNK N   1      24.365  26.392  -5.524  0.00  0.00    -0.360 OA
HETATM   13  H   UNK N   1      23.893  26.201  -6.311  0.00  0.00     0.217 HD
ENDBRANCH   7  12
ENDBRANCH   2   3
ENDBRANCH   1   2
BRANCH   1  14
HETATM   14  C   UNK N   1      30.398  29.021  -4.054  0.00  0.00    -0.062 C 
HETATM   15  C   UNK N   1      30.565  29.551  -2.663  0.00  0.00     0.048 C 
BRANCH  14  16
HETATM   16  C   UNK N   1      30.590  27.705  -4.312  0.00  0.00     0.007 C 
BRANCH  16  17
HETATM   17  C   UNK N   1      29.864  26.586  -3.673  0.00  0.00     0.001 C 
BRANCH  17  18
HETATM   18  C   UNK N   1      29.134  25.781  -4.469  0.00  0.00     0.007 C 
BRANCH  18  19
HETATM   19  C   UNK N   1      28.455  24.545  -4.016  0.00  0.00    -0.056 C 
HETATM   20  C   UNK N   1      26.960  24.445  -4.068  0.00  0.00     0.048 C 
BRANCH  19  21
HETATM   21  C   UNK N   1      29.230  23.530  -3.561  0.00  0.00     0.087 C 
BRANCH  21  22
HETATM   22  C   UNK N   1      29.401  23.154  -2.137  0.00  0.00     0.165 C 
HETATM   23  O   UNK N   1      30.503  23.075  -1.625  0.00  0.00    -0.647 OA
BRANCH  22  24
HETATM   24  O   UNK N   1      28.306  22.895  -1.395  0.00  0.00    -0.773 OA
HETATM   25  H   UNK N   1      28.332  23.004  -0.465  0.00  0.00     0.167 HD
ENDBRANCH  22  24
ENDBRANCH  21  22
ENDBRANCH  19  21
ENDBRANCH  18  19
ENDBRANCH  17  18
ENDBRANCH  16  17
ENDBRANCH  14  16
ENDBRANCH   1  14
TORSDOF 11
ENDMDL
MODEL 5
REMARK VINA RESULT:      -6.0      1.486      2.418
REMARK  11 active torsions:
REMARK  status: ('A' for Active; 'I' for Inactive)
REMARK    1  A    between atoms: C_7  and  C_6 
REMARK    2  A    between atoms: C_8  and  C_6 
REMARK    3  A    between atoms: C_13  and  C_7 
REMARK    4  A    between atoms: C_14  and  C_8 
REMARK    5  A    between atoms: C_10  and  C_9 
REMARK    6  A    between atoms: C_13  and  C_9 
REMARK    7  A    between atoms: C_18  and  C_10 
REMARK    8  A    between atoms: C_14  and  C_11 
REMARK    9  A    between atoms: C_20  and  C_11 
REMARK   10  A    between atoms: O_21  and  C_19 
REMARK   11  A    between atoms: O_23  and  C_20 
ROOT
HETATM    1  C   UNK N   1      27.693  25.737  -7.894  0.00  0.00     0.007 C 
ENDROOT
BRANCH   1   2
HETATM    2  C   UNK N   1      26.855  26.783  -7.667  0.00  0.00     0.013 C 
BRANCH   2   3
HETATM    3  C   UNK N   1      26.750  27.693  -6.468  0.00  0.00    -0.024 A 
HETATM    4  C   UNK N   1      25.760  27.364  -5.493  0.00  0.00    -0.049 A 
HETATM    5  C   UNK N   1      24.846  26.186  -5.632  0.00  0.00     0.049 C 
HETATM    6  C   UNK N   1      25.618  28.120  -4.338  0.00  0.00     0.044 A 
HETATM    7  C   UNK N   1      26.427  29.219  -4.104  0.00  0.00     0.072 A 
HETATM    8  C   UNK N   1      27.398  29.589  -5.040  0.00  0.00    -0.022 A 
HETATM    9  C   UNK N   1      28.250  30.789  -4.762  0.00  0.00     0.052 C 
HETATM   10  C   UNK N   1      27.571  28.838  -6.226  0.00  0.00    -0.043 A 
HETATM   11  C   UNK N   1      28.614  29.295  -7.192  0.00  0.00     0.049 C 
BRANCH   7  12
HETATM   12  O   UNK N   1      26.264  29.921  -2.969  0.00  0.00    -0.360 OA
HETATM   13  H   UNK N   1      26.141  30.850  -3.006  0.00  0.00     0.217 HD
ENDBRANCH   7  12
ENDBRANCH   2   3
ENDBRANCH   1   2
BRANCH   1  14
HETATM   14  C   UNK N   1      27.461  24.376  -7.297  0.00  0.00    -0.062 C 
HETATM   15  C   UNK N   1      26.393  23.516  -7.900  0.00  0.00     0.048 C 
BRANCH  14  16
HETATM   16  C   UNK N   1      28.220  23.908  -6.275  0.00  0.00     0.007 C 
BRANCH  16  17
HETATM   17  C   UNK N   1      27.753  23.671  -4.892  0.00  0.00     0.001 C 
BRANCH  17  18
HETATM   18  C   UNK N   1      28.163  24.530  -3.940  0.00  0.00     0.007 C 
BRANCH  18  19
HETATM   19  C   UNK N   1      29.537  25.076  -3.838  0.00  0.00    -0.056 C 
HETATM   20  C   UNK N   1      29.790  26.531  -4.094  0.00  0.00     0.048 C 
BRANCH  19  21
HETATM   21  C   UNK N   1      30.534  24.218  -3.511  0.00  0.00     0.087 C 
BRANCH  21  22
HETATM   22  C   UNK N   1      30.391  23.031  -2.633  0.00  0.00     0.165 C 
HETATM   23  O   UNK N   1      30.400  23.128  -1.420  0.00  0.00    -0.647 OA
BRANCH  22  24
HETATM   24  O   UNK N   1      30.247  21.816  -3.200  0.00  0.00    -0.773 OA
HETATM   25  H   UNK N   1      30.958  21.433  -3.676  0.00  0.00     0.167 HD
ENDBRANCH  22  24
ENDBRANCH  21  22
ENDBRANCH  19  21
ENDBRANCH  18  19
ENDBRANCH  17  18
ENDBRANCH  16  17
ENDBRANCH  14  16
ENDBRANCH   1  14
TORSDOF 11
ENDMDL
MODEL 6
REMARK VINA RESULT:      -6.0      2.108      5.630
REMARK  11 active torsions:
REMARK  status: ('A' for Active; 'I' for Inactive)
REMARK    1  A    between atoms: C_7  and  C_6 
REMARK    2  A    between atoms: C_8  and  C_6 
REMARK    3  A    between atoms: C_13  and  C_7 
REMARK    4  A    between atoms: C_14  and  C_8 
REMARK    5  A    between atoms: C_10  and  C_9 
REMARK    6  A    between atoms: C_13  and  C_9 
REMARK    7  A    between atoms: C_18  and  C_10 
REMARK    8  A    between atoms: C_14  and  C_11 
REMARK    9  A    between atoms: C_20  and  C_11 
REMARK   10  A    between atoms: O_21  and  C_19 
REMARK   11  A    between atoms: O_23  and  C_20 
ROOT
HETATM    1  C   UNK N   1      27.691  24.475  -7.187  0.00  0.00     0.007 C 
ENDROOT
BRANCH   1   2
HETATM    2  C   UNK N   1      28.921  24.647  -6.634  0.00  0.00     0.013 C 
BRANCH   2   3
HETATM    3  C   UNK N   1      29.528  24.007  -5.410  0.00  0.00    -0.024 A 
HETATM    4  C   UNK N   1      29.778  24.860  -4.293  0.00  0.00    -0.049 A 
HETATM    5  C   UNK N   1      29.478  26.327  -4.310  0.00  0.00     0.049 C 
HETATM    6  C   UNK N   1      30.296  24.352  -3.110  0.00  0.00     0.044 A 
HETATM    7  C   UNK N   1      30.592  23.006  -2.984  0.00  0.00     0.072 A 
HETATM    8  C   UNK N   1      30.378  22.136  -4.058  0.00  0.00    -0.022 A 
HETATM    9  C   UNK N   1      30.718  20.687  -3.893  0.00  0.00     0.052 C 
HETATM   10  C   UNK N   1      29.849  22.620  -5.276  0.00  0.00    -0.043 A 
HETATM   11  C   UNK N   1      29.660  21.643  -6.389  0.00  0.00     0.049 C 
BRANCH   7  12
HETATM   12  O   UNK N   1      31.085  22.551  -1.819  0.00  0.00    -0.360 OA
HETATM   13  H   UNK N   1      31.562  23.127  -1.254  0.00  0.00     0.217 HD
ENDBRANCH   7  12
ENDBRANCH   2   3
ENDBRANCH   1   2
BRANCH   1  14
HETATM   14  C   UNK N   1      26.505  24.013  -6.385  0.00  0.00    -0.062 C 
HETATM   15  C   UNK N   1      25.909  22.679  -6.717  0.00  0.00     0.048 C 
BRANCH  14  16
HETATM   16  C   UNK N   1      26.011  24.746  -5.357  0.00  0.00     0.007 C 
BRANCH  16  17
HETATM   17  C   UNK N   1      24.984  25.804  -5.469  0.00  0.00     0.001 C 
BRANCH  17  18
HETATM   18  C   UNK N   1      25.332  26.948  -6.088  0.00  0.00     0.007 C 
BRANCH  18  19
HETATM   19  C   UNK N   1      26.186  28.000  -5.489  0.00  0.00    -0.056 C 
HETATM   20  C   UNK N   1      27.409  28.479  -6.212  0.00  0.00     0.048 C 
BRANCH  19  21
HETATM   21  C   UNK N   1      25.821  28.498  -4.283  0.00  0.00     0.087 C 
BRANCH  21  22
HETATM   22  C   UNK N   1      26.371  28.069  -2.974  0.00  0.00     0.165 C 
HETATM   23  O   UNK N   1      26.044  27.016  -2.458  0.00  0.00    -0.647 OA
BRANCH  22  24
HETATM   24  O   UNK N   1      27.257  28.868  -2.346  0.00  0.00    -0.773 OA
HETATM   25  H   UNK N   1      27.552  29.655  -2.758  0.00  0.00     0.167 HD
ENDBRANCH  22  24
ENDBRANCH  21  22
ENDBRANCH  19  21
ENDBRANCH  18  19
ENDBRANCH  17  18
ENDBRANCH  16  17
ENDBRANCH  14  16
ENDBRANCH   1  14
TORSDOF 11
ENDMDL
MODEL 7
REMARK VINA RESULT:      -6.0      1.833      3.348
REMARK  11 active torsions:
REMARK  status: ('A' for Active; 'I' for Inactive)
REMARK    1  A    between atoms: C_7  and  C_6 
REMARK    2  A    between atoms: C_8  and  C_6 
REMARK    3  A    between atoms: C_13  and  C_7 
REMARK    4  A    between atoms: C_14  and  C_8 
REMARK    5  A    between atoms: C_10  and  C_9 
REMARK    6  A    between atoms: C_13  and  C_9 
REMARK    7  A    between atoms: C_18  and  C_10 
REMARK    8  A    between atoms: C_14  and  C_11 
REMARK    9  A    between atoms: C_20  and  C_11 
REMARK   10  A    between atoms: O_21  and  C_19 
REMARK   11  A    between atoms: O_23  and  C_20 
ROOT
HETATM    1  C   UNK N   1      29.453  27.211  -8.320  0.00  0.00     0.007 C 
ENDROOT
BRANCH   1   2
HETATM    2  C   UNK N   1      28.213  27.739  -8.144  0.00  0.00     0.013 C 
BRANCH   2   3
HETATM    3  C   UNK N   1      27.469  28.053  -6.870  0.00  0.00    -0.024 A 
HETATM    4  C   UNK N   1      26.433  27.148  -6.488  0.00  0.00    -0.049 A 
HETATM    5  C   UNK N   1      26.069  25.944  -7.300  0.00  0.00     0.049 C 
HETATM    6  C   UNK N   1      25.723  27.334  -5.311  0.00  0.00     0.044 A 
HETATM    7  C   UNK N   1      25.994  28.406  -4.478  0.00  0.00     0.072 A 
HETATM    8  C   UNK N   1      26.988  29.327  -4.821  0.00  0.00    -0.022 A 
HETATM    9  C   UNK N   1      27.250  30.483  -3.905  0.00  0.00     0.052 C 
HETATM   10  C   UNK N   1      27.733  29.166  -6.013  0.00  0.00    -0.043 A 
HETATM   11  C   UNK N   1      28.769  30.194  -6.329  0.00  0.00     0.049 C 
BRANCH   7  12
HETATM   12  O   UNK N   1      25.289  28.547  -3.342  0.00  0.00    -0.360 OA
HETATM   13  H   UNK N   1      25.696  28.381  -2.514  0.00  0.00     0.217 HD
ENDBRANCH   7  12
ENDBRANCH   2   3
ENDBRANCH   1   2
BRANCH   1  14
HETATM   14  C   UNK N   1      29.946  26.032  -7.527  0.00  0.00    -0.062 C 
HETATM   15  C   UNK N   1      29.514  24.665  -7.957  0.00  0.00     0.048 C 
BRANCH  14  16
HETATM   16  C   UNK N   1      30.796  26.184  -6.481  0.00  0.00     0.007 C 
BRANCH  16  17
HETATM   17  C   UNK N   1      30.493  26.892  -5.219  0.00  0.00     0.001 C 
BRANCH  17  18
HETATM   18  C   UNK N   1      29.510  26.394  -4.446  0.00  0.00     0.007 C 
BRANCH  18  19
HETATM   19  C   UNK N   1      29.391  24.971  -4.052  0.00  0.00    -0.056 C 
HETATM   20  C   UNK N   1      30.519  24.292  -3.336  0.00  0.00     0.048 C 
BRANCH  19  21
HETATM   21  C   UNK N   1      28.241  24.324  -4.364  0.00  0.00     0.087 C 
BRANCH  21  22
HETATM   22  C   UNK N   1      27.079  24.155  -3.458  0.00  0.00     0.165 C 
HETATM   23  O   UNK N   1      25.947  24.422  -3.814  0.00  0.00    -0.647 OA
BRANCH  22  24
HETATM   24  O   UNK N   1      27.289  23.691  -2.209  0.00  0.00    -0.773 OA
HETATM   25  H   UNK N   1      27.825  24.174  -1.613  0.00  0.00     0.167 HD
ENDBRANCH  22  24
ENDBRANCH  21  22
ENDBRANCH  19  21
ENDBRANCH  18  19
ENDBRANCH  17  18
ENDBRANCH  16  17
ENDBRANCH  14  16
ENDBRANCH   1  14
TORSDOF 11
ENDMDL
MODEL 8
REMARK VINA RESULT:      -5.9     15.069     17.286
REMARK  11 active torsions:
REMARK  status: ('A' for Active; 'I' for Inactive)
REMARK    1  A    between atoms: C_7  and  C_6 
REMARK    2  A    between atoms: C_8  and  C_6 
REMARK    3  A    between atoms: C_13  and  C_7 
REMARK    4  A    between atoms: C_14  and  C_8 
REMARK    5  A    between atoms: C_10  and  C_9 
REMARK    6  A    between atoms: C_13  and  C_9 
REMARK    7  A    between atoms: C_18  and  C_10 
REMARK    8  A    between atoms: C_14  and  C_11 
REMARK    9  A    between atoms: C_20  and  C_11 
REMARK   10  A    between atoms: O_21  and  C_19 
REMARK   11  A    between atoms: O_23  and  C_20 
ROOT
HETATM    1  C   UNK N   1      32.445  15.610   4.313  0.00  0.00     0.007 C 
ENDROOT
BRANCH   1   2
HETATM    2  C   UNK N   1      32.152  16.821   4.855  0.00  0.00     0.013 C 
BRANCH   2   3
HETATM    3  C   UNK N   1      31.550  17.158   6.197  0.00  0.00    -0.024 A 
HETATM    4  C   UNK N   1      32.448  17.598   7.215  0.00  0.00    -0.049 A 
HETATM    5  C   UNK N   1      33.925  17.715   6.998  0.00  0.00     0.049 C 
HETATM    6  C   UNK N   1      31.979  17.969   8.467  0.00  0.00     0.044 A 
HETATM    7  C   UNK N   1      30.629  17.916   8.766  0.00  0.00     0.072 A 
HETATM    8  C   UNK N   1      29.714  17.475   7.805  0.00  0.00    -0.022 A 
HETATM    9  C   UNK N   1      28.261  17.419   8.161  0.00  0.00     0.052 C 
HETATM   10  C   UNK N   1      30.158  17.092   6.517  0.00  0.00    -0.043 A 
HETATM   11  C   UNK N   1      29.132  16.616   5.542  0.00  0.00     0.049 C 
BRANCH   7  12
HETATM   12  O   UNK N   1      30.214  18.292   9.988  0.00  0.00    -0.360 OA
HETATM   13  H   UNK N   1      29.923  19.171  10.135  0.00  0.00     0.217 HD
ENDBRANCH   7  12
ENDBRANCH   2   3
ENDBRANCH   1   2
BRANCH   1  14
HETATM   14  C   UNK N   1      33.189  14.546   5.072  0.00  0.00    -0.062 C 
HETATM   15  C   UNK N   1      34.647  14.366   4.782  0.00  0.00     0.048 C 
BRANCH  14  16
HETATM   16  C   UNK N   1      32.585  13.800   6.029  0.00  0.00     0.007 C 
BRANCH  16  17
HETATM   17  C   UNK N   1      33.195  13.380   7.309  0.00  0.00     0.001 C 
BRANCH  17  18
HETATM   18  C   UNK N   1      33.357  14.320   8.260  0.00  0.00     0.007 C 
BRANCH  18  19
HETATM   19  C   UNK N   1      34.654  14.659   8.891  0.00  0.00    -0.056 C 
HETATM   20  C   UNK N   1      35.937  14.197   8.270  0.00  0.00     0.048 C 
BRANCH  19  21
HETATM   21  C   UNK N   1      34.628  15.389  10.033  0.00  0.00     0.087 C 
BRANCH  21  22
HETATM   22  C   UNK N   1      35.596  16.454  10.392  0.00  0.00     0.165 C 
HETATM   23  O   UNK N   1      35.394  17.621  10.115  0.00  0.00    -0.647 OA
BRANCH  22  24
HETATM   24  O   UNK N   1      36.726  16.113  11.044  0.00  0.00    -0.773 OA
HETATM   25  H   UNK N   1      36.794  15.277  11.460  0.00  0.00     0.167 HD
ENDBRANCH  22  24
ENDBRANCH  21  22
ENDBRANCH  19  21
ENDBRANCH  18  19
ENDBRANCH  17  18
ENDBRANCH  16  17
ENDBRANCH  14  16
ENDBRANCH   1  14
TORSDOF 11
ENDMDL
MODEL 9
REMARK VINA RESULT:      -5.8      2.087      4.215
REMARK  11 active torsions:
REMARK  status: ('A' for Active; 'I' for Inactive)
REMARK    1  A    between atoms: C_7  and  C_6 
REMARK    2  A    between atoms: C_8  and  C_6 
REMARK    3  A    between atoms: C_13  and  C_7 
REMARK    4  A    between atoms: C_14  and  C_8 
REMARK    5  A    between atoms: C_10  and  C_9 
REMARK    6  A    between atoms: C_13  and  C_9 
REMARK    7  A    between atoms: C_18  and  C_10 
REMARK    8  A    between atoms: C_14  and  C_11 
REMARK    9  A    between atoms: C_20  and  C_11 
REMARK   10  A    between atoms: O_21  and  C_19 
REMARK   11  A    between atoms: O_23  and  C_20 
ROOT
HETATM    1  C   UNK N   1      29.406  30.231  -4.406  0.00  0.00     0.007 C 
ENDROOT
BRANCH   1   2
HETATM    2  C   UNK N   1      28.294  30.185  -5.186  0.00  0.00     0.013 C 
BRANCH   2   3
HETATM    3  C   UNK N   1      27.646  29.010  -5.877  0.00  0.00    -0.024 A 
HETATM    4  C   UNK N   1      28.183  28.631  -7.145  0.00  0.00    -0.049 A 
HETATM    5  C   UNK N   1      29.324  29.354  -7.790  0.00  0.00     0.049 C 
HETATM    6  C   UNK N   1      27.678  27.537  -7.834  0.00  0.00     0.044 A 
HETATM    7  C   UNK N   1      26.636  26.789  -7.315  0.00  0.00     0.072 A 
HETATM    8  C   UNK N   1      26.067  27.134  -6.085  0.00  0.00    -0.022 A 
HETATM    9  C   UNK N   1      24.933  26.312  -5.556  0.00  0.00     0.052 C 
HETATM   10  C   UNK N   1      26.560  28.241  -5.355  0.00  0.00    -0.043 A 
HETATM   11  C   UNK N   1      25.899  28.566  -4.056  0.00  0.00     0.049 C 
BRANCH   7  12
HETATM   12  O   UNK N   1      26.180  25.732  -8.010  0.00  0.00    -0.360 OA
HETATM   13  H   UNK N   1      26.759  25.027  -8.225  0.00  0.00     0.217 HD
ENDBRANCH   7  12
ENDBRANCH   2   3
ENDBRANCH   1   2
BRANCH   1  14
HETATM   14  C   UNK N   1      29.530  29.440  -3.133  0.00  0.00    -0.062 C 
HETATM   15  C   UNK N   1      28.745  29.897  -1.943  0.00  0.00     0.048 C 
BRANCH  14  16
HETATM   16  C   UNK N   1      30.286  28.317  -3.064  0.00  0.00     0.007 C 
BRANCH  16  17
HETATM   17  C   UNK N   1      30.257  27.196  -4.029  0.00  0.00     0.001 C 
BRANCH  17  18
HETATM   18  C   UNK N   1      29.300  26.263  -3.871  0.00  0.00     0.007 C 
BRANCH  18  19
HETATM   19  C   UNK N   1      29.027  25.169  -4.832  0.00  0.00    -0.056 C 
HETATM   20  C   UNK N   1      29.814  25.072  -6.104  0.00  0.00     0.048 C 
BRANCH  19  21
HETATM   21  C   UNK N   1      28.054  24.280  -4.517  0.00  0.00     0.087 C 
BRANCH  21  22
HETATM   22  C   UNK N   1      27.384  24.172  -3.198  0.00  0.00     0.165 C 
HETATM   23  O   UNK N   1      26.398  24.832  -2.927  0.00  0.00    -0.647 OA
BRANCH  22  24
HETATM   24  O   UNK N   1      27.883  23.319  -2.282  0.00  0.00    -0.773 OA
HETATM   25  H   UNK N   1      28.286  22.519  -2.556  0.00  0.00     0.167 HD
ENDBRANCH  22  24
ENDBRANCH  21  22
ENDBRANCH  19  21
ENDBRANCH  18  19
ENDBRANCH  17  18
ENDBRANCH  16  17
ENDBRANCH  14  16
ENDBRANCH   1  14
TORSDOF 11
ENDMDL
