REMARK  3 active torsions:
REMARK  status: ('A' for Active; 'I' for Inactive)
REMARK    1  A    between atoms: C_7  and  O_1 
REMARK    2  A    between atoms: O_2  and  C_9 
REMARK    3  A    between atoms: C_6  and  C_9 
ROOT
HETATM    1  N   UNK N   1      25.443 -11.602  -0.000  0.00  0.00    -0.406 N 
HETATM    2  C   UNK N   1      24.577 -13.963  -0.000  0.00  0.00     0.069 A 
HETATM    3  C   UNK N   1      24.274 -12.485   0.000  0.00  0.00     0.178 A 
HETATM    4  C   UNK N   1      26.064 -13.888   0.000  0.00  0.00     0.138 A 
HETATM    5  C   UNK N   1      26.608 -12.485  -0.000  0.00  0.00     0.146 A 
HETATM    6  H   UNK N   1      25.443 -10.582   0.000  0.00  0.00     0.154 HD
ENDROOT
BRANCH   3   7
HETATM    7  C   UNK N   1      22.904 -11.896  -0.000  0.00  0.00     0.163 C 
HETATM    8  O   UNK N   1      22.757 -10.686   0.000  0.00  0.00    -0.648 OA
BRANCH   7   9
HETATM    9  O   UNK N   1      21.825 -12.703  -0.000  0.00  0.00    -0.775 OA
HETATM   10  H   UNK N   1      20.964 -12.334  -0.000  0.00  0.00     0.167 HD
ENDBRANCH   7   9
ENDBRANCH   3   7
BRANCH   4  11
HETATM   11  O   UNK N   1      26.877 -15.019  -0.000  0.00  0.00    -0.394 OA
HETATM   12  H   UNK N   1      26.478 -15.903  -0.000  0.00  0.00     0.210 HD
ENDBRANCH   4  11
TORSDOF 3
