REMARK  11 active torsions:
REMARK  status: ('A' for Active; 'I' for Inactive)
REMARK    1  A    between atoms: C_7  and  C_6 
REMARK    2  A    between atoms: C_8  and  C_6 
REMARK    3  A    between atoms: C_13  and  C_7 
REMARK    4  A    between atoms: C_14  and  C_8 
REMARK    5  A    between atoms: C_10  and  C_9 
REMARK    6  A    between atoms: C_13  and  C_9 
REMARK    7  A    between atoms: C_18  and  C_10 
REMARK    8  A    between atoms: C_14  and  C_11 
REMARK    9  A    between atoms: C_20  and  C_11 
REMARK   10  A    between atoms: O_21  and  C_19 
REMARK   11  A    between atoms: O_23  and  C_20 
ROOT
HETATM    1  C   UNK N   1      -1.245  -0.147   0.059  0.00  0.00     0.007 C 
ENDROOT
BRANCH   1   2
HETATM    2  C   UNK N   1      -0.086   0.489  -0.257  0.00  0.00     0.013 C 
BRANCH   2   3
HETATM    3  C   UNK N   1       1.335  -0.016  -0.217  0.00  0.00    -0.024 A 
HETATM    4  C   UNK N   1       2.369   0.951  -0.402  0.00  0.00    -0.049 A 
HETATM    5  C   UNK N   1       2.088   2.402  -0.641  0.00  0.00     0.049 C 
HETATM    6  C   UNK N   1       3.706   0.585  -0.340  0.00  0.00     0.044 A 
HETATM    7  C   UNK N   1       4.074  -0.728  -0.105  0.00  0.00     0.072 A 
HETATM    8  C   UNK N   1       3.095  -1.712   0.065  0.00  0.00    -0.022 A 
HETATM    9  C   UNK N   1       3.525  -3.126   0.307  0.00  0.00     0.052 C 
HETATM   10  C   UNK N   1       1.723  -1.373   0.011  0.00  0.00    -0.043 A 
HETATM   11  C   UNK N   1       0.728  -2.473   0.184  0.00  0.00     0.049 C 
BRANCH   7  12
HETATM   12  O   UNK N   1       5.380  -1.041  -0.044  0.00  0.00    -0.360 OA
HETATM   13  H   UNK N   1       5.646  -1.939  -0.002  0.00  0.00     0.217 HD
ENDBRANCH   7  12
ENDBRANCH   2   3
ENDBRANCH   1   2
BRANCH   1  14
HETATM   14  C   UNK N   1      -2.577   0.551   0.041  0.00  0.00    -0.062 C 
HETATM   15  C   UNK N   1      -3.813  -0.292   0.113  0.00  0.00     0.048 C 
BRANCH  14  16
HETATM   16  C   UNK N   1      -2.672   1.903   0.011  0.00  0.00     0.007 C 
BRANCH  16  17
HETATM   17  C   UNK N   1      -3.931   2.679  -0.001  0.00  0.00     0.001 C 
BRANCH  17  18
HETATM   18  C   UNK N   1      -3.835   4.022   0.002  0.00  0.00     0.007 C 
BRANCH  18  19
HETATM   19  C   UNK N   1      -4.993   4.946  -0.016  0.00  0.00    -0.056 C 
HETATM   20  C   UNK N   1      -6.389   4.402  -0.065  0.00  0.00     0.048 C 
BRANCH  19  21
HETATM   21  C   UNK N   1      -4.739   6.277   0.012  0.00  0.00     0.087 C 
BRANCH  21  22
HETATM   22  C   UNK N   1      -5.766   7.347   0.001  0.00  0.00     0.165 C 
HETATM   23  O   UNK N   1      -6.955   7.091  -0.039  0.00  0.00    -0.647 OA
BRANCH  22  24
HETATM   24  O   UNK N   1      -5.366   8.634   0.038  0.00  0.00    -0.773 OA
HETATM   25  H   UNK N   1      -4.453   8.841   0.064  0.00  0.00     0.167 HD
ENDBRANCH  22  24
ENDBRANCH  21  22
ENDBRANCH  19  21
ENDBRANCH  18  19
ENDBRANCH  17  18
ENDBRANCH  16  17
ENDBRANCH  14  16
ENDBRANCH   1  14
TORSDOF 11
