REMARK  7 active torsions:
REMARK  status: ('A' for Active; 'I' for Inactive)
REMARK    1  A    between atoms: C_7  and  C_5 
REMARK    2  A    between atoms: C_10  and  C_5 
REMARK    3  A    between atoms: C_6  and  O_11 
REMARK    4  A    between atoms: C_8  and  C_7 
REMARK    5  A    between atoms: O_13  and  C_8 
REMARK    6  A    between atoms: C_10  and  C_9 
REMARK    7  A    between atoms: O_16  and  C_9 
ROOT
HETATM    1  C   UNK N   1      -0.558  -0.735  -1.279  0.00  0.00     0.006 C 
HETATM    2  C   UNK N   1      -0.041  -0.502   1.112  0.00  0.00     0.006 C 
HETATM    3  C   UNK N   1      -0.460   0.597  -1.445  0.00  0.00    -0.003 C 
HETATM    4  C   UNK N   1       0.078   0.830   0.974  0.00  0.00    -0.003 C 
HETATM    5  C   UNK N   1       0.118  -1.379  -0.099  0.00  0.00     0.163 C 
HETATM    6  C   UNK N   1       0.240   1.460  -0.407  0.00  0.00     0.087 C 
ENDROOT
BRANCH   6   7
HETATM    7  C   UNK N   1       1.725   1.526  -0.821  0.00  0.00     0.119 C 
BRANCH   7   8
HETATM    8  C   UNK N   1       2.700   2.110   0.168  0.00  0.00     0.223 C 
HETATM    9  O   UNK N   1       2.561   3.255   0.571  0.00  0.00    -0.286 OA
BRANCH   8  10
HETATM   10  C   UNK N   1       3.873   1.324   0.599  0.00  0.00     0.213 C 
HETATM   11  O   UNK N   1       4.020   0.174   0.211  0.00  0.00    -0.644 OA
BRANCH  10  12
HETATM   12  O   UNK N   1       4.802   1.878   1.401  0.00  0.00    -0.771 OA
HETATM   13  H   UNK N   1       5.459   1.511   1.960  0.00  0.00     0.167 HD
ENDBRANCH  10  12
ENDBRANCH   8  10
ENDBRANCH   7   8
ENDBRANCH   6   7
BRANCH   6  14
HETATM   14  C   UNK N   1      -0.432   2.817  -0.413  0.00  0.00     0.157 C 
HETATM   15  O   UNK N   1      -1.624   2.907  -0.157  0.00  0.00    -0.649 OA
BRANCH  14  16
HETATM   16  O   UNK N   1       0.258   3.932  -0.721  0.00  0.00    -0.775 OA
HETATM   17  H   UNK N   1       1.170   3.904  -0.936  0.00  0.00     0.167 HD
ENDBRANCH  14  16
ENDBRANCH   6  14
BRANCH   5  18
HETATM   18  O   UNK N   1      -0.407  -2.648   0.135  0.00  0.00    -0.388 OA
HETATM   19  H   UNK N   1      -1.355  -2.774   0.298  0.00  0.00     0.210 HD
ENDBRANCH   5  18
TORSDOF 7
