MODEL 1
REMARK VINA RESULT:      -5.1      0.000      0.000
REMARK  4 active torsions:
REMARK  status: ('A' for Active; 'I' for Inactive)
REMARK    1  A    between atoms: C_8  and  C_7 
REMARK    2  A    between atoms: S_15  and  C_7 
REMARK    3  A    between atoms: O_12  and  N_11 
REMARK    4  A    between atoms: S_16  and  S_15 
ROOT
HETATM    1  C   UNK N   1      25.906  28.165  -3.656  0.00  0.00     0.038 C 
HETATM    2  C   UNK N   1      27.315  28.924  -5.557  0.00  0.00     0.038 C 
HETATM    3  C   UNK N   1      25.546  24.487  -5.199  0.00  0.00     0.039 C 
HETATM    4  C   UNK N   1      26.934  25.084  -7.175  0.00  0.00     0.039 C 
HETATM    5  C   UNK N   1      27.826  26.835  -4.382  0.00  0.00     0.005 C 
HETATM    6  C   UNK N   1      27.709  25.629  -4.894  0.00  0.00    -0.047 C 
HETATM    7  C   UNK N   1      26.730  27.712  -4.858  0.00  0.00     0.050 C 
HETATM    8  C   UNK N   1      26.519  25.513  -5.778  0.00  0.00     0.056 C 
HETATM    9  N   UNK N   1      25.975  26.891  -5.836  0.00  0.00    -0.174 NA
ENDROOT
BRANCH   6  10
HETATM   10  C   UNK N   1      28.662  24.517  -4.581  0.00  0.00     0.127 C 
BRANCH  10  11
HETATM   11  S   UNK N   1      28.324  23.894  -2.906  0.00  0.00    -0.033 SA
BRANCH  11  12
HETATM   12  S   UNK N   1      30.011  22.595  -2.862  0.00  0.00     0.195 S 
HETATM   13  C   UNK N   1      31.780  22.383  -3.205  0.00  0.00     0.174 C 
HETATM   14  O   UNK N   1      30.320  23.029  -1.422  0.00  0.00    -0.217 OA
HETATM   15  O   UNK N   1      30.517  23.924  -3.444  0.00  0.00    -0.217 OA
ENDBRANCH  11  12
ENDBRANCH  10  11
ENDBRANCH   6  10
BRANCH   9  16
HETATM   16  O   UNK N   1      24.633  26.929  -5.615  0.00  0.00    -0.311 OA
HETATM   17  H   UNK N   1      23.966  27.068  -6.306  0.00  0.00     0.237 HD
ENDBRANCH   9  16
TORSDOF 4
ENDMDL
MODEL 2
REMARK VINA RESULT:      -5.1     13.721     15.702
REMARK  4 active torsions:
REMARK  status: ('A' for Active; 'I' for Inactive)
REMARK    1  A    between atoms: C_8  and  C_7 
REMARK    2  A    between atoms: S_15  and  C_7 
REMARK    3  A    between atoms: O_12  and  N_11 
REMARK    4  A    between atoms: S_16  and  S_15 
ROOT
HETATM    1  C   UNK N   1      32.960  15.411   4.966  0.00  0.00     0.038 C 
HETATM    2  C   UNK N   1      33.132  17.796   4.290  0.00  0.00     0.038 C 
HETATM    3  C   UNK N   1      34.414  16.185   8.615  0.00  0.00     0.039 C 
HETATM    4  C   UNK N   1      34.659  18.607   8.100  0.00  0.00     0.039 C 
HETATM    5  C   UNK N   1      32.064  17.173   6.406  0.00  0.00     0.005 C 
HETATM    6  C   UNK N   1      32.545  17.432   7.603  0.00  0.00    -0.047 C 
HETATM    7  C   UNK N   1      33.159  16.838   5.466  0.00  0.00     0.050 C 
HETATM    8  C   UNK N   1      34.025  17.303   7.648  0.00  0.00     0.056 C 
HETATM    9  N   UNK N   1      34.408  17.039   6.241  0.00  0.00    -0.174 NA
ENDROOT
BRANCH   6  10
HETATM   10  C   UNK N   1      31.673  17.784   8.770  0.00  0.00     0.127 C 
BRANCH  10  11
HETATM   11  S   UNK N   1      30.100  16.882   8.635  0.00  0.00    -0.033 SA
BRANCH  11  12
HETATM   12  S   UNK N   1      28.916  18.636   8.395  0.00  0.00     0.195 S 
HETATM   13  C   UNK N   1      27.672  19.510   7.405  0.00  0.00     0.174 C 
HETATM   14  O   UNK N   1      27.818  18.028   9.279  0.00  0.00    -0.217 OA
HETATM   15  O   UNK N   1      28.562  17.723   7.210  0.00  0.00    -0.217 OA
ENDBRANCH  11  12
ENDBRANCH  10  11
ENDBRANCH   6  10
BRANCH   9  16
HETATM   16  O   UNK N   1      35.264  15.988   6.123  0.00  0.00    -0.311 OA
HETATM   17  H   UNK N   1      35.873  15.694   6.820  0.00  0.00     0.237 HD
ENDBRANCH   9  16
TORSDOF 4
ENDMDL
MODEL 3
REMARK VINA RESULT:      -5.0      3.356      4.729
REMARK  4 active torsions:
REMARK  status: ('A' for Active; 'I' for Inactive)
REMARK    1  A    between atoms: C_8  and  C_7 
REMARK    2  A    between atoms: S_15  and  C_7 
REMARK    3  A    between atoms: O_12  and  N_11 
REMARK    4  A    between atoms: S_16  and  S_15 
ROOT
HETATM    1  C   UNK N   1      27.266  28.443  -5.837  0.00  0.00     0.038 C 
HETATM    2  C   UNK N   1      25.533  28.171  -4.077  0.00  0.00     0.038 C 
HETATM    3  C   UNK N   1      28.707  24.762  -5.195  0.00  0.00     0.039 C 
HETATM    4  C   UNK N   1      27.041  24.328  -3.399  0.00  0.00     0.039 C 
HETATM    5  C   UNK N   1      25.848  26.450  -5.793  0.00  0.00     0.005 C 
HETATM    6  C   UNK N   1      26.320  25.242  -5.577  0.00  0.00    -0.047 C 
HETATM    7  C   UNK N   1      26.544  27.442  -4.940  0.00  0.00     0.050 C 
HETATM    8  C   UNK N   1      27.402  25.240  -4.558  0.00  0.00     0.056 C 
HETATM    9  N   UNK N   1      27.447  26.641  -4.077  0.00  0.00    -0.174 NA
ENDROOT
BRANCH   6  10
HETATM   10  C   UNK N   1      25.822  24.032  -6.308  0.00  0.00     0.127 C 
BRANCH  10  11
HETATM   11  S   UNK N   1      25.941  24.327  -8.099  0.00  0.00    -0.033 SA
BRANCH  11  12
HETATM   12  S   UNK N   1      25.561  22.300  -8.632  0.00  0.00     0.195 S 
HETATM   13  C   UNK N   1      25.569  20.561  -8.113  0.00  0.00     0.174 C 
HETATM   14  O   UNK N   1      24.098  22.448  -8.192  0.00  0.00    -0.217 OA
HETATM   15  O   UNK N   1      26.065  22.267  -7.181  0.00  0.00    -0.217 OA
ENDBRANCH  11  12
ENDBRANCH  10  11
ENDBRANCH   6  10
BRANCH   9  16
HETATM   16  O   UNK N   1      28.713  27.141  -4.050  0.00  0.00    -0.311 OA
HETATM   17  H   UNK N   1      29.439  26.770  -3.523  0.00  0.00     0.237 HD
ENDBRANCH   9  16
TORSDOF 4
ENDMDL
MODEL 4
REMARK VINA RESULT:      -4.9     12.077     14.702
REMARK  4 active torsions:
REMARK  status: ('A' for Active; 'I' for Inactive)
REMARK    1  A    between atoms: C_8  and  C_7 
REMARK    2  A    between atoms: S_15  and  C_7 
REMARK    3  A    between atoms: O_12  and  N_11 
REMARK    4  A    between atoms: S_16  and  S_15 
ROOT
HETATM    1  C   UNK N   1      33.429  18.243   8.102  0.00  0.00     0.038 C 
HETATM    2  C   UNK N   1      32.744  15.935   8.718  0.00  0.00     0.038 C 
HETATM    3  C   UNK N   1      32.731  17.571   4.216  0.00  0.00     0.039 C 
HETATM    4  C   UNK N   1      32.021  15.228   4.658  0.00  0.00     0.039 C 
HETATM    5  C   UNK N   1      31.325  17.313   7.271  0.00  0.00     0.005 C 
HETATM    6  C   UNK N   1      31.097  17.087   5.996  0.00  0.00    -0.047 C 
HETATM    7  C   UNK N   1      32.726  16.978   7.618  0.00  0.00     0.050 C 
HETATM    8  C   UNK N   1      32.305  16.577   5.296  0.00  0.00     0.056 C 
HETATM    9  N   UNK N   1      33.302  16.401   6.378  0.00  0.00    -0.174 NA
ENDROOT
BRANCH   6  10
HETATM   10  C   UNK N   1      29.771  17.350   5.348  0.00  0.00     0.127 C 
BRANCH  10  11
HETATM   11  S   UNK N   1      28.466  17.293   6.614  0.00  0.00    -0.033 SA
BRANCH  11  12
HETATM   12  S   UNK N   1      27.337  18.888   5.767  0.00  0.00     0.195 S 
HETATM   13  C   UNK N   1      26.876  20.641   5.851  0.00  0.00     0.174 C 
HETATM   14  O   UNK N   1      28.496  19.216   4.814  0.00  0.00    -0.217 OA
HETATM   15  O   UNK N   1      28.071  19.488   6.976  0.00  0.00    -0.217 OA
ENDBRANCH  11  12
ENDBRANCH  10  11
ENDBRANCH   6  10
BRANCH   9  16
HETATM   16  O   UNK N   1      34.509  16.949   6.067  0.00  0.00    -0.311 OA
HETATM   17  H   UNK N   1      35.200  17.160   6.714  0.00  0.00     0.237 HD
ENDBRANCH   9  16
TORSDOF 4
ENDMDL
MODEL 5
REMARK VINA RESULT:      -4.7      4.101      5.305
REMARK  4 active torsions:
REMARK  status: ('A' for Active; 'I' for Inactive)
REMARK    1  A    between atoms: C_8  and  C_7 
REMARK    2  A    between atoms: S_15  and  C_7 
REMARK    3  A    between atoms: O_12  and  N_11 
REMARK    4  A    between atoms: S_16  and  S_15 
ROOT
HETATM    1  C   UNK N   1      28.020  29.070  -2.890  0.00  0.00     0.038 C 
HETATM    2  C   UNK N   1      26.332  30.628  -3.838  0.00  0.00     0.038 C 
HETATM    3  C   UNK N   1      26.244  25.894  -4.562  0.00  0.00     0.039 C 
HETATM    4  C   UNK N   1      24.470  27.311  -5.580  0.00  0.00     0.039 C 
HETATM    5  C   UNK N   1      27.438  28.970  -5.264  0.00  0.00     0.005 C 
HETATM    6  C   UNK N   1      26.850  27.930  -5.813  0.00  0.00    -0.047 C 
HETATM    7  C   UNK N   1      26.894  29.222  -3.909  0.00  0.00     0.050 C 
HETATM    8  C   UNK N   1      25.834  27.325  -4.912  0.00  0.00     0.056 C 
HETATM    9  N   UNK N   1      25.794  28.240  -3.746  0.00  0.00    -0.174 NA
ENDROOT
BRANCH   6  10
HETATM   10  C   UNK N   1      27.205  27.422  -7.177  0.00  0.00     0.127 C 
BRANCH  10  11
HETATM   11  S   UNK N   1      28.663  28.320  -7.789  0.00  0.00    -0.033 SA
BRANCH  11  12
HETATM   12  S   UNK N   1      28.582  27.471  -9.740  0.00  0.00     0.195 S 
HETATM   13  C   UNK N   1      29.006  27.643 -11.496  0.00  0.00     0.174 C 
HETATM   14  O   UNK N   1      29.890  26.712  -9.475  0.00  0.00    -0.217 OA
HETATM   15  O   UNK N   1      29.312  28.813  -9.895  0.00  0.00    -0.217 OA
ENDBRANCH  11  12
ENDBRANCH  10  11
ENDBRANCH   6  10
BRANCH   9  16
HETATM   16  O   UNK N   1      25.866  27.575  -2.561  0.00  0.00    -0.311 OA
HETATM   17  H   UNK N   1      26.083  27.989  -1.711  0.00  0.00     0.237 HD
ENDBRANCH   9  16
TORSDOF 4
ENDMDL
MODEL 6
REMARK VINA RESULT:      -4.6      2.951      3.503
REMARK  4 active torsions:
REMARK  status: ('A' for Active; 'I' for Inactive)
REMARK    1  A    between atoms: C_8  and  C_7 
REMARK    2  A    between atoms: S_15  and  C_7 
REMARK    3  A    between atoms: O_12  and  N_11 
REMARK    4  A    between atoms: S_16  and  S_15 
ROOT
HETATM    1  C   UNK N   1      24.841  27.042  -5.720  0.00  0.00     0.038 C 
HETATM    2  C   UNK N   1      26.062  26.431  -7.795  0.00  0.00     0.038 C 
HETATM    3  C   UNK N   1      26.896  24.376  -3.550  0.00  0.00     0.039 C 
HETATM    4  C   UNK N   1      28.206  23.640  -5.533  0.00  0.00     0.039 C 
HETATM    5  C   UNK N   1      27.284  26.922  -5.729  0.00  0.00     0.005 C 
HETATM    6  C   UNK N   1      27.960  26.043  -5.021  0.00  0.00    -0.047 C 
HETATM    7  C   UNK N   1      26.054  26.309  -6.284  0.00  0.00     0.050 C 
HETATM    8  C   UNK N   1      27.286  24.719  -4.987  0.00  0.00     0.056 C 
HETATM    9  N   UNK N   1      26.130  24.878  -5.901  0.00  0.00    -0.174 NA
ENDROOT
BRANCH   6  10
HETATM   10  C   UNK N   1      29.241  26.378  -4.319  0.00  0.00     0.127 C 
BRANCH  10  11
HETATM   11  S   UNK N   1      29.971  27.858  -5.082  0.00  0.00    -0.033 SA
BRANCH  11  12
HETATM   12  S   UNK N   1      31.302  28.245  -3.465  0.00  0.00     0.195 S 
HETATM   13  C   UNK N   1      31.512  28.908  -1.789  0.00  0.00     0.174 C 
HETATM   14  O   UNK N   1      31.041  26.841  -2.901  0.00  0.00    -0.217 OA
HETATM   15  O   UNK N   1      29.927  28.758  -3.011  0.00  0.00    -0.217 OA
ENDBRANCH  11  12
ENDBRANCH  10  11
ENDBRANCH   6  10
BRANCH   9  16
HETATM   16  O   UNK N   1      24.968  24.428  -5.353  0.00  0.00    -0.311 OA
HETATM   17  H   UNK N   1      24.246  25.000  -5.051  0.00  0.00     0.237 HD
ENDBRANCH   9  16
TORSDOF 4
ENDMDL
MODEL 7
REMARK VINA RESULT:      -4.6     16.475     18.948
REMARK  4 active torsions:
REMARK  status: ('A' for Active; 'I' for Inactive)
REMARK    1  A    between atoms: C_8  and  C_7 
REMARK    2  A    between atoms: S_15  and  C_7 
REMARK    3  A    between atoms: O_12  and  N_11 
REMARK    4  A    between atoms: S_16  and  S_15 
ROOT
HETATM    1  C   UNK N   1      32.126  17.706   8.326  0.00  0.00     0.038 C 
HETATM    2  C   UNK N   1      34.500  18.392   8.071  0.00  0.00     0.038 C 
HETATM    3  C   UNK N   1      33.073  13.820   8.122  0.00  0.00     0.039 C 
HETATM    4  C   UNK N   1      35.492  14.334   7.850  0.00  0.00     0.039 C 
HETATM    5  C   UNK N   1      33.864  16.688   9.713  0.00  0.00     0.005 C 
HETATM    6  C   UNK N   1      34.180  15.413   9.643  0.00  0.00    -0.047 C 
HETATM    7  C   UNK N   1      33.574  17.228   8.364  0.00  0.00     0.050 C 
HETATM    8  C   UNK N   1      34.142  14.906   8.246  0.00  0.00     0.056 C 
HETATM    9  N   UNK N   1      33.869  16.113   7.430  0.00  0.00    -0.174 NA
ENDROOT
BRANCH   6  10
HETATM   10  C   UNK N   1      34.506  14.589  10.851  0.00  0.00     0.127 C 
BRANCH  10  11
HETATM   11  S   UNK N   1      35.935  15.321  11.705  0.00  0.00    -0.033 SA
BRANCH  11  12
HETATM   12  S   UNK N   1      36.272  13.630  12.955  0.00  0.00     0.195 S 
HETATM   13  C   UNK N   1      36.665  13.018  14.618  0.00  0.00     0.174 C 
HETATM   14  O   UNK N   1      34.769  13.537  13.252  0.00  0.00    -0.217 OA
HETATM   15  O   UNK N   1      36.444  14.862  13.858  0.00  0.00    -0.217 OA
ENDBRANCH  11  12
ENDBRANCH  10  11
ENDBRANCH   6  10
BRANCH   9  16
HETATM   16  O   UNK N   1      32.869  15.916   6.529  0.00  0.00    -0.311 OA
HETATM   17  H   UNK N   1      32.260  15.161   6.540  0.00  0.00     0.237 HD
ENDBRANCH   9  16
TORSDOF 4
ENDMDL
MODEL 8
REMARK VINA RESULT:      -4.6     15.824     17.786
REMARK  4 active torsions:
REMARK  status: ('A' for Active; 'I' for Inactive)
REMARK    1  A    between atoms: C_8  and  C_7 
REMARK    2  A    between atoms: S_15  and  C_7 
REMARK    3  A    between atoms: O_12  and  N_11 
REMARK    4  A    between atoms: S_16  and  S_15 
ROOT
HETATM    1  C   UNK N   1      34.751  15.431   5.293  0.00  0.00     0.038 C 
HETATM    2  C   UNK N   1      32.379  14.771   5.626  0.00  0.00     0.038 C 
HETATM    3  C   UNK N   1      34.496  18.306   8.068  0.00  0.00     0.039 C 
HETATM    4  C   UNK N   1      32.107  17.779   8.521  0.00  0.00     0.039 C 
HETATM    5  C   UNK N   1      33.882  15.031   7.544  0.00  0.00     0.005 C 
HETATM    6  C   UNK N   1      33.793  15.976   8.454  0.00  0.00    -0.047 C 
HETATM    7  C   UNK N   1      33.535  15.563   6.205  0.00  0.00     0.050 C 
HETATM    8  C   UNK N   1      33.383  17.278   7.867  0.00  0.00     0.056 C 
HETATM    9  N   UNK N   1      33.107  16.963   6.445  0.00  0.00    -0.174 NA
ENDROOT
BRANCH   6  10
HETATM   10  C   UNK N   1      34.102  15.742   9.901  0.00  0.00     0.127 C 
BRANCH  10  11
HETATM   11  S   UNK N   1      35.835  15.214  10.064  0.00  0.00    -0.033 SA
BRANCH  11  12
HETATM   12  S   UNK N   1      35.371  13.424  11.122  0.00  0.00     0.195 S 
HETATM   13  C   UNK N   1      35.845  12.263  12.433  0.00  0.00     0.174 C 
HETATM   14  O   UNK N   1      34.507  14.221  12.110  0.00  0.00    -0.217 OA
HETATM   15  O   UNK N   1      36.678  13.950  11.736  0.00  0.00    -0.217 OA
ENDBRANCH  11  12
ENDBRANCH  10  11
ENDBRANCH   6  10
BRANCH   9  16
HETATM   16  O   UNK N   1      33.705  17.839   5.593  0.00  0.00    -0.311 OA
HETATM   17  H   UNK N   1      34.665  17.940   5.493  0.00  0.00     0.237 HD
ENDBRANCH   9  16
TORSDOF 4
ENDMDL
MODEL 9
REMARK VINA RESULT:      -4.4     19.802     23.531
REMARK  4 active torsions:
REMARK  status: ('A' for Active; 'I' for Inactive)
REMARK    1  A    between atoms: C_8  and  C_7 
REMARK    2  A    between atoms: S_15  and  C_7 
REMARK    3  A    between atoms: O_12  and  N_11 
REMARK    4  A    between atoms: S_16  and  S_15 
ROOT
HETATM    1  C   UNK N   1      34.700  12.390  16.120  0.00  0.00     0.038 C 
HETATM    2  C   UNK N   1      33.494  10.845  14.594  0.00  0.00     0.038 C 
HETATM    3  C   UNK N   1      38.156  11.856  14.169  0.00  0.00     0.039 C 
HETATM    4  C   UNK N   1      37.104  10.279  12.558  0.00  0.00     0.039 C 
HETATM    5  C   UNK N   1      34.908  12.633  13.695  0.00  0.00     0.005 C 
HETATM    6  C   UNK N   1      36.041  12.452  13.053  0.00  0.00    -0.047 C 
HETATM    7  C   UNK N   1      34.766  11.645  14.791  0.00  0.00     0.050 C 
HETATM    8  C   UNK N   1      36.831  11.328  13.621  0.00  0.00     0.056 C 
HETATM    9  N   UNK N   1      35.941  10.749  14.656  0.00  0.00    -0.174 NA
ENDROOT
BRANCH   6  10
HETATM   10  C   UNK N   1      36.470  13.314  11.905  0.00  0.00     0.127 C 
BRANCH  10  11
HETATM   11  S   UNK N   1      36.047  15.045  12.266  0.00  0.00    -0.033 SA
BRANCH  11  12
HETATM   12  S   UNK N   1      35.750  15.579  10.226  0.00  0.00     0.195 S 
HETATM   13  C   UNK N   1      34.567  15.827   8.872  0.00  0.00     0.174 C 
HETATM   14  O   UNK N   1      35.647  17.059  10.617  0.00  0.00    -0.217 OA
HETATM   15  O   UNK N   1      34.355  15.263  10.786  0.00  0.00    -0.217 OA
ENDBRANCH  11  12
ENDBRANCH  10  11
ENDBRANCH   6  10
BRANCH   9  16
HETATM   16  O   UNK N   1      36.581  10.555  15.842  0.00  0.00    -0.311 OA
HETATM   17  H   UNK N   1      37.541  10.455  15.938  0.00  0.00     0.237 HD
ENDBRANCH   9  16
TORSDOF 4
ENDMDL
