MODEL 1
REMARK VINA RESULT:      -5.5      0.000      0.000
REMARK  0 active torsions:
REMARK  status: ('A' for Active; 'I' for Inactive)
ROOT
HETATM    1  O   UNK N   1      31.960  16.873   6.464  0.00  0.00    -0.247 OA
HETATM    2  C   UNK N   1      32.779  16.986   7.358  0.00  0.00     0.328 A 
HETATM    3  N   UNK N   1      33.620  18.087   7.387  0.00  0.00    -0.273 N 
HETATM    4  C   UNK N   1      34.552  18.233   8.391  0.00  0.00     0.280 A 
HETATM    5  O   UNK N   1      35.292  19.201   8.417  0.00  0.00    -0.265 OA
HETATM    6  C   UNK N   1      34.618  17.248   9.364  0.00  0.00     0.149 A 
HETATM    7  C   UNK N   1      33.785  16.180   9.314  0.00  0.00     0.146 A 
HETATM    8  N   UNK N   1      32.864  16.019   8.337  0.00  0.00    -0.292 N 
HETATM    9  N   UNK N   1      34.015  15.352  10.343  0.00  0.00    -0.292 N 
HETATM   10  C   UNK N   1      35.030  15.976  11.015  0.00  0.00     0.326 A 
HETATM   11  O   UNK N   1      35.531  15.530  12.030  0.00  0.00    -0.247 OA
HETATM   12  N   UNK N   1      35.425  17.152  10.434  0.00  0.00    -0.301 N 
HETATM   13  H   UNK N   1      33.551  18.772   6.683  0.00  0.00     0.173 HD
HETATM   14  H   UNK N   1      32.270  15.233   8.325  0.00  0.00     0.172 HD
HETATM   15  H   UNK N   1      33.565  14.505  10.562  0.00  0.00     0.172 HD
HETATM   16  H   UNK N   1      36.129  17.774  10.728  0.00  0.00     0.171 HD
ENDROOT
TORSDOF 0
ENDMDL
MODEL 2
REMARK VINA RESULT:      -5.4      2.070      2.617
REMARK  0 active torsions:
REMARK  status: ('A' for Active; 'I' for Inactive)
ROOT
HETATM    1  O   UNK N   1      32.265  15.456   8.707  0.00  0.00    -0.247 OA
HETATM    2  C   UNK N   1      33.196  15.497   9.491  0.00  0.00     0.328 A 
HETATM    3  N   UNK N   1      34.047  16.590   9.495  0.00  0.00    -0.273 N 
HETATM    4  C   UNK N   1      35.105  16.655  10.374  0.00  0.00     0.280 A 
HETATM    5  O   UNK N   1      35.853  17.616  10.378  0.00  0.00    -0.265 OA
HETATM    6  C   UNK N   1      35.288  15.595  11.249  0.00  0.00     0.149 A 
HETATM    7  C   UNK N   1      34.443  14.536  11.226  0.00  0.00     0.146 A 
HETATM    8  N   UNK N   1      33.398  14.455  10.371  0.00  0.00    -0.292 N 
HETATM    9  N   UNK N   1      34.797  13.629  12.148  0.00  0.00    -0.292 N 
HETATM   10  C   UNK N   1      35.899  14.196  12.726  0.00  0.00     0.326 A 
HETATM   11  O   UNK N   1      36.525  13.669  13.627  0.00  0.00    -0.247 OA
HETATM   12  N   UNK N   1      36.228  15.413  12.191  0.00  0.00    -0.301 N 
HETATM   13  H   UNK N   1      33.894  17.329   8.863  0.00  0.00     0.173 HD
HETATM   14  H   UNK N   1      32.799  13.673  10.376  0.00  0.00     0.172 HD
HETATM   15  H   UNK N   1      34.370  12.767  12.356  0.00  0.00     0.172 HD
HETATM   16  H   UNK N   1      36.972  16.009  12.438  0.00  0.00     0.171 HD
ENDROOT
TORSDOF 0
ENDMDL
MODEL 3
REMARK VINA RESULT:      -5.4     11.298     12.295
REMARK  0 active torsions:
REMARK  status: ('A' for Active; 'I' for Inactive)
ROOT
HETATM    1  O   UNK N   1      20.497  13.279   7.807  0.00  0.00    -0.247 OA
HETATM    2  C   UNK N   1      21.372  13.088   8.632  0.00  0.00     0.328 A 
HETATM    3  N   UNK N   1      22.697  13.312   8.297  0.00  0.00    -0.273 N 
HETATM    4  C   UNK N   1      23.701  13.101   9.217  0.00  0.00     0.280 A 
HETATM    5  O   UNK N   1      24.866  13.298   8.922  0.00  0.00    -0.265 OA
HETATM    6  C   UNK N   1      23.341  12.660  10.481  0.00  0.00     0.149 A 
HETATM    7  C   UNK N   1      22.037  12.448  10.786  0.00  0.00     0.146 A 
HETATM    8  N   UNK N   1      21.038  12.649   9.897  0.00  0.00    -0.292 N 
HETATM    9  N   UNK N   1      21.911  12.027  12.052  0.00  0.00    -0.292 N 
HETATM   10  C   UNK N   1      23.204  11.996  12.495  0.00  0.00     0.326 A 
HETATM   11  O   UNK N   1      23.516  11.659  13.621  0.00  0.00    -0.247 OA
HETATM   12  N   UNK N   1      24.113  12.383  11.545  0.00  0.00    -0.301 N 
HETATM   13  H   UNK N   1      22.925  13.625   7.392  0.00  0.00     0.173 HD
HETATM   14  H   UNK N   1      20.099  12.487  10.145  0.00  0.00     0.172 HD
HETATM   15  H   UNK N   1      21.089  11.796  12.543  0.00  0.00     0.172 HD
HETATM   16  H   UNK N   1      25.092  12.443  11.624  0.00  0.00     0.171 HD
ENDROOT
TORSDOF 0
ENDMDL
MODEL 4
REMARK VINA RESULT:      -5.3     10.662     12.231
REMARK  0 active torsions:
REMARK  status: ('A' for Active; 'I' for Inactive)
ROOT
HETATM    1  O   UNK N   1      22.948  11.552  13.427  0.00  0.00    -0.247 OA
HETATM    2  C   UNK N   1      22.990  11.953  12.278  0.00  0.00     0.328 A 
HETATM    3  N   UNK N   1      21.821  12.063  11.543  0.00  0.00    -0.273 N 
HETATM    4  C   UNK N   1      21.848  12.514  10.241  0.00  0.00     0.280 A 
HETATM    5  O   UNK N   1      20.820  12.611   9.595  0.00  0.00    -0.265 OA
HETATM    6  C   UNK N   1      23.077  12.852   9.697  0.00  0.00     0.149 A 
HETATM    7  C   UNK N   1      24.208  12.736  10.436  0.00  0.00     0.146 A 
HETATM    8  N   UNK N   1      24.201  12.295  11.714  0.00  0.00    -0.292 N 
HETATM    9  N   UNK N   1      25.279  13.112   9.723  0.00  0.00    -0.292 N 
HETATM   10  C   UNK N   1      24.735  13.461   8.517  0.00  0.00     0.326 A 
HETATM   11  O   UNK N   1      25.397  13.865   7.579  0.00  0.00    -0.247 OA
HETATM   12  N   UNK N   1      23.375  13.311   8.470  0.00  0.00    -0.301 N 
HETATM   13  H   UNK N   1      20.961  11.816  11.955  0.00  0.00     0.173 HD
HETATM   14  H   UNK N   1      25.038  12.220  12.228  0.00  0.00     0.172 HD
HETATM   15  H   UNK N   1      26.223  13.133   9.998  0.00  0.00     0.172 HD
HETATM   16  H   UNK N   1      22.764  13.494   7.719  0.00  0.00     0.171 HD
ENDROOT
TORSDOF 0
ENDMDL
MODEL 5
REMARK VINA RESULT:      -5.3     12.074     13.749
REMARK  0 active torsions:
REMARK  status: ('A' for Active; 'I' for Inactive)
ROOT
HETATM    1  O   UNK N   1      24.581  11.841  11.803  0.00  0.00    -0.247 OA
HETATM    2  C   UNK N   1      23.498  12.217  11.393  0.00  0.00     0.328 A 
HETATM    3  N   UNK N   1      22.336  11.749  11.984  0.00  0.00    -0.273 N 
HETATM    4  C   UNK N   1      21.101  12.163  11.534  0.00  0.00     0.280 A 
HETATM    5  O   UNK N   1      20.079  11.752  12.054  0.00  0.00    -0.265 OA
HETATM    6  C   UNK N   1      21.063  13.059  10.476  0.00  0.00     0.149 A 
HETATM    7  C   UNK N   1      22.213  13.502   9.913  0.00  0.00     0.146 A 
HETATM    8  N   UNK N   1      23.434  13.107  10.341  0.00  0.00    -0.292 N 
HETATM    9  N   UNK N   1      21.952  14.355   8.913  0.00  0.00    -0.292 N 
HETATM   10  C   UNK N   1      20.585  14.402   8.901  0.00  0.00     0.326 A 
HETATM   11  O   UNK N   1      19.948  15.081   8.118  0.00  0.00    -0.247 OA
HETATM   12  N   UNK N   1      20.006  13.610   9.857  0.00  0.00    -0.301 N 
HETATM   13  H   UNK N   1      22.392  11.114  12.734  0.00  0.00     0.173 HD
HETATM   14  H   UNK N   1      24.254  13.446   9.914  0.00  0.00     0.172 HD
HETATM   15  H   UNK N   1      22.586  14.830   8.329  0.00  0.00     0.172 HD
HETATM   16  H   UNK N   1      19.048  13.478  10.044  0.00  0.00     0.171 HD
ENDROOT
TORSDOF 0
ENDMDL
MODEL 6
REMARK VINA RESULT:      -5.1      1.989      4.292
REMARK  0 active torsions:
REMARK  status: ('A' for Active; 'I' for Inactive)
ROOT
HETATM    1  O   UNK N   1      36.190  13.732  12.829  0.00  0.00    -0.247 OA
HETATM    2  C   UNK N   1      35.620  14.423  12.004  0.00  0.00     0.328 A 
HETATM    3  N   UNK N   1      36.147  15.655  11.653  0.00  0.00    -0.273 N 
HETATM    4  C   UNK N   1      35.516  16.451  10.722  0.00  0.00     0.280 A 
HETATM    5  O   UNK N   1      35.980  17.534  10.414  0.00  0.00    -0.265 OA
HETATM    6  C   UNK N   1      34.343  15.979  10.153  0.00  0.00     0.149 A 
HETATM    7  C   UNK N   1      33.847  14.770  10.513  0.00  0.00     0.146 A 
HETATM    8  N   UNK N   1      34.451  13.975  11.424  0.00  0.00    -0.292 N 
HETATM    9  N   UNK N   1      32.713  14.508   9.847  0.00  0.00    -0.292 N 
HETATM   10  C   UNK N   1      32.553  15.621   9.068  0.00  0.00     0.326 A 
HETATM   11  O   UNK N   1      31.619  15.770   8.303  0.00  0.00    -0.247 OA
HETATM   12  N   UNK N   1      33.545  16.549   9.235  0.00  0.00    -0.301 N 
HETATM   13  H   UNK N   1      36.982  15.966  12.073  0.00  0.00     0.173 HD
HETATM   14  H   UNK N   1      34.068  13.101  11.667  0.00  0.00     0.172 HD
HETATM   15  H   UNK N   1      32.138  13.712   9.904  0.00  0.00     0.172 HD
HETATM   16  H   UNK N   1      33.649  17.422   8.791  0.00  0.00     0.171 HD
ENDROOT
TORSDOF 0
ENDMDL
MODEL 7
REMARK VINA RESULT:      -5.1      1.854      3.536
REMARK  0 active torsions:
REMARK  status: ('A' for Active; 'I' for Inactive)
ROOT
HETATM    1  O   UNK N   1      32.705  12.779   7.728  0.00  0.00    -0.247 OA
HETATM    2  C   UNK N   1      33.139  13.793   8.244  0.00  0.00     0.328 A 
HETATM    3  N   UNK N   1      33.358  13.832   9.611  0.00  0.00    -0.273 N 
HETATM    4  C   UNK N   1      33.849  14.969  10.214  0.00  0.00     0.280 A 
HETATM    5  O   UNK N   1      34.041  15.004  11.416  0.00  0.00    -0.265 OA
HETATM    6  C   UNK N   1      34.114  16.067   9.409  0.00  0.00     0.149 A 
HETATM    7  C   UNK N   1      33.893  16.005   8.073  0.00  0.00     0.146 A 
HETATM    8  N   UNK N   1      33.411  14.897   7.464  0.00  0.00    -0.292 N 
HETATM    9  N   UNK N   1      34.214  17.167   7.486  0.00  0.00    -0.292 N 
HETATM   10  C   UNK N   1      34.640  17.931   8.537  0.00  0.00     0.326 A 
HETATM   11  O   UNK N   1      35.026  19.078   8.414  0.00  0.00    -0.247 OA
HETATM   12  N   UNK N   1      34.591  17.278   9.740  0.00  0.00    -0.301 N 
HETATM   13  H   UNK N   1      33.161  13.038  10.160  0.00  0.00     0.173 HD
HETATM   14  H   UNK N   1      33.260  14.880   6.491  0.00  0.00     0.172 HD
HETATM   15  H   UNK N   1      34.157  17.410   6.535  0.00  0.00     0.172 HD
HETATM   16  H   UNK N   1      34.843  17.615  10.630  0.00  0.00     0.171 HD
ENDROOT
TORSDOF 0
ENDMDL
MODEL 8
REMARK VINA RESULT:      -5.1     11.181     12.744
REMARK  0 active torsions:
REMARK  status: ('A' for Active; 'I' for Inactive)
ROOT
HETATM    1  O   UNK N   1      23.770  11.588  13.270  0.00  0.00    -0.247 OA
HETATM    2  C   UNK N   1      23.519  12.055  12.174  0.00  0.00     0.328 A 
HETATM    3  N   UNK N   1      24.551  12.443  11.336  0.00  0.00    -0.273 N 
HETATM    4  C   UNK N   1      24.288  12.974  10.093  0.00  0.00     0.280 A 
HETATM    5  O   UNK N   1      25.196  13.316   9.356  0.00  0.00    -0.265 OA
HETATM    6  C   UNK N   1      22.961  13.105   9.711  0.00  0.00     0.149 A 
HETATM    7  C   UNK N   1      21.967  12.718  10.548  0.00  0.00     0.146 A 
HETATM    8  N   UNK N   1      22.207  12.195  11.772  0.00  0.00    -0.292 N 
HETATM    9  N   UNK N   1      20.768  12.930   9.987  0.00  0.00    -0.292 N 
HETATM   10  C   UNK N   1      21.091  13.464   8.770  0.00  0.00     0.326 A 
HETATM   11  O   UNK N   1      20.259  13.799   7.947  0.00  0.00    -0.247 OA
HETATM   12  N   UNK N   1      22.440  13.585   8.570  0.00  0.00    -0.301 N 
HETATM   13  H   UNK N   1      25.485  12.339  11.633  0.00  0.00     0.173 HD
HETATM   14  H   UNK N   1      21.465  11.922  12.360  0.00  0.00     0.172 HD
HETATM   15  H   UNK N   1      19.876  12.747  10.359  0.00  0.00     0.172 HD
HETATM   16  H   UNK N   1      22.913  13.938   7.781  0.00  0.00     0.171 HD
ENDROOT
TORSDOF 0
ENDMDL
MODEL 9
REMARK VINA RESULT:      -5.1     16.999     18.550
REMARK  0 active torsions:
REMARK  status: ('A' for Active; 'I' for Inactive)
ROOT
HETATM    1  O   UNK N   1      25.351  23.647  -7.192  0.00  0.00    -0.247 OA
HETATM    2  C   UNK N   1      25.591  24.329  -6.213  0.00  0.00     0.328 A 
HETATM    3  N   UNK N   1      26.057  23.732  -5.053  0.00  0.00    -0.273 N 
HETATM    4  C   UNK N   1      26.334  24.488  -3.935  0.00  0.00     0.280 A 
HETATM    5  O   UNK N   1      26.744  23.963  -2.915  0.00  0.00    -0.265 OA
HETATM    6  C   UNK N   1      26.131  25.857  -4.011  0.00  0.00     0.149 A 
HETATM    7  C   UNK N   1      25.675  26.419  -5.157  0.00  0.00     0.146 A 
HETATM    8  N   UNK N   1      25.397  25.694  -6.264  0.00  0.00    -0.292 N 
HETATM    9  N   UNK N   1      25.550  27.746  -5.015  0.00  0.00    -0.292 N 
HETATM   10  C   UNK N   1      25.955  27.955  -3.726  0.00  0.00     0.326 A 
HETATM   11  O   UNK N   1      25.987  29.055  -3.207  0.00  0.00    -0.247 OA
HETATM   12  N   UNK N   1      26.321  26.805  -3.078  0.00  0.00    -0.301 N 
HETATM   13  H   UNK N   1      26.192  22.757  -5.027  0.00  0.00     0.173 HD
HETATM   14  H   UNK N   1      25.066  26.128  -7.084  0.00  0.00     0.172 HD
HETATM   15  H   UNK N   1      25.243  28.408  -5.676  0.00  0.00     0.172 HD
HETATM   16  H   UNK N   1      26.645  26.700  -2.154  0.00  0.00     0.171 HD
ENDROOT
TORSDOF 0
ENDMDL
