MODEL 1
REMARK VINA RESULT:      -5.5      0.000      0.000
REMARK  4 active torsions:
REMARK  status: ('A' for Active; 'I' for Inactive)
REMARK    1  A    between atoms: C_2  and  C_1 
REMARK    2  A    between atoms: O_7  and  C_1 
REMARK    3  A    between atoms: C_5  and  C_2 
REMARK    4  A    between atoms: C_2  and  O_8 
ROOT
HETATM    1  C   UNK N   1      20.805  19.838   3.463  0.00  0.00     0.237 A 
HETATM    2  C   UNK N   1      21.568  20.672   2.576  0.00  0.00     0.294 A 
HETATM    3  C   UNK N   1      19.844  19.003   2.639  0.00  0.00     0.241 A 
HETATM    4  C   UNK N   1      21.105  20.334   1.267  0.00  0.00     0.338 A 
HETATM    5  O   UNK N   1      20.889  19.840   4.681  0.00  0.00    -0.286 OA
HETATM    6  O   UNK N   1      22.401  21.510   2.878  0.00  0.00    -0.278 OA
HETATM    7  O   UNK N   1      21.503  20.832   0.225  0.00  0.00    -0.255 OA
HETATM    8  O   UNK N   1      20.137  19.392   1.323  0.00  0.00    -0.299 OA
ENDROOT
BRANCH   3   9
HETATM    9  C   UNK N   1      20.025  17.488   2.818  0.00  0.00     0.179 C 
BRANCH   9  10
HETATM   10  C   UNK N   1      20.029  16.827   1.442  0.00  0.00     0.198 C 
BRANCH  10  11
HETATM   11  O   UNK N   1      18.828  17.064   0.773  0.00  0.00    -0.398 OA
HETATM   12  H   UNK N   1      18.718  17.590  -0.035  0.00  0.00     0.209 HD
ENDBRANCH  10  11
ENDBRANCH   9  10
BRANCH   9  13
HETATM   13  O   UNK N   1      18.966  16.973   3.570  0.00  0.00    -0.390 OA
HETATM   14  H   UNK N   1      19.143  16.451   4.368  0.00  0.00     0.210 HD
ENDBRANCH   9  13
ENDBRANCH   3   9
TORSDOF 4
ENDMDL
MODEL 2
REMARK VINA RESULT:      -5.4     14.400     15.561
REMARK  4 active torsions:
REMARK  status: ('A' for Active; 'I' for Inactive)
REMARK    1  A    between atoms: C_2  and  C_1 
REMARK    2  A    between atoms: O_7  and  C_1 
REMARK    3  A    between atoms: C_5  and  C_2 
REMARK    4  A    between atoms: C_2  and  O_8 
ROOT
HETATM    1  C   UNK N   1      34.388  17.863   8.173  0.00  0.00     0.237 A 
HETATM    2  C   UNK N   1      33.971  17.403   6.878  0.00  0.00     0.294 A 
HETATM    3  C   UNK N   1      34.025  16.813   9.204  0.00  0.00     0.241 A 
HETATM    4  C   UNK N   1      33.403  16.112   7.114  0.00  0.00     0.338 A 
HETATM    5  O   UNK N   1      34.907  18.945   8.404  0.00  0.00    -0.286 OA
HETATM    6  O   UNK N   1      34.050  17.998   5.816  0.00  0.00    -0.278 OA
HETATM    7  O   UNK N   1      32.921  15.384   6.260  0.00  0.00    -0.255 OA
HETATM    8  O   UNK N   1      33.446  15.798   8.428  0.00  0.00    -0.299 OA
ENDROOT
BRANCH   3   9
HETATM    9  C   UNK N   1      35.228  16.279   9.997  0.00  0.00     0.179 C 
BRANCH   9  10
HETATM   10  C   UNK N   1      34.714  15.499  11.205  0.00  0.00     0.198 C 
BRANCH  10  11
HETATM   11  O   UNK N   1      33.369  15.165  11.046  0.00  0.00    -0.398 OA
HETATM   12  H   UNK N   1      32.614  15.625  11.445  0.00  0.00     0.209 HD
ENDBRANCH  10  11
ENDBRANCH   9  10
BRANCH   9  13
HETATM   13  O   UNK N   1      36.009  17.349  10.443  0.00  0.00    -0.390 OA
HETATM   14  H   UNK N   1      36.746  17.674   9.901  0.00  0.00     0.210 HD
ENDBRANCH   9  13
ENDBRANCH   3   9
TORSDOF 4
ENDMDL
MODEL 3
REMARK VINA RESULT:      -5.3     14.871     15.857
REMARK  4 active torsions:
REMARK  status: ('A' for Active; 'I' for Inactive)
REMARK    1  A    between atoms: C_2  and  C_1 
REMARK    2  A    between atoms: O_7  and  C_1 
REMARK    3  A    between atoms: C_5  and  C_2 
REMARK    4  A    between atoms: C_2  and  O_8 
ROOT
HETATM    1  C   UNK N   1      34.715  17.205   9.500  0.00  0.00     0.237 A 
HETATM    2  C   UNK N   1      34.827  18.140   8.415  0.00  0.00     0.294 A 
HETATM    3  C   UNK N   1      33.956  15.985   9.015  0.00  0.00     0.241 A 
HETATM    4  C   UNK N   1      34.184  17.499   7.311  0.00  0.00     0.338 A 
HETATM    5  O   UNK N   1      35.126  17.388  10.635  0.00  0.00    -0.286 OA
HETATM    6  O   UNK N   1      35.328  19.252   8.441  0.00  0.00    -0.278 OA
HETATM    7  O   UNK N   1      34.058  17.973   6.193  0.00  0.00    -0.255 OA
HETATM    8  O   UNK N   1      33.703  16.287   7.668  0.00  0.00    -0.299 OA
ENDROOT
BRANCH   3   9
HETATM    9  C   UNK N   1      34.741  14.672   9.146  0.00  0.00     0.179 C 
BRANCH   9  10
HETATM   10  C   UNK N   1      34.299  13.958  10.421  0.00  0.00     0.198 C 
BRANCH  10  11
HETATM   11  O   UNK N   1      33.515  14.797  11.214  0.00  0.00    -0.398 OA
HETATM   12  H   UNK N   1      32.873  14.514  11.885  0.00  0.00     0.209 HD
ENDBRANCH  10  11
ENDBRANCH   9  10
BRANCH   9  13
HETATM   13  O   UNK N   1      36.109  14.947   9.228  0.00  0.00    -0.390 OA
HETATM   14  H   UNK N   1      36.669  14.873   8.439  0.00  0.00     0.210 HD
ENDBRANCH   9  13
ENDBRANCH   3   9
TORSDOF 4
ENDMDL
MODEL 4
REMARK VINA RESULT:      -5.2     14.966     16.106
REMARK  4 active torsions:
REMARK  status: ('A' for Active; 'I' for Inactive)
REMARK    1  A    between atoms: C_2  and  C_1 
REMARK    2  A    between atoms: O_7  and  C_1 
REMARK    3  A    between atoms: C_5  and  C_2 
REMARK    4  A    between atoms: C_2  and  O_8 
ROOT
HETATM    1  C   UNK N   1      33.281  16.209   8.987  0.00  0.00     0.237 A 
HETATM    2  C   UNK N   1      33.248  17.513   8.386  0.00  0.00     0.294 A 
HETATM    3  C   UNK N   1      34.667  15.967   9.552  0.00  0.00     0.241 A 
HETATM    4  C   UNK N   1      34.555  18.049   8.605  0.00  0.00     0.338 A 
HETATM    5  O   UNK N   1      32.355  15.412   8.996  0.00  0.00    -0.286 OA
HETATM    6  O   UNK N   1      32.320  18.033   7.789  0.00  0.00    -0.278 OA
HETATM    7  O   UNK N   1      34.940  19.148   8.235  0.00  0.00    -0.255 OA
HETATM    8  O   UNK N   1      35.337  17.166   9.264  0.00  0.00    -0.299 OA
ENDROOT
BRANCH   3   9
HETATM    9  C   UNK N   1      34.681  15.679  11.061  0.00  0.00     0.179 C 
BRANCH   9  10
HETATM   10  C   UNK N   1      36.042  15.099  11.439  0.00  0.00     0.198 C 
BRANCH  10  11
HETATM   11  O   UNK N   1      37.076  15.896  10.947  0.00  0.00    -0.398 OA
HETATM   12  H   UNK N   1      37.507  16.628  11.416  0.00  0.00     0.209 HD
ENDBRANCH  10  11
ENDBRANCH   9  10
BRANCH   9  13
HETATM   13  O   UNK N   1      33.686  14.748  11.371  0.00  0.00    -0.390 OA
HETATM   14  H   UNK N   1      32.765  15.036  11.475  0.00  0.00     0.210 HD
ENDBRANCH   9  13
ENDBRANCH   3   9
TORSDOF 4
ENDMDL
MODEL 5
REMARK VINA RESULT:      -5.1      9.310     11.175
REMARK  4 active torsions:
REMARK  status: ('A' for Active; 'I' for Inactive)
REMARK    1  A    between atoms: C_2  and  C_1 
REMARK    2  A    between atoms: O_7  and  C_1 
REMARK    3  A    between atoms: C_5  and  C_2 
REMARK    4  A    between atoms: C_2  and  O_8 
ROOT
HETATM    1  C   UNK N   1      23.057  12.244   8.821  0.00  0.00     0.237 A 
HETATM    2  C   UNK N   1      21.665  12.440   8.527  0.00  0.00     0.294 A 
HETATM    3  C   UNK N   1      23.372  12.899  10.151  0.00  0.00     0.241 A 
HETATM    4  C   UNK N   1      21.152  13.162   9.650  0.00  0.00     0.338 A 
HETATM    5  O   UNK N   1      23.860  11.682   8.092  0.00  0.00    -0.286 OA
HETATM    6  O   UNK N   1      21.061  12.099   7.523  0.00  0.00    -0.278 OA
HETATM    7  O   UNK N   1      19.997  13.533   9.785  0.00  0.00    -0.255 OA
HETATM    8  O   UNK N   1      22.127  13.408  10.553  0.00  0.00    -0.299 OA
ENDROOT
BRANCH   3   9
HETATM    9  C   UNK N   1      23.935  11.931  11.203  0.00  0.00     0.179 C 
BRANCH   9  10
HETATM   10  C   UNK N   1      23.031  11.959  12.432  0.00  0.00     0.198 C 
BRANCH  10  11
HETATM   11  O   UNK N   1      23.751  12.321  13.571  0.00  0.00    -0.398 OA
HETATM   12  H   UNK N   1      23.773  11.837  14.412  0.00  0.00     0.209 HD
ENDBRANCH  10  11
ENDBRANCH   9  10
BRANCH   9  13
HETATM   13  O   UNK N   1      25.221  12.335  11.572  0.00  0.00    -0.390 OA
HETATM   14  H   UNK N   1      25.441  13.279  11.619  0.00  0.00     0.210 HD
ENDBRANCH   9  13
ENDBRANCH   3   9
TORSDOF 4
ENDMDL
MODEL 6
REMARK VINA RESULT:      -4.9     14.027     15.060
REMARK  4 active torsions:
REMARK  status: ('A' for Active; 'I' for Inactive)
REMARK    1  A    between atoms: C_2  and  C_1 
REMARK    2  A    between atoms: O_7  and  C_1 
REMARK    3  A    between atoms: C_5  and  C_2 
REMARK    4  A    between atoms: C_2  and  O_8 
ROOT
HETATM    1  C   UNK N   1      34.271  17.409   7.207  0.00  0.00     0.237 A 
HETATM    2  C   UNK N   1      34.787  18.110   8.349  0.00  0.00     0.294 A 
HETATM    3  C   UNK N   1      34.117  15.944   7.563  0.00  0.00     0.241 A 
HETATM    4  C   UNK N   1      34.912  17.112   9.365  0.00  0.00     0.338 A 
HETATM    5  O   UNK N   1      34.041  17.909   6.116  0.00  0.00    -0.286 OA
HETATM    6  O   UNK N   1      35.086  19.290   8.425  0.00  0.00    -0.278 OA
HETATM    7  O   UNK N   1      35.328  17.303  10.497  0.00  0.00    -0.255 OA
HETATM    8  O   UNK N   1      34.528  15.901   8.904  0.00  0.00    -0.299 OA
ENDROOT
BRANCH   3   9
HETATM    9  C   UNK N   1      32.682  15.415   7.412  0.00  0.00     0.179 C 
BRANCH   9  10
HETATM   10  C   UNK N   1      32.661  13.935   7.785  0.00  0.00     0.198 C 
BRANCH  10  11
HETATM   11  O   UNK N   1      32.286  13.763   9.118  0.00  0.00    -0.398 OA
HETATM   12  H   UNK N   1      32.010  12.931   9.532  0.00  0.00     0.209 HD
ENDBRANCH  10  11
ENDBRANCH   9  10
BRANCH   9  13
HETATM   13  O   UNK N   1      32.266  15.557   6.085  0.00  0.00    -0.390 OA
HETATM   14  H   UNK N   1      32.022  14.776   5.564  0.00  0.00     0.210 HD
ENDBRANCH   9  13
ENDBRANCH   3   9
TORSDOF 4
ENDMDL
MODEL 7
REMARK VINA RESULT:      -4.8     11.535     12.437
REMARK  4 active torsions:
REMARK  status: ('A' for Active; 'I' for Inactive)
REMARK    1  A    between atoms: C_2  and  C_1 
REMARK    2  A    between atoms: O_7  and  C_1 
REMARK    3  A    between atoms: C_5  and  C_2 
REMARK    4  A    between atoms: C_2  and  O_8 
ROOT
HETATM    1  C   UNK N   1      30.280  22.704  -2.594  0.00  0.00     0.237 A 
HETATM    2  C   UNK N   1      29.467  23.390  -3.559  0.00  0.00     0.294 A 
HETATM    3  C   UNK N   1      30.903  21.491  -3.257  0.00  0.00     0.241 A 
HETATM    4  C   UNK N   1      29.615  22.636  -4.765  0.00  0.00     0.338 A 
HETATM    5  O   UNK N   1      30.408  23.024  -1.423  0.00  0.00    -0.286 OA
HETATM    6  O   UNK N   1      28.774  24.378  -3.380  0.00  0.00    -0.278 OA
HETATM    7  O   UNK N   1      29.072  22.890  -5.829  0.00  0.00    -0.255 OA
HETATM    8  O   UNK N   1      30.428  21.573  -4.575  0.00  0.00    -0.299 OA
ENDROOT
BRANCH   3   9
HETATM    9  C   UNK N   1      32.438  21.485  -3.225  0.00  0.00     0.179 C 
BRANCH   9  10
HETATM   10  C   UNK N   1      32.948  20.444  -4.220  0.00  0.00     0.198 C 
BRANCH  10  11
HETATM   11  O   UNK N   1      32.143  19.305  -4.203  0.00  0.00    -0.398 OA
HETATM   12  H   UNK N   1      31.299  19.207  -3.735  0.00  0.00     0.209 HD
ENDBRANCH  10  11
ENDBRANCH   9  10
BRANCH   9  13
HETATM   13  O   UNK N   1      32.881  21.147  -1.944  0.00  0.00    -0.390 OA
HETATM   14  H   UNK N   1      33.221  21.834  -1.348  0.00  0.00     0.210 HD
ENDBRANCH   9  13
ENDBRANCH   3   9
TORSDOF 4
ENDMDL
MODEL 8
REMARK VINA RESULT:      -4.8     14.190     15.182
REMARK  4 active torsions:
REMARK  status: ('A' for Active; 'I' for Inactive)
REMARK    1  A    between atoms: C_2  and  C_1 
REMARK    2  A    between atoms: O_7  and  C_1 
REMARK    3  A    between atoms: C_5  and  C_2 
REMARK    4  A    between atoms: C_2  and  O_8 
ROOT
HETATM    1  C   UNK N   1      33.996  16.282   8.243  0.00  0.00     0.237 A 
HETATM    2  C   UNK N   1      34.654  17.242   9.085  0.00  0.00     0.294 A 
HETATM    3  C   UNK N   1      33.756  16.908   6.884  0.00  0.00     0.241 A 
HETATM    4  C   UNK N   1      34.829  18.394   8.257  0.00  0.00     0.338 A 
HETATM    5  O   UNK N   1      33.649  15.162   8.587  0.00  0.00    -0.286 OA
HETATM    6  O   UNK N   1      34.963  17.115  10.258  0.00  0.00    -0.278 OA
HETATM    7  O   UNK N   1      35.348  19.444   8.605  0.00  0.00    -0.255 OA
HETATM    8  O   UNK N   1      34.320  18.186   7.022  0.00  0.00    -0.299 OA
ENDROOT
BRANCH   3   9
HETATM    9  C   UNK N   1      34.408  16.143   5.723  0.00  0.00     0.179 C 
BRANCH   9  10
HETATM   10  C   UNK N   1      33.388  15.168   5.141  0.00  0.00     0.198 C 
BRANCH  10  11
HETATM   11  O   UNK N   1      33.444  13.938   5.798  0.00  0.00    -0.398 OA
HETATM   12  H   UNK N   1      34.130  13.654   6.422  0.00  0.00     0.209 HD
ENDBRANCH  10  11
ENDBRANCH   9  10
BRANCH   9  13
HETATM   13  O   UNK N   1      35.510  15.424   6.193  0.00  0.00    -0.390 OA
HETATM   14  H   UNK N   1      35.694  14.535   5.851  0.00  0.00     0.210 HD
ENDBRANCH   9  13
ENDBRANCH   3   9
TORSDOF 4
ENDMDL
MODEL 9
REMARK VINA RESULT:      -4.8     17.933     19.120
REMARK  4 active torsions:
REMARK  status: ('A' for Active; 'I' for Inactive)
REMARK    1  A    between atoms: C_2  and  C_1 
REMARK    2  A    between atoms: O_7  and  C_1 
REMARK    3  A    between atoms: C_5  and  C_2 
REMARK    4  A    between atoms: C_2  and  O_8 
ROOT
HETATM    1  C   UNK N   1      36.763  13.511  11.670  0.00  0.00     0.237 A 
HETATM    2  C   UNK N   1      36.495  12.807  12.893  0.00  0.00     0.294 A 
HETATM    3  C   UNK N   1      35.549  14.347  11.313  0.00  0.00     0.241 A 
HETATM    4  C   UNK N   1      35.182  13.223  13.275  0.00  0.00     0.338 A 
HETATM    5  O   UNK N   1      37.784  13.412  11.007  0.00  0.00    -0.286 OA
HETATM    6  O   UNK N   1      37.215  12.003  13.461  0.00  0.00    -0.278 OA
HETATM    7  O   UNK N   1      34.579  12.842  14.266  0.00  0.00    -0.255 OA
HETATM    8  O   UNK N   1      34.668  14.091  12.375  0.00  0.00    -0.299 OA
ENDROOT
BRANCH   3   9
HETATM    9  C   UNK N   1      35.843  15.850  11.194  0.00  0.00     0.179 C 
BRANCH   9  10
HETATM   10  C   UNK N   1      34.928  16.448  10.129  0.00  0.00     0.198 C 
BRANCH  10  11
HETATM   11  O   UNK N   1      33.649  15.895  10.204  0.00  0.00    -0.398 OA
HETATM   12  H   UNK N   1      33.438  14.957  10.329  0.00  0.00     0.209 HD
ENDBRANCH  10  11
ENDBRANCH   9  10
BRANCH   9  13
HETATM   13  O   UNK N   1      37.174  16.040  10.812  0.00  0.00    -0.390 OA
HETATM   14  H   UNK N   1      37.580  16.919  10.881  0.00  0.00     0.210 HD
ENDBRANCH   9  13
ENDBRANCH   3   9
TORSDOF 4
ENDMDL
