REMARK  4 active torsions:
REMARK  status: ('A' for Active; 'I' for Inactive)
REMARK    1  A    between atoms: C_2  and  C_1 
REMARK    2  A    between atoms: O_7  and  C_1 
REMARK    3  A    between atoms: C_5  and  C_2 
REMARK    4  A    between atoms: C_2  and  O_8 
ROOT
HETATM    1  C   UNK N   1      -0.312   0.145  -0.270  0.00  0.00     0.237 A 
HETATM    2  C   UNK N   1       0.303  -1.127  -0.529  0.00  0.00     0.294 A 
HETATM    3  C   UNK N   1       0.683   1.028   0.457  0.00  0.00     0.241 A 
HETATM    4  C   UNK N   1       1.627  -1.007  -0.004  0.00  0.00     0.338 A 
HETATM    5  O   UNK N   1      -1.463   0.443  -0.550  0.00  0.00    -0.286 OA
HETATM    6  O   UNK N   1      -0.205  -2.106  -1.050  0.00  0.00    -0.278 OA
HETATM    7  O   UNK N   1       2.477  -1.884  -0.020  0.00  0.00    -0.255 OA
HETATM    8  O   UNK N   1       1.822   0.213   0.544  0.00  0.00    -0.299 OA
ENDROOT
BRANCH   3   9
HETATM    9  C   UNK N   1       1.001   2.340  -0.276  0.00  0.00     0.179 C 
BRANCH   9  10
HETATM   10  C   UNK N   1       2.050   3.109   0.523  0.00  0.00     0.198 C 
BRANCH  10  11
HETATM   11  O   UNK N   1       2.319   4.344  -0.068  0.00  0.00    -0.398 OA
HETATM   12  H   UNK N   1       3.156   4.611  -0.479  0.00  0.00     0.209 HD
ENDBRANCH  10  11
ENDBRANCH   9  10
BRANCH   9  13
HETATM   13  O   UNK N   1      -0.157   3.116  -0.375  0.00  0.00    -0.390 OA
HETATM   14  H   UNK N   1      -0.092   4.082  -0.444  0.00  0.00     0.210 HD
ENDBRANCH   9  13
ENDBRANCH   3   9
TORSDOF 4
