REMARK  8 active torsions:
REMARK  status: ('A' for Active; 'I' for Inactive)
REMARK    1  A    between atoms: C_3  and  O_12 
REMARK    2  A    between atoms: C_6  and  C_7 
REMARK    3  A    between atoms: C_7  and  C_8 
REMARK    4  A    between atoms: C_8  and  N_9 
REMARK       I    between atoms: N_9  and  C_10 
REMARK    5  A    between atoms: C_10  and  C_15 
REMARK    6  A    between atoms: C_13  and  C_14 
REMARK    7  A    between atoms: C_18  and  O_22 
REMARK    8  A    between atoms: C_19  and  O_21 
ROOT
HETATM    1  N   UNK N   1      -1.215   0.635  -0.006  0.00  0.00    -0.357 N 
HETATM    2  C   UNK N   1      -0.120   1.417   0.138  0.00  0.00     0.241 C 
HETATM    3  O   UNK N   1      -0.239   2.606   0.362  0.00  0.00    -0.269 OA
HETATM    4  H   UNK N   1      -2.107   1.029   0.132  0.00  0.00     0.162 HD
ENDROOT
BRANCH   2   5
HETATM    5  C   UNK N   1       1.194   0.790   0.020  0.00  0.00     0.075 C 
HETATM    6  C   UNK N   1       2.398   1.345   0.119  0.00  0.00     0.017 C 
BRANCH   6   7
HETATM    7  C   UNK N   1       3.546   0.426   0.022  0.00  0.00    -0.033 A 
HETATM    8  C   UNK N   1       3.320  -0.956  -0.131  0.00  0.00     0.014 A 
HETATM    9  C   UNK N   1       4.379  -1.849  -0.200  0.00  0.00     0.040 A 
HETATM   10  C   UNK N   1       5.685  -1.378  -0.116  0.00  0.00     0.098 A 
HETATM   11  C   UNK N   1       5.929  -0.002   0.036  0.00  0.00     0.099 A 
HETATM   12  C   UNK N   1       4.858   0.900   0.106  0.00  0.00     0.050 A 
BRANCH  10  13
HETATM   13  O   UNK N   1       6.704  -2.249  -0.180  0.00  0.00    -0.358 OA
HETATM   14  H   UNK N   1       6.533  -3.169  -0.225  0.00  0.00     0.217 HD
ENDBRANCH  10  13
BRANCH  11  15
HETATM   15  O   UNK N   1       7.189   0.453   0.117  0.00  0.00    -0.358 OA
HETATM   16  H   UNK N   1       7.905  -0.149   0.174  0.00  0.00     0.217 HD
ENDBRANCH  11  15
ENDBRANCH   6   7
ENDBRANCH   2   5
BRANCH   1  17
HETATM   17  C   UNK N   1      -1.110  -0.769  -0.356  0.00  0.00     0.127 C 
BRANCH  17  18
HETATM   18  C   UNK N   1      -2.168  -1.634   0.328  0.00  0.00     0.058 C 
BRANCH  18  19
HETATM   19  C   UNK N   1      -3.585  -1.185   0.110  0.00  0.00    -0.057 A 
HETATM   20  C   UNK N   1      -3.888   0.148  -0.205  0.00  0.00     0.010 A 
HETATM   21  C   UNK N   1      -5.207   0.571  -0.320  0.00  0.00     0.037 A 
HETATM   22  C   UNK N   1      -6.243  -0.337  -0.120  0.00  0.00     0.065 A 
HETATM   23  C   UNK N   1      -5.957  -1.673   0.184  0.00  0.00     0.037 A 
HETATM   24  C   UNK N   1      -4.628  -2.096   0.304  0.00  0.00     0.010 A 
BRANCH  22  25
HETATM   25  O   UNK N   1      -7.516   0.076  -0.211  0.00  0.00    -0.361 OA
HETATM   26  H   UNK N   1      -7.710   0.991  -0.275  0.00  0.00     0.217 HD
ENDBRANCH  22  25
ENDBRANCH  18  19
ENDBRANCH  17  18
ENDBRANCH   1  17
TORSDOF 8
