MODEL 1
REMARK VINA RESULT:      -4.6      0.000      0.000
REMARK  3 active torsions:
REMARK  status: ('A' for Active; 'I' for Inactive)
REMARK    1  A    between atoms: C_7  and  O_1 
REMARK    2  A    between atoms: O_2  and  C_9 
REMARK    3  A    between atoms: C_6  and  C_9 
ROOT
HETATM    1  N   UNK N   1      21.945  11.802  11.519  0.00  0.00    -0.406 N 
HETATM    2  C   UNK N   1      21.984  13.619   9.781  0.00  0.00     0.069 A 
HETATM    3  C   UNK N   1      22.751  12.614  10.604  0.00  0.00     0.178 A 
HETATM    4  C   UNK N   1      20.616  13.333  10.294  0.00  0.00     0.138 A 
HETATM    5  C   UNK N   1      20.565  12.249  11.336  0.00  0.00     0.146 A 
HETATM    6  H   UNK N   1      22.278  11.075  12.153  0.00  0.00     0.154 HD
ENDROOT
BRANCH   3   7
HETATM    7  C   UNK N   1      24.227  12.408  10.541  0.00  0.00     0.163 C 
HETATM    8  O   UNK N   1      24.783  12.293   9.462  0.00  0.00    -0.648 OA
BRANCH   7   9
HETATM    9  O   UNK N   1      24.947  12.350  11.678  0.00  0.00    -0.775 OA
HETATM   10  H   UNK N   1      24.737  11.715  12.333  0.00  0.00     0.167 HD
ENDBRANCH   7   9
ENDBRANCH   3   7
BRANCH   4  11
HETATM   11  O   UNK N   1      19.485  14.011   9.847  0.00  0.00    -0.394 OA
HETATM   12  H   UNK N   1      18.692  14.053  10.404  0.00  0.00     0.210 HD
ENDBRANCH   4  11
TORSDOF 3
ENDMDL
MODEL 2
REMARK VINA RESULT:      -4.5     12.254     13.208
REMARK  3 active torsions:
REMARK  status: ('A' for Active; 'I' for Inactive)
REMARK    1  A    between atoms: C_7  and  O_1 
REMARK    2  A    between atoms: O_2  and  C_9 
REMARK    3  A    between atoms: C_6  and  C_9 
ROOT
HETATM    1  N   UNK N   1      35.164  17.195  10.511  0.00  0.00    -0.406 N 
HETATM    2  C   UNK N   1      33.950  15.759   8.842  0.00  0.00     0.069 A 
HETATM    3  C   UNK N   1      34.583  17.088   9.171  0.00  0.00     0.178 A 
HETATM    4  C   UNK N   1      34.208  15.061  10.132  0.00  0.00     0.138 A 
HETATM    5  C   UNK N   1      34.935  15.900  11.149  0.00  0.00     0.146 A 
HETATM    6  H   UNK N   1      35.633  18.006  10.915  0.00  0.00     0.154 HD
ENDROOT
BRANCH   3   7
HETATM    7  C   UNK N   1      34.647  18.254   8.243  0.00  0.00     0.163 C 
HETATM    8  O   UNK N   1      34.053  18.224   7.179  0.00  0.00    -0.648 OA
BRANCH   7   9
HETATM    9  O   UNK N   1      35.363  19.344   8.582  0.00  0.00    -0.775 OA
HETATM   10  H   UNK N   1      34.962  20.191   8.567  0.00  0.00     0.167 HD
ENDBRANCH   7   9
ENDBRANCH   3   7
BRANCH   4  11
HETATM   11  O   UNK N   1      33.812  13.748  10.373  0.00  0.00    -0.394 OA
HETATM   12  H   UNK N   1      34.450  13.024  10.280  0.00  0.00     0.210 HD
ENDBRANCH   4  11
TORSDOF 3
ENDMDL
MODEL 3
REMARK VINA RESULT:      -4.5     10.175     11.275
REMARK  3 active torsions:
REMARK  status: ('A' for Active; 'I' for Inactive)
REMARK    1  A    between atoms: C_7  and  O_1 
REMARK    2  A    between atoms: O_2  and  C_9 
REMARK    3  A    between atoms: C_6  and  C_9 
ROOT
HETATM    1  N   UNK N   1      20.311  18.232   0.735  0.00  0.00    -0.406 N 
HETATM    2  C   UNK N   1      19.964  19.080   3.077  0.00  0.00     0.069 A 
HETATM    3  C   UNK N   1      20.416  19.359   1.665  0.00  0.00     0.178 A 
HETATM    4  C   UNK N   1      19.568  17.655   2.909  0.00  0.00     0.138 A 
HETATM    5  C   UNK N   1      19.767  17.122   1.516  0.00  0.00     0.146 A 
HETATM    6  H   UNK N   1      20.565  18.223  -0.253  0.00  0.00     0.154 HD
ENDROOT
BRANCH   3   7
HETATM    7  C   UNK N   1      20.944  20.667   1.181  0.00  0.00     0.163 C 
HETATM    8  O   UNK N   1      21.174  20.835  -0.004  0.00  0.00    -0.648 OA
BRANCH   7   9
HETATM    9  O   UNK N   1      21.168  21.667   2.057  0.00  0.00    -0.775 OA
HETATM   10  H   UNK N   1      21.891  22.249   1.928  0.00  0.00     0.167 HD
ENDBRANCH   7   9
ENDBRANCH   3   7
BRANCH   4  11
HETATM   11  O   UNK N   1      19.060  16.885   3.953  0.00  0.00    -0.394 OA
HETATM   12  H   UNK N   1      19.367  17.035   4.860  0.00  0.00     0.210 HD
ENDBRANCH   4  11
TORSDOF 3
ENDMDL
MODEL 4
REMARK VINA RESULT:      -4.3      1.203      3.732
REMARK  3 active torsions:
REMARK  status: ('A' for Active; 'I' for Inactive)
REMARK    1  A    between atoms: C_7  and  O_1 
REMARK    2  A    between atoms: O_2  and  C_9 
REMARK    3  A    between atoms: C_6  and  C_9 
ROOT
HETATM    1  N   UNK N   1      21.494  12.011  11.572  0.00  0.00    -0.406 N 
HETATM    2  C   UNK N   1      23.310  12.928  10.094  0.00  0.00     0.069 A 
HETATM    3  C   UNK N   1      21.837  12.696  10.324  0.00  0.00     0.178 A 
HETATM    4  C   UNK N   1      23.833  12.307  11.342  0.00  0.00     0.138 A 
HETATM    5  C   UNK N   1      22.765  11.750  12.245  0.00  0.00     0.146 A 
HETATM    6  H   UNK N   1      20.560  11.766  11.903  0.00  0.00     0.154 HD
ENDROOT
BRANCH   3   7
HETATM    7  C   UNK N   1      20.752  13.110   9.387  0.00  0.00     0.163 C 
HETATM    8  O   UNK N   1      20.820  12.822   8.205  0.00  0.00    -0.648 OA
BRANCH   7   9
HETATM    9  O   UNK N   1      19.694  13.805   9.849  0.00  0.00    -0.775 OA
HETATM   10  H   UNK N   1      19.699  14.140  10.723  0.00  0.00     0.167 HD
ENDBRANCH   7   9
ENDBRANCH   3   7
BRANCH   4  11
HETATM   11  O   UNK N   1      25.191  12.248  11.644  0.00  0.00    -0.394 OA
HETATM   12  H   UNK N   1      25.594  12.933  12.200  0.00  0.00     0.210 HD
ENDBRANCH   4  11
TORSDOF 3
ENDMDL
MODEL 5
REMARK VINA RESULT:      -4.1     11.071     12.386
REMARK  3 active torsions:
REMARK  status: ('A' for Active; 'I' for Inactive)
REMARK    1  A    between atoms: C_7  and  O_1 
REMARK    2  A    between atoms: O_2  and  C_9 
REMARK    3  A    between atoms: C_6  and  C_9 
ROOT
HETATM    1  N   UNK N   1      32.302  17.541   8.788  0.00  0.00    -0.406 N 
HETATM    2  C   UNK N   1      33.441  17.554   6.546  0.00  0.00     0.069 A 
HETATM    3  C   UNK N   1      33.535  17.783   8.034  0.00  0.00     0.178 A 
HETATM    4  C   UNK N   1      32.012  17.145   6.471  0.00  0.00     0.138 A 
HETATM    5  C   UNK N   1      31.307  17.129   7.800  0.00  0.00     0.146 A 
HETATM    6  H   UNK N   1      32.168  17.641   9.794  0.00  0.00     0.154 HD
ENDROOT
BRANCH   3   7
HETATM    7  C   UNK N   1      34.765  18.224   8.752  0.00  0.00     0.163 C 
HETATM    8  O   UNK N   1      35.321  19.261   8.435  0.00  0.00    -0.648 OA
BRANCH   7   9
HETATM    9  O   UNK N   1      35.264  17.475   9.755  0.00  0.00    -0.775 OA
HETATM   10  H   UNK N   1      35.733  16.687   9.563  0.00  0.00     0.167 HD
ENDBRANCH   7   9
ENDBRANCH   3   7
BRANCH   4  11
HETATM   11  O   UNK N   1      31.385  16.807   5.274  0.00  0.00    -0.394 OA
HETATM   12  H   UNK N   1      31.182  17.495   4.621  0.00  0.00     0.210 HD
ENDBRANCH   4  11
TORSDOF 3
ENDMDL
MODEL 6
REMARK VINA RESULT:      -4.1      1.716      2.237
REMARK  3 active torsions:
REMARK  status: ('A' for Active; 'I' for Inactive)
REMARK    1  A    between atoms: C_7  and  O_1 
REMARK    2  A    between atoms: O_2  and  C_9 
REMARK    3  A    between atoms: C_6  and  C_9 
ROOT
HETATM    1  N   UNK N   1      23.384  11.595   9.217  0.00  0.00    -0.406 N 
HETATM    2  C   UNK N   1      21.686  13.131  10.257  0.00  0.00     0.069 A 
HETATM    3  C   UNK N   1      22.912  12.268  10.429  0.00  0.00     0.178 A 
HETATM    4  C   UNK N   1      21.458  12.910   8.802  0.00  0.00     0.138 A 
HETATM    5  C   UNK N   1      22.462  11.994   8.156  0.00  0.00     0.146 A 
HETATM    6  H   UNK N   1      24.190  10.975   9.132  0.00  0.00     0.154 HD
ENDROOT
BRANCH   3   7
HETATM    7  C   UNK N   1      23.642  12.072  11.715  0.00  0.00     0.163 C 
HETATM    8  O   UNK N   1      23.030  11.782  12.729  0.00  0.00    -0.648 OA
BRANCH   7   9
HETATM    9  O   UNK N   1      24.981  12.215  11.757  0.00  0.00    -0.775 OA
HETATM   10  H   UNK N   1      25.388  12.592  12.512  0.00  0.00     0.167 HD
ENDBRANCH   7   9
ENDBRANCH   3   7
BRANCH   4  11
HETATM   11  O   UNK N   1      20.408  13.501   8.104  0.00  0.00    -0.394 OA
HETATM   12  H   UNK N   1      19.589  13.005   7.948  0.00  0.00     0.210 HD
ENDBRANCH   4  11
TORSDOF 3
ENDMDL
MODEL 7
REMARK VINA RESULT:      -4.0     11.899     12.649
REMARK  3 active torsions:
REMARK  status: ('A' for Active; 'I' for Inactive)
REMARK    1  A    between atoms: C_7  and  O_1 
REMARK    2  A    between atoms: O_2  and  C_9 
REMARK    3  A    between atoms: C_6  and  C_9 
ROOT
HETATM    1  N   UNK N   1      34.366  17.328   9.565  0.00  0.00    -0.406 N 
HETATM    2  C   UNK N   1      33.869  15.927   7.537  0.00  0.00     0.069 A 
HETATM    3  C   UNK N   1      34.029  16.004   9.035  0.00  0.00     0.178 A 
HETATM    4  C   UNK N   1      34.144  17.352   7.207  0.00  0.00     0.138 A 
HETATM    5  C   UNK N   1      34.445  18.212   8.404  0.00  0.00     0.146 A 
HETATM    6  H   UNK N   1      34.514  17.579  10.543  0.00  0.00     0.154 HD
ENDROOT
BRANCH   3   7
HETATM    7  C   UNK N   1      33.870  14.853   9.969  0.00  0.00     0.163 C 
HETATM    8  O   UNK N   1      34.300  13.753   9.666  0.00  0.00    -0.648 OA
BRANCH   7   9
HETATM    9  O   UNK N   1      33.251  15.028  11.153  0.00  0.00    -0.775 OA
HETATM   10  H   UNK N   1      33.258  14.343  11.792  0.00  0.00     0.167 HD
ENDBRANCH   7   9
ENDBRANCH   3   7
BRANCH   4  11
HETATM   11  O   UNK N   1      34.125  17.843   5.903  0.00  0.00    -0.394 OA
HETATM   12  H   UNK N   1      34.808  18.466   5.609  0.00  0.00     0.210 HD
ENDBRANCH   4  11
TORSDOF 3
ENDMDL
MODEL 8
REMARK VINA RESULT:      -3.9      8.839      9.666
REMARK  3 active torsions:
REMARK  status: ('A' for Active; 'I' for Inactive)
REMARK    1  A    between atoms: C_7  and  O_1 
REMARK    2  A    between atoms: O_2  and  C_9 
REMARK    3  A    between atoms: C_6  and  C_9 
ROOT
HETATM    1  N   UNK N   1      27.014  20.206   7.177  0.00  0.00    -0.406 N 
HETATM    2  C   UNK N   1      28.434  18.701   5.748  0.00  0.00     0.069 A 
HETATM    3  C   UNK N   1      27.951  19.082   7.126  0.00  0.00     0.178 A 
HETATM    4  C   UNK N   1      27.688  19.720   4.959  0.00  0.00     0.138 A 
HETATM    5  C   UNK N   1      26.830  20.634   5.791  0.00  0.00     0.146 A 
HETATM    6  H   UNK N   1      26.580  20.608   8.009  0.00  0.00     0.154 HD
ENDROOT
BRANCH   3   7
HETATM    7  C   UNK N   1      28.359  18.402   8.390  0.00  0.00     0.163 C 
HETATM    8  O   UNK N   1      29.508  18.025   8.540  0.00  0.00    -0.648 OA
BRANCH   7   9
HETATM    9  O   UNK N   1      27.454  18.204   9.369  0.00  0.00    -0.775 OA
HETATM   10  H   UNK N   1      27.179  17.335   9.584  0.00  0.00     0.167 HD
ENDBRANCH   7   9
ENDBRANCH   3   7
BRANCH   4  11
HETATM   11  O   UNK N   1      27.779  19.815   3.572  0.00  0.00    -0.394 OA
HETATM   12  H   UNK N   1      28.011  20.661   3.159  0.00  0.00     0.210 HD
ENDBRANCH   4  11
TORSDOF 3
ENDMDL
MODEL 9
REMARK VINA RESULT:      -3.9      8.862      9.850
REMARK  3 active torsions:
REMARK  status: ('A' for Active; 'I' for Inactive)
REMARK    1  A    between atoms: C_7  and  O_1 
REMARK    2  A    between atoms: O_2  and  C_9 
REMARK    3  A    between atoms: C_6  and  C_9 
ROOT
HETATM    1  N   UNK N   1      30.209  17.025   7.229  0.00  0.00    -0.406 N 
HETATM    2  C   UNK N   1      29.995  18.311   9.380  0.00  0.00     0.069 A 
HETATM    3  C   UNK N   1      30.894  17.660   8.358  0.00  0.00     0.178 A 
HETATM    4  C   UNK N   1      28.681  18.004   8.752  0.00  0.00     0.138 A 
HETATM    5  C   UNK N   1      28.781  17.234   7.462  0.00  0.00     0.146 A 
HETATM    6  H   UNK N   1      30.640  16.538   6.444  0.00  0.00     0.154 HD
ENDROOT
BRANCH   3   7
HETATM    7  C   UNK N   1      32.383  17.629   8.430  0.00  0.00     0.163 C 
HETATM    8  O   UNK N   1      33.050  18.188   7.576  0.00  0.00    -0.648 OA
BRANCH   7   9
HETATM    9  O   UNK N   1      32.994  16.981   9.441  0.00  0.00    -0.775 OA
HETATM   10  H   UNK N   1      33.928  17.004   9.516  0.00  0.00     0.167 HD
ENDBRANCH   7   9
ENDBRANCH   3   7
BRANCH   4  11
HETATM   11  O   UNK N   1      27.467  18.396   9.311  0.00  0.00    -0.394 OA
HETATM   12  H   UNK N   1      27.234  18.114  10.209  0.00  0.00     0.210 HD
ENDBRANCH   4  11
TORSDOF 3
ENDMDL
