MODEL 1
REMARK VINA RESULT:      -6.2      0.000      0.000
REMARK  3 active torsions:
REMARK  status: ('A' for Active; 'I' for Inactive)
REMARK    1  A    between atoms: N_14  and  C_6 
REMARK    2  A    between atoms: N_16  and  C_7 
REMARK    3  A    between atoms: N_13  and  C_9 
ROOT
HETATM    1  C   UNK N   1      25.423  22.881  -7.980  0.00  0.00     0.138 A 
HETATM    2  C   UNK N   1      26.256  22.746  -9.156  0.00  0.00     0.146 A 
HETATM    3  C   UNK N   1      24.835  21.690  -7.857  0.00  0.00     0.146 A 
HETATM    4  N   UNK N   1      27.026  23.631  -9.673  0.00  0.00    -0.382 N 
ATOM      5  HN  UNK N   1      27.569  23.405 -10.507  1.00  0.00     0.157 HD
HETATM    6  N   UNK N   1      26.081  21.438  -9.642  0.00  0.00    -0.282 N 
ATOM      7  HN  UNK N   1      26.542  21.046 -10.462  1.00  0.00     0.188 HD
HETATM    8  N   UNK N   1      25.273  20.835  -8.906  0.00  0.00    -0.282 N 
ATOM      9  HN  UNK N   1      24.971  19.870  -9.039  1.00  0.00     0.188 HD
HETATM   10  H   UNK N   1      27.101  24.570  -9.253  0.00  0.00     0.157 HD
ENDROOT
BRANCH   1  11
HETATM   11  N   UNK N   1      25.332  24.034  -7.162  0.00  0.00    -0.293 N 
HETATM   12  N   UNK N   1      25.677  24.044  -5.965  0.00  0.00    -0.300 N 
ATOM     13  HN  UNK N   1      25.967  23.179  -5.507  1.00  0.00     0.187 HD
ATOM     14  HN  UNK N   1      24.967  24.895  -7.570  1.00  0.00     0.187 HD
BRANCH  12  15
HETATM   15  C   UNK N   1      25.666  25.265  -5.244  0.00  0.00     0.048 A 
HETATM   16  C   UNK N   1      25.052  26.405  -5.793  0.00  0.00     0.034 A 
HETATM   17  C   UNK N   1      25.100  27.625  -5.121  0.00  0.00     0.044 A 
HETATM   18  C   UNK N   1      25.765  27.722  -3.899  0.00  0.00     0.116 A 
HETATM   19  C   UNK N   1      26.373  26.590  -3.341  0.00  0.00     0.044 A 
HETATM   20  F   UNK N   1      25.828  28.914  -3.260  0.00  0.00    -0.206 F 
HETATM   21  C   UNK N   1      26.326  25.362  -4.015  0.00  0.00     0.034 A 
ENDBRANCH  12  15
ENDBRANCH   1  11
BRANCH   3  22
HETATM   22  N   UNK N   1      23.932  21.302  -6.843  0.00  0.00    -0.382 N 
HETATM   23  H   UNK N   1      24.235  20.761  -6.080  0.00  0.00     0.157 HD
HETATM   24  H   UNK N   1      22.988  21.577  -6.901  0.00  0.00     0.157 HD
ENDBRANCH   3  22
TORSDOF 3
ENDMDL
MODEL 2
REMARK VINA RESULT:      -6.1      0.101      1.919
REMARK  3 active torsions:
REMARK  status: ('A' for Active; 'I' for Inactive)
REMARK    1  A    between atoms: N_14  and  C_6 
REMARK    2  A    between atoms: N_16  and  C_7 
REMARK    3  A    between atoms: N_13  and  C_9 
ROOT
HETATM    1  C   UNK N   1      25.529  22.951  -8.066  0.00  0.00     0.138 A 
HETATM    2  C   UNK N   1      24.794  21.721  -7.870  0.00  0.00     0.146 A 
HETATM    3  C   UNK N   1      26.238  22.735  -9.175  0.00  0.00     0.146 A 
HETATM    4  N   UNK N   1      23.963  21.448  -6.932  0.00  0.00    -0.382 N 
ATOM      5  HN  UNK N   1      23.504  20.537  -6.911  1.00  0.00     0.157 HD
HETATM    6  N   UNK N   1      25.145  20.854  -8.920  0.00  0.00    -0.282 N 
ATOM      7  HN  UNK N   1      24.784  19.909  -9.053  1.00  0.00     0.188 HD
HETATM    8  N   UNK N   1      25.967  21.427  -9.663  0.00  0.00    -0.282 N 
ATOM      9  HN  UNK N   1      26.383  21.017 -10.499  1.00  0.00     0.188 HD
HETATM   10  H   UNK N   1      23.757  22.143  -6.197  0.00  0.00     0.157 HD
ENDROOT
BRANCH   1  11
HETATM   11  N   UNK N   1      25.438  24.106  -7.250  0.00  0.00    -0.293 N 
HETATM   12  N   UNK N   1      25.612  24.079  -6.017  0.00  0.00    -0.300 N 
ATOM     13  HN  UNK N   1      25.749  23.189  -5.536  1.00  0.00     0.187 HD
ATOM     14  HN  UNK N   1      25.219  24.999  -7.691  1.00  0.00     0.187 HD
BRANCH  12  15
HETATM   15  C   UNK N   1      25.620  25.294  -5.285  0.00  0.00     0.048 A 
HETATM   16  C   UNK N   1      24.991  26.439  -5.808  0.00  0.00     0.034 A 
HETATM   17  C   UNK N   1      25.057  27.653  -5.127  0.00  0.00     0.044 A 
HETATM   18  C   UNK N   1      25.754  27.739  -3.923  0.00  0.00     0.116 A 
HETATM   19  C   UNK N   1      26.376  26.603  -3.390  0.00  0.00     0.044 A 
HETATM   20  F   UNK N   1      25.834  28.926  -3.275  0.00  0.00    -0.206 F 
HETATM   21  C   UNK N   1      26.311  25.381  -4.073  0.00  0.00     0.034 A 
ENDBRANCH  12  15
ENDBRANCH   1  11
BRANCH   3  22
HETATM   22  N   UNK N   1      27.113  23.650  -9.801  0.00  0.00    -0.382 N 
HETATM   23  H   UNK N   1      27.506  24.397  -9.295  0.00  0.00     0.157 HD
HETATM   24  H   UNK N   1      27.331  23.540 -10.755  0.00  0.00     0.157 HD
ENDBRANCH   3  22
TORSDOF 3
ENDMDL
MODEL 3
REMARK VINA RESULT:      -5.7     17.347     18.748
REMARK  3 active torsions:
REMARK  status: ('A' for Active; 'I' for Inactive)
REMARK    1  A    between atoms: N_14  and  C_6 
REMARK    2  A    between atoms: N_16  and  C_7 
REMARK    3  A    between atoms: N_13  and  C_9 
ROOT
HETATM    1  C   UNK N   1      43.242  22.964   2.841  0.00  0.00     0.138 A 
HETATM    2  C   UNK N   1      43.227  21.644   3.433  0.00  0.00     0.146 A 
HETATM    3  C   UNK N   1      44.466  23.426   3.105  0.00  0.00     0.146 A 
HETATM    4  N   UNK N   1      42.263  20.798   3.431  0.00  0.00    -0.382 N 
ATOM      5  HN  UNK N   1      42.383  19.891   3.884  1.00  0.00     0.157 HD
HETATM    6  N   UNK N   1      44.489  21.433   4.016  0.00  0.00    -0.282 N 
ATOM      7  HN  UNK N   1      44.780  20.589   4.508  1.00  0.00     0.188 HD
HETATM    8  N   UNK N   1      45.195  22.446   3.833  0.00  0.00    -0.282 N 
ATOM      9  HN  UNK N   1      46.157  22.553   4.158  1.00  0.00     0.188 HD
HETATM   10  H   UNK N   1      41.365  21.029   2.977  0.00  0.00     0.157 HD
ENDROOT
BRANCH   1  11
HETATM   11  N   UNK N   1      42.179  23.556   2.117  0.00  0.00    -0.293 N 
HETATM   12  N   UNK N   1      42.111  23.534   0.873  0.00  0.00    -0.300 N 
ATOM     13  HN  UNK N   1      42.881  23.150   0.323  1.00  0.00     0.187 HD
ATOM     14  HN  UNK N   1      41.434  24.021   2.636  1.00  0.00     0.187 HD
BRANCH  12  15
HETATM   15  C   UNK N   1      40.958  24.046   0.226  0.00  0.00     0.048 A 
HETATM   16  C   UNK N   1      40.160  23.203  -0.569  0.00  0.00     0.034 A 
HETATM   17  C   UNK N   1      39.066  23.715  -1.264  0.00  0.00     0.044 A 
HETATM   18  C   UNK N   1      38.761  25.073  -1.178  0.00  0.00     0.116 A 
HETATM   19  C   UNK N   1      39.544  25.919  -0.382  0.00  0.00     0.044 A 
HETATM   20  F   UNK N   1      37.710  25.571  -1.872  0.00  0.00    -0.206 F 
HETATM   21  C   UNK N   1      40.643  25.405   0.318  0.00  0.00     0.034 A 
ENDBRANCH  12  15
ENDBRANCH   1  11
BRANCH   3  22
HETATM   22  N   UNK N   1      44.989  24.679   2.719  0.00  0.00    -0.382 N 
HETATM   23  H   UNK N   1      44.713  25.504   3.181  0.00  0.00     0.157 HD
HETATM   24  H   UNK N   1      45.637  24.729   1.979  0.00  0.00     0.157 HD
ENDBRANCH   3  22
TORSDOF 3
ENDMDL
MODEL 4
REMARK VINA RESULT:      -5.7     10.912     12.326
REMARK  3 active torsions:
REMARK  status: ('A' for Active; 'I' for Inactive)
REMARK    1  A    between atoms: N_14  and  C_6 
REMARK    2  A    between atoms: N_16  and  C_7 
REMARK    3  A    between atoms: N_13  and  C_9 
ROOT
HETATM    1  C   UNK N   1      21.124  18.645   3.220  0.00  0.00     0.138 A 
HETATM    2  C   UNK N   1      20.345  19.085   2.083  0.00  0.00     0.146 A 
HETATM    3  C   UNK N   1      20.353  17.731   3.811  0.00  0.00     0.146 A 
HETATM    4  N   UNK N   1      20.672  19.957   1.202  0.00  0.00    -0.382 N 
ATOM      5  HN  UNK N   1      20.029  20.174   0.440  1.00  0.00     0.157 HD
HETATM    6  N   UNK N   1      19.137  18.365   2.102  0.00  0.00    -0.282 N 
ATOM      7  HN  UNK N   1      18.383  18.457   1.422  1.00  0.00     0.188 HD
HETATM    8  N   UNK N   1      19.138  17.595   3.084  0.00  0.00    -0.282 N 
ATOM      9  HN  UNK N   1      18.377  16.960   3.329  1.00  0.00     0.188 HD
HETATM   10  H   UNK N   1      21.582  20.442   1.258  0.00  0.00     0.157 HD
ENDROOT
BRANCH   1  11
HETATM   11  N   UNK N   1      22.426  19.093   3.551  0.00  0.00    -0.293 N 
HETATM   12  N   UNK N   1      23.373  18.316   3.776  0.00  0.00    -0.300 N 
ATOM     13  HN  UNK N   1      23.214  17.308   3.809  1.00  0.00     0.187 HD
ATOM     14  HN  UNK N   1      22.598  20.097   3.607  1.00  0.00     0.187 HD
BRANCH  12  15
HETATM   15  C   UNK N   1      24.674  18.839   3.985  0.00  0.00     0.048 A 
HETATM   16  C   UNK N   1      25.112  19.959   3.254  0.00  0.00     0.034 A 
HETATM   17  C   UNK N   1      26.413  20.435   3.404  0.00  0.00     0.044 A 
HETATM   18  C   UNK N   1      27.292  19.796   4.278  0.00  0.00     0.116 A 
HETATM   19  C   UNK N   1      26.863  18.685   5.016  0.00  0.00     0.044 A 
HETATM   20  F   UNK N   1      28.562  20.248   4.404  0.00  0.00    -0.206 F 
HETATM   21  C   UNK N   1      25.555  18.206   4.868  0.00  0.00     0.034 A 
ENDBRANCH  12  15
ENDBRANCH   1  11
BRANCH   3  22
HETATM   22  N   UNK N   1      20.674  16.984   4.966  0.00  0.00    -0.382 N 
HETATM   23  H   UNK N   1      21.332  17.321   5.615  0.00  0.00     0.157 HD
HETATM   24  H   UNK N   1      20.234  16.117   5.122  0.00  0.00     0.157 HD
ENDBRANCH   3  22
TORSDOF 3
ENDMDL
MODEL 5
REMARK VINA RESULT:      -5.7     13.526     14.892
REMARK  3 active torsions:
REMARK  status: ('A' for Active; 'I' for Inactive)
REMARK    1  A    between atoms: N_14  and  C_6 
REMARK    2  A    between atoms: N_16  and  C_7 
REMARK    3  A    between atoms: N_13  and  C_9 
ROOT
HETATM    1  C   UNK N   1      21.060  18.884   3.301  0.00  0.00     0.138 A 
HETATM    2  C   UNK N   1      19.914  19.135   2.454  0.00  0.00     0.146 A 
HETATM    3  C   UNK N   1      21.984  19.740   2.863  0.00  0.00     0.146 A 
HETATM    4  N   UNK N   1      18.769  18.559   2.497  0.00  0.00    -0.382 N 
ATOM      5  HN  UNK N   1      18.038  18.834   1.841  1.00  0.00     0.157 HD
HETATM    6  N   UNK N   1      20.275  20.156   1.557  0.00  0.00    -0.282 N 
ATOM      7  HN  UNK N   1      19.671  20.551   0.836  1.00  0.00     0.188 HD
HETATM    8  N   UNK N   1      21.452  20.502   1.786  0.00  0.00    -0.282 N 
ATOM      9  HN  UNK N   1      21.958  21.226   1.275  1.00  0.00     0.188 HD
HETATM   10  H   UNK N   1      18.583  17.817   3.190  0.00  0.00     0.157 HD
ENDROOT
BRANCH   1  11
HETATM   11  N   UNK N   1      21.109  17.954   4.368  0.00  0.00    -0.293 N 
HETATM   12  N   UNK N   1      21.136  18.297   5.565  0.00  0.00    -0.300 N 
ATOM     13  HN  UNK N   1      21.207  19.284   5.816  1.00  0.00     0.187 HD
ATOM     14  HN  UNK N   1      21.123  16.958   4.147  1.00  0.00     0.187 HD
BRANCH  12  15
HETATM   15  C   UNK N   1      21.066  17.308   6.578  0.00  0.00     0.048 A 
HETATM   16  C   UNK N   1      20.241  17.501   7.701  0.00  0.00     0.034 A 
HETATM   17  C   UNK N   1      20.222  16.565   8.734  0.00  0.00     0.044 A 
HETATM   18  C   UNK N   1      21.030  15.431   8.660  0.00  0.00     0.116 A 
HETATM   19  C   UNK N   1      21.850  15.226   7.543  0.00  0.00     0.044 A 
HETATM   20  F   UNK N   1      21.025  14.535   9.676  0.00  0.00    -0.206 F 
HETATM   21  C   UNK N   1      21.869  16.165   6.503  0.00  0.00     0.034 A 
ENDBRANCH  12  15
ENDBRANCH   1  11
BRANCH   3  22
HETATM   22  N   UNK N   1      23.288  19.903   3.381  0.00  0.00    -0.382 N 
HETATM   23  H   UNK N   1      24.059  20.008   2.778  0.00  0.00     0.157 HD
HETATM   24  H   UNK N   1      23.427  19.911   4.356  0.00  0.00     0.157 HD
ENDBRANCH   3  22
TORSDOF 3
ENDMDL
MODEL 6
REMARK VINA RESULT:      -5.6     17.600     19.004
REMARK  3 active torsions:
REMARK  status: ('A' for Active; 'I' for Inactive)
REMARK    1  A    between atoms: N_14  and  C_6 
REMARK    2  A    between atoms: N_16  and  C_7 
REMARK    3  A    between atoms: N_13  and  C_9 
ROOT
HETATM    1  C   UNK N   1      33.481  15.301   9.538  0.00  0.00     0.138 A 
HETATM    2  C   UNK N   1      34.616  15.858  10.241  0.00  0.00     0.146 A 
HETATM    3  C   UNK N   1      33.643  13.981   9.648  0.00  0.00     0.146 A 
HETATM    4  N   UNK N   1      34.895  17.097  10.417  0.00  0.00    -0.382 N 
ATOM      5  HN  UNK N   1      35.730  17.360  10.940  1.00  0.00     0.157 HD
HETATM    6  N   UNK N   1      35.378  14.779  10.724  0.00  0.00    -0.282 N 
ATOM      7  HN  UNK N   1      36.240  14.858  11.263  1.00  0.00     0.188 HD
HETATM    8  N   UNK N   1      34.828  13.710  10.388  0.00  0.00    -0.282 N 
ATOM      9  HN  UNK N   1      35.178  12.778  10.611  1.00  0.00     0.188 HD
HETATM   10  H   UNK N   1      34.280  17.832  10.031  0.00  0.00     0.157 HD
ENDROOT
BRANCH   1  11
HETATM   11  N   UNK N   1      32.441  16.045   8.929  0.00  0.00    -0.293 N 
HETATM   12  N   UNK N   1      31.331  16.224   9.467  0.00  0.00    -0.300 N 
ATOM     13  HN  UNK N   1      31.106  15.759  10.347  1.00  0.00     0.187 HD
ATOM     14  HN  UNK N   1      32.607  16.454   8.010  1.00  0.00     0.187 HD
BRANCH  12  15
HETATM   15  C   UNK N   1      30.383  17.077   8.848  0.00  0.00     0.048 A 
HETATM   16  C   UNK N   1      29.498  17.839   9.633  0.00  0.00     0.034 A 
HETATM   17  C   UNK N   1      28.518  18.625   9.030  0.00  0.00     0.044 A 
HETATM   18  C   UNK N   1      28.407  18.655   7.640  0.00  0.00     0.116 A 
HETATM   19  C   UNK N   1      29.289  17.907   6.850  0.00  0.00     0.044 A 
HETATM   20  F   UNK N   1      27.439  19.404   7.059  0.00  0.00    -0.206 F 
HETATM   21  C   UNK N   1      30.275  17.116   7.454  0.00  0.00     0.034 A 
ENDBRANCH  12  15
ENDBRANCH   1  11
BRANCH   3  22
HETATM   22  N   UNK N   1      32.781  12.986   9.140  0.00  0.00    -0.382 N 
HETATM   23  H   UNK N   1      32.516  12.986   8.192  0.00  0.00     0.157 HD
HETATM   24  H   UNK N   1      32.440  12.283   9.741  0.00  0.00     0.157 HD
ENDBRANCH   3  22
TORSDOF 3
ENDMDL
MODEL 7
REMARK VINA RESULT:      -5.6     25.657     26.992
REMARK  3 active torsions:
REMARK  status: ('A' for Active; 'I' for Inactive)
REMARK    1  A    between atoms: N_14  and  C_6 
REMARK    2  A    between atoms: N_16  and  C_7 
REMARK    3  A    between atoms: N_13  and  C_9 
ROOT
HETATM    1  C   UNK N   1      35.371  12.948  13.315  0.00  0.00     0.138 A 
HETATM    2  C   UNK N   1      34.638  12.199  12.317  0.00  0.00     0.146 A 
HETATM    3  C   UNK N   1      35.738  14.063  12.682  0.00  0.00     0.146 A 
HETATM    4  N   UNK N   1      34.076  11.054  12.456  0.00  0.00    -0.382 N 
ATOM      5  HN  UNK N   1      33.582  10.633  11.669  1.00  0.00     0.157 HD
HETATM    6  N   UNK N   1      34.635  12.966  11.139  0.00  0.00    -0.282 N 
ATOM      7  HN  UNK N   1      34.192  12.699  10.260  1.00  0.00     0.188 HD
HETATM    8  N   UNK N   1      35.260  14.026  11.342  0.00  0.00    -0.282 N 
ATOM      9  HN  UNK N   1      35.408  14.759  10.648  1.00  0.00     0.188 HD
HETATM   10  H   UNK N   1      34.122  10.555  13.358  0.00  0.00     0.157 HD
ENDROOT
BRANCH   1  11
HETATM   11  N   UNK N   1      35.578  12.549  14.658  0.00  0.00    -0.293 N 
HETATM   12  N   UNK N   1      34.931  13.021  15.612  0.00  0.00    -0.300 N 
ATOM     13  HN  UNK N   1      34.273  13.786  15.459  1.00  0.00     0.187 HD
ATOM     14  HN  UNK N   1      36.290  11.845  14.854  1.00  0.00     0.187 HD
BRANCH  12  15
HETATM   15  C   UNK N   1      35.115  12.488  16.913  0.00  0.00     0.048 A 
HETATM   16  C   UNK N   1      35.065  13.332  18.037  0.00  0.00     0.034 A 
HETATM   17  C   UNK N   1      35.315  12.827  19.312  0.00  0.00     0.044 A 
HETATM   18  C   UNK N   1      35.622  11.477  19.477  0.00  0.00     0.116 A 
HETATM   19  C   UNK N   1      35.666  10.626  18.365  0.00  0.00     0.044 A 
HETATM   20  F   UNK N   1      35.885  10.994  20.715  0.00  0.00    -0.206 F 
HETATM   21  C   UNK N   1      35.414  11.133  17.083  0.00  0.00     0.034 A 
ENDBRANCH  12  15
ENDBRANCH   1  11
BRANCH   3  22
HETATM   22  N   UNK N   1      36.467  15.138  13.234  0.00  0.00    -0.382 N 
HETATM   23  H   UNK N   1      36.025  15.992  13.442  0.00  0.00     0.157 HD
HETATM   24  H   UNK N   1      37.430  15.033  13.413  0.00  0.00     0.157 HD
ENDBRANCH   3  22
TORSDOF 3
ENDMDL
MODEL 8
REMARK VINA RESULT:      -5.6     18.063     19.451
REMARK  3 active torsions:
REMARK  status: ('A' for Active; 'I' for Inactive)
REMARK    1  A    between atoms: N_14  and  C_6 
REMARK    2  A    between atoms: N_16  and  C_7 
REMARK    3  A    between atoms: N_13  and  C_9 
ROOT
HETATM    1  C   UNK N   1      23.096  12.861  10.024  0.00  0.00     0.138 A 
HETATM    2  C   UNK N   1      24.536  12.996   9.998  0.00  0.00     0.146 A 
HETATM    3  C   UNK N   1      22.845  12.259  11.188  0.00  0.00     0.146 A 
HETATM    4  N   UNK N   1      25.254  13.526   9.077  0.00  0.00    -0.382 N 
ATOM      5  HN  UNK N   1      26.268  13.563   9.184  1.00  0.00     0.157 HD
HETATM    6  N   UNK N   1      25.028  12.442  11.193  0.00  0.00    -0.282 N 
ATOM      7  HN  UNK N   1      26.010  12.394  11.462  1.00  0.00     0.188 HD
HETATM    8  N   UNK N   1      24.069  12.022  11.872  0.00  0.00    -0.282 N 
ATOM      9  HN  UNK N   1      24.153  11.572  12.784  1.00  0.00     0.188 HD
HETATM   10  H   UNK N   1      24.814  13.913   8.228  0.00  0.00     0.157 HD
ENDROOT
BRANCH   1  11
HETATM   11  N   UNK N   1      22.205  13.325   9.025  0.00  0.00    -0.293 N 
HETATM   12  N   UNK N   1      21.475  14.322   9.179  0.00  0.00    -0.300 N 
ATOM     13  HN  UNK N   1      21.437  14.797  10.082  1.00  0.00     0.187 HD
ATOM     14  HN  UNK N   1      22.158  12.820   8.140  1.00  0.00     0.187 HD
BRANCH  12  15
HETATM   15  C   UNK N   1      20.697  14.794   8.092  0.00  0.00     0.048 A 
HETATM   16  C   UNK N   1      20.658  14.074   6.885  0.00  0.00     0.034 A 
HETATM   17  C   UNK N   1      19.952  14.569   5.789  0.00  0.00     0.044 A 
HETATM   18  C   UNK N   1      19.284  15.789   5.885  0.00  0.00     0.116 A 
HETATM   19  C   UNK N   1      19.311  16.510   7.086  0.00  0.00     0.044 A 
HETATM   20  F   UNK N   1      18.618  16.277   4.812  0.00  0.00    -0.206 F 
HETATM   21  C   UNK N   1      20.019  16.014   8.188  0.00  0.00     0.034 A 
ENDBRANCH  12  15
ENDBRANCH   1  11
BRANCH   3  22
HETATM   22  N   UNK N   1      21.573  11.918  11.698  0.00  0.00    -0.382 N 
HETATM   23  H   UNK N   1      21.140  12.475  12.384  0.00  0.00     0.157 HD
HETATM   24  H   UNK N   1      21.114  11.113  11.364  0.00  0.00     0.157 HD
ENDBRANCH   3  22
TORSDOF 3
ENDMDL
MODEL 9
REMARK VINA RESULT:      -5.6     23.173     24.549
REMARK  3 active torsions:
REMARK  status: ('A' for Active; 'I' for Inactive)
REMARK    1  A    between atoms: N_14  and  C_6 
REMARK    2  A    between atoms: N_16  and  C_7 
REMARK    3  A    between atoms: N_13  and  C_9 
ROOT
HETATM    1  C   UNK N   1      35.075  14.458  11.007  0.00  0.00     0.138 A 
HETATM    2  C   UNK N   1      33.968  14.974  10.233  0.00  0.00     0.146 A 
HETATM    3  C   UNK N   1      36.143  14.677  10.238  0.00  0.00     0.146 A 
HETATM    4  N   UNK N   1      32.728  14.997  10.561  0.00  0.00    -0.382 N 
ATOM      5  HN  UNK N   1      32.042  15.397   9.921  1.00  0.00     0.157 HD
HETATM    6  N   UNK N   1      34.497  15.473   9.029  0.00  0.00    -0.282 N 
ATOM      7  HN  UNK N   1      33.958  15.904   8.279  1.00  0.00     0.188 HD
HETATM    8  N   UNK N   1      35.734  15.305   9.028  0.00  0.00    -0.282 N 
ATOM      9  HN  UNK N   1      36.360  15.577   8.270  1.00  0.00     0.188 HD
HETATM   10  H   UNK N   1      32.420  14.611  11.467  0.00  0.00     0.157 HD
ENDROOT
BRANCH   1  11
HETATM   11  N   UNK N   1      34.984  13.897  12.305  0.00  0.00    -0.293 N 
HETATM   12  N   UNK N   1      34.645  12.716  12.511  0.00  0.00    -0.300 N 
ATOM     13  HN  UNK N   1      34.337  12.128  11.735  1.00  0.00     0.187 HD
ATOM     14  HN  UNK N   1      35.206  14.486  13.108  1.00  0.00     0.187 HD
BRANCH  12  15
HETATM   15  C   UNK N   1      34.691  12.195  13.828  0.00  0.00     0.048 A 
HETATM   16  C   UNK N   1      35.368  12.895  14.843  0.00  0.00     0.034 A 
HETATM   17  C   UNK N   1      35.477  12.353  16.123  0.00  0.00     0.044 A 
HETATM   18  C   UNK N   1      34.917  11.106  16.401  0.00  0.00     0.116 A 
HETATM   19  C   UNK N   1      34.234  10.405  15.399  0.00  0.00     0.044 A 
HETATM   20  F   UNK N   1      35.044  10.574  17.640  0.00  0.00    -0.206 F 
HETATM   21  C   UNK N   1      34.123  10.949  14.112  0.00  0.00     0.034 A 
ENDBRANCH  12  15
ENDBRANCH   1  11
BRANCH   3  22
HETATM   22  N   UNK N   1      37.483  14.365  10.556  0.00  0.00    -0.382 N 
HETATM   23  H   UNK N   1      37.851  13.473  10.364  0.00  0.00     0.157 HD
HETATM   24  H   UNK N   1      38.056  15.049  10.974  0.00  0.00     0.157 HD
ENDBRANCH   3  22
TORSDOF 3
ENDMDL
