REMARK  7 active torsions:
REMARK  status: ('A' for Active; 'I' for Inactive)
REMARK    1  A    between atoms: C_7  and  C_4 
REMARK    2  A    between atoms: C_8  and  C_4 
REMARK    3  A    between atoms: C_12  and  C_7 
REMARK    4  A    between atoms: N_15  and  C_8 
REMARK    5  A    between atoms: C_9  and  N_15 
REMARK    6  A    between atoms: C_13  and  C_10 
REMARK    7  A    between atoms: O_19  and  C_12 
ROOT
HETATM    1  C   UNK N   1       8.868   5.609  -0.241  0.00  0.00     0.119 C 
HETATM    2  C   UNK N   1       8.675   4.273  -0.218  0.00  0.00     0.126 A 
HETATM    3  C   UNK N   1       9.246   2.182  -0.062  0.00  0.00     0.162 A 
HETATM    4  C   UNK N   1       7.509   3.424  -0.428  0.00  0.00     0.318 A 
HETATM    5  N   UNK N   1       9.731   3.379   0.008  0.00  0.00    -0.330 N 
ATOM      6  HN  UNK N   1      10.703   3.626   0.192  1.00  0.00     0.168 HD
HETATM    7  O   UNK N   1       6.373   3.744  -0.719  0.00  0.00    -0.257 OA
HETATM    8  O   UNK N   1       7.910   2.148  -0.313  0.00  0.00    -0.255 OA
ENDROOT
BRANCH   1   9
HETATM    9  N   UNK N   1       7.885   6.619  -0.456  0.00  0.00    -0.397 N 
HETATM   10  H   UNK N   1       8.197   7.545  -0.571  0.00  0.00     0.158 HD
BRANCH   9  11
HETATM   11  C   UNK N   1       6.471   6.380  -0.517  0.00  0.00     0.119 C 
BRANCH  11  12
HETATM   12  C   UNK N   1       5.840   6.702   0.826  0.00  0.00     0.030 C 
BRANCH  12  13
HETATM   13  C   UNK N   1       4.843   5.628   1.252  0.00  0.00     0.111 C 
BRANCH  13  14
HETATM   14  C   UNK N   1       3.747   5.443   0.249  0.00  0.00     0.139 C 
HETATM   15  O   UNK N   1       3.526   4.336  -0.214  0.00  0.00    -0.650 OA
BRANCH  14  16
HETATM   16  O   UNK N   1       3.005   6.495  -0.145  0.00  0.00    -0.776 OA
HETATM   17  H   UNK N   1       3.381   7.309  -0.418  0.00  0.00     0.167 HD
ENDBRANCH  14  16
ENDBRANCH  13  14
ENDBRANCH  12  13
ENDBRANCH  11  12
ENDBRANCH   9  11
ENDBRANCH   1   9
BRANCH   3  18
HETATM   18  C   UNK N   1      10.067   0.970   0.068  0.00  0.00     0.015 A 
HETATM   19  C   UNK N   1      11.450   1.061   0.271  0.00  0.00     0.016 A 
HETATM   20  C   UNK N   1      12.226  -0.099   0.346  0.00  0.00     0.001 A 
HETATM   21  C   UNK N   1      11.623  -1.353   0.214  0.00  0.00     0.000 A 
HETATM   22  C   UNK N   1      10.244  -1.449   0.014  0.00  0.00     0.001 A 
HETATM   23  C   UNK N   1       9.467  -0.290  -0.061  0.00  0.00     0.016 A 
ENDBRANCH   3  18
TORSDOF 7
