REMARK  8 active torsions:
REMARK  status: ('A' for Active; 'I' for Inactive)
REMARK    1  A    between atoms: C_15  and  C_12 
REMARK    2  A    between atoms: P_25  and  C_12 
REMARK    3  A    between atoms: C_16  and  C_13 
REMARK    4  A    between atoms: O_24  and  C_13 
REMARK    5  A    between atoms: O_20  and  C_14 
REMARK    6  A    between atoms: N_18  and  C_17 
REMARK    7  A    between atoms: P_25  and  O_22 
REMARK    8  A    between atoms: P_25  and  O_24 
ROOT
HETATM    1  C   UNK N   1      -1.188  10.121   0.385  0.00  0.00     0.163 C 
ENDROOT
BRANCH   1   2
HETATM    2  C   UNK N   1      -2.647  10.506   0.262  0.00  0.00    -0.047 A 
HETATM    3  C   UNK N   1      -3.005  11.619  -0.506  0.00  0.00     0.010 A 
HETATM    4  C   UNK N   1      -4.352  11.969  -0.651  0.00  0.00     0.030 A 
HETATM    5  C   UNK N   1      -5.354  11.204  -0.043  0.00  0.00     0.033 A 
HETATM    6  C   UNK N   1      -4.987  10.098   0.741  0.00  0.00     0.030 A 
HETATM    7  C   UNK N   1      -3.644   9.756   0.897  0.00  0.00     0.010 A 
BRANCH   5   8
HETATM    8  N   UNK N   1      -6.718  11.579  -0.236  0.00  0.00    -0.341 N 
HETATM    9  C   UNK N   1      -7.752  10.859   0.051  0.00  0.00     0.111 C 
HETATM   10  C   UNK N   1      -9.113  11.409  -0.194  0.00  0.00     0.097 C 
ATOM     11  HN  UNK N   1      -6.892  12.501  -0.637  1.00  0.00     0.167 HD
BRANCH   9  12
HETATM   12  O   UNK N   1      -7.633   9.607   0.540  0.00  0.00    -0.350 OA
ATOM     13  HO  UNK N   1      -6.764   9.255   0.696  1.00  0.00     0.219 HD
ENDBRANCH   9  12
ENDBRANCH   5   8
ENDBRANCH   1   2
BRANCH   1  14
HETATM   14  P   UNK N   1      -0.620   8.383  -0.175  0.00  0.00     0.243 P 
HETATM   15  O   UNK N   1      -1.325   8.217   1.197  0.00  0.00    -0.653 OA
BRANCH  14  16
HETATM   16  O   UNK N   1      -1.936   8.550  -1.299  0.00  0.00    -0.329 OA
HETATM   17  H   UNK N   1      -2.223   9.232  -1.927  0.00  0.00     0.220 HD
ENDBRANCH  14  16
BRANCH  14  18
HETATM   18  O   UNK N   1      -1.203   6.733  -0.232  0.00  0.00    -0.309 OA
BRANCH  18  19
HETATM   19  C   UNK N   1      -0.124   5.827  -0.126  0.00  0.00     0.160 C 
HETATM   20  C   UNK N   1       0.784   5.920  -1.352  0.00  0.00     0.045 C 
BRANCH  19  21
HETATM   21  C   UNK N   1      -0.664   4.418  -0.046  0.00  0.00    -0.029 A 
HETATM   22  C   UNK N   1       0.218   3.331   0.076  0.00  0.00     0.010 A 
HETATM   23  C   UNK N   1      -0.275   2.024   0.128  0.00  0.00     0.001 A 
HETATM   24  C   UNK N   1      -1.651   1.790   0.061  0.00  0.00     0.000 A 
HETATM   25  C   UNK N   1      -2.537   2.864  -0.054  0.00  0.00     0.001 A 
HETATM   26  C   UNK N   1      -2.046   4.171  -0.108  0.00  0.00     0.010 A 
ENDBRANCH  19  21
ENDBRANCH  18  19
ENDBRANCH  14  18
ENDBRANCH   1  14
TORSDOF 8
