MODEL 1
REMARK VINA RESULT:      -6.5      0.000      0.000
REMARK  13 active torsions:
REMARK  status: ('A' for Active; 'I' for Inactive)
REMARK    1  A    between atoms: C_15  and  C_11 
REMARK    2  A    between atoms: C_18  and  C_11 
REMARK    3  A    between atoms: C_19  and  C_12 
REMARK    4  A    between atoms: C_16  and  C_13 
REMARK    5  A    between atoms: O_31  and  C_13 
REMARK    6  A    between atoms: C_19  and  C_14 
REMARK    7  A    between atoms: N_23  and  C_14 
REMARK    8  A    between atoms: O_27  and  C_17 
REMARK    9  A    between atoms: C_20  and  C_18 
REMARK   10  A    between atoms: C_18  and  N_25 
REMARK   11  A    between atoms: C_20  and  O_29 
REMARK   12  A    between atoms: C_21  and  O_30 
REMARK   13  A    between atoms: O_31  and  C_21 
ROOT
HETATM    1  C   UNK N   1      36.105  14.243   9.627  0.00  0.00     0.164 C 
ENDROOT
BRANCH   1   2
HETATM    2  C   UNK N   1      36.407  13.625   8.248  0.00  0.00     0.072 C 
BRANCH   2   3
HETATM    3  C   UNK N   1      35.410  13.797   7.122  0.00  0.00    -0.056 A 
HETATM    4  C   UNK N   1      35.779  14.227   5.835  0.00  0.00     0.010 A 
HETATM    5  C   UNK N   1      34.831  14.282   4.807  0.00  0.00     0.037 A 
HETATM    6  C   UNK N   1      33.507  13.909   5.058  0.00  0.00     0.065 A 
HETATM    7  C   UNK N   1      33.131  13.495   6.337  0.00  0.00     0.037 A 
HETATM    8  C   UNK N   1      34.080  13.436   7.363  0.00  0.00     0.010 A 
BRANCH   6   9
HETATM    9  O   UNK N   1      32.601  13.946   4.069  0.00  0.00    -0.361 OA
HETATM   10  H   UNK N   1      32.851  14.007   3.167  0.00  0.00     0.217 HD
ENDBRANCH   6   9
ENDBRANCH   2   3
ENDBRANCH   1   2
BRANCH   1  11
HETATM   11  C   UNK N   1      37.407  14.200  10.415  0.00  0.00     0.135 C 
HETATM   12  N   UNK N   1      37.593  13.535  11.511  0.00  0.00    -0.362 N 
ATOM     13  HN  UNK N   1      38.514  13.641  11.938  1.00  0.00     0.162 HD
BRANCH  12  14
HETATM   14  C   UNK N   1      36.675  12.664  12.218  0.00  0.00     0.151 C 
HETATM   15  C   UNK N   1      37.486  11.646  12.998  0.00  0.00     0.040 C 
BRANCH  14  16
HETATM   16  C   UNK N   1      35.840  13.491  13.160  0.00  0.00     0.177 C 
HETATM   17  O   UNK N   1      34.694  13.782  12.856  0.00  0.00    -0.293 OA
BRANCH  16  18
HETATM   18  C   UNK N   1      36.403  14.010  14.450  0.00  0.00     0.302 C 
HETATM   19  F   UNK N   1      36.836  15.314  14.312  0.00  0.00    -0.247 F 
ENDBRANCH  16  18
ENDBRANCH  14  16
ENDBRANCH  12  14
BRANCH  11  20
HETATM   20  O   UNK N   1      38.437  14.931   9.942  0.00  0.00    -0.348 OA
HETATM   21  H   UNK N   1      39.303  15.148   9.656  0.00  0.00     0.219 HD
ENDBRANCH  11  20
ENDBRANCH   1  11
BRANCH   1  22
HETATM   22  N   UNK N   1      35.725  15.628   9.452  0.00  0.00    -0.338 N 
HETATM   23  C   UNK N   1      34.666  16.177   9.930  0.00  0.00     0.259 C 
ATOM     24  HN  UNK N   1      36.351  16.218   8.904  1.00  0.00     0.164 HD
BRANCH  23  25
HETATM   25  O   UNK N   1      33.784  15.466  10.670  0.00  0.00    -0.327 OA
HETATM   26  H   UNK N   1      32.935  15.779  10.915  0.00  0.00     0.221 HD
ENDBRANCH  23  25
BRANCH  23  27
HETATM   27  O   UNK N   1      34.458  17.483   9.677  0.00  0.00    -0.312 OA
BRANCH  27  28
HETATM   28  C   UNK N   1      34.638  18.082   8.456  0.00  0.00     0.218 C 
BRANCH  28  29
HETATM   29  C   UNK N   1      33.489  17.728   7.558  0.00  0.00    -0.034 A 
HETATM   30  C   UNK N   1      33.677  17.574   6.174  0.00  0.00     0.009 A 
HETATM   31  C   UNK N   1      32.602  17.253   5.344  0.00  0.00     0.001 A 
HETATM   32  C   UNK N   1      31.329  17.085   5.892  0.00  0.00     0.000 A 
HETATM   33  C   UNK N   1      31.134  17.236   7.269  0.00  0.00     0.001 A 
HETATM   34  C   UNK N   1      32.211  17.557   8.101  0.00  0.00     0.009 A 
ENDBRANCH  28  29
ENDBRANCH  27  28
ENDBRANCH  23  27
ENDBRANCH   1  22
TORSDOF 13
ENDMDL
MODEL 2
REMARK VINA RESULT:      -6.3      3.163      4.822
REMARK  13 active torsions:
REMARK  status: ('A' for Active; 'I' for Inactive)
REMARK    1  A    between atoms: C_15  and  C_11 
REMARK    2  A    between atoms: C_18  and  C_11 
REMARK    3  A    between atoms: C_19  and  C_12 
REMARK    4  A    between atoms: C_16  and  C_13 
REMARK    5  A    between atoms: O_31  and  C_13 
REMARK    6  A    between atoms: C_19  and  C_14 
REMARK    7  A    between atoms: N_23  and  C_14 
REMARK    8  A    between atoms: O_27  and  C_17 
REMARK    9  A    between atoms: C_20  and  C_18 
REMARK   10  A    between atoms: C_18  and  N_25 
REMARK   11  A    between atoms: C_20  and  O_29 
REMARK   12  A    between atoms: C_21  and  O_30 
REMARK   13  A    between atoms: O_31  and  C_21 
ROOT
HETATM    1  C   UNK N   1      32.301  16.641   8.599  0.00  0.00     0.164 C 
ENDROOT
BRANCH   1   2
HETATM    2  C   UNK N   1      32.245  15.617   7.450  0.00  0.00     0.072 C 
BRANCH   2   3
HETATM    3  C   UNK N   1      31.637  16.019   6.123  0.00  0.00    -0.056 A 
HETATM    4  C   UNK N   1      32.227  16.966   5.268  0.00  0.00     0.010 A 
HETATM    5  C   UNK N   1      31.669  17.234   4.014  0.00  0.00     0.037 A 
HETATM    6  C   UNK N   1      30.516  16.559   3.604  0.00  0.00     0.065 A 
HETATM    7  C   UNK N   1      29.915  15.628   4.454  0.00  0.00     0.037 A 
HETATM    8  C   UNK N   1      30.476  15.358   5.706  0.00  0.00     0.010 A 
BRANCH   6   9
HETATM    9  O   UNK N   1      29.989  16.803   2.394  0.00  0.00    -0.361 OA
HETATM   10  H   UNK N   1      29.898  17.674   2.058  0.00  0.00     0.217 HD
ENDBRANCH   6   9
ENDBRANCH   2   3
ENDBRANCH   1   2
BRANCH   1  11
HETATM   11  C   UNK N   1      33.694  17.256   8.563  0.00  0.00     0.135 C 
HETATM   12  N   UNK N   1      34.760  16.715   9.060  0.00  0.00    -0.362 N 
ATOM     13  HN  UNK N   1      35.611  17.274   8.987  1.00  0.00     0.162 HD
BRANCH  12  14
HETATM   14  C   UNK N   1      34.915  15.427   9.708  0.00  0.00     0.151 C 
HETATM   15  C   UNK N   1      35.515  14.458   8.706  0.00  0.00     0.040 C 
BRANCH  14  16
HETATM   16  C   UNK N   1      35.832  15.581  10.893  0.00  0.00     0.177 C 
HETATM   17  O   UNK N   1      36.703  16.436  10.877  0.00  0.00    -0.293 OA
BRANCH  16  18
HETATM   18  C   UNK N   1      35.730  14.669  12.080  0.00  0.00     0.302 C 
HETATM   19  F   UNK N   1      36.646  13.639  11.993  0.00  0.00    -0.247 F 
ENDBRANCH  16  18
ENDBRANCH  14  16
ENDBRANCH  12  14
BRANCH  11  20
HETATM   20  O   UNK N   1      33.815  18.469   7.987  0.00  0.00    -0.348 OA
HETATM   21  H   UNK N   1      33.682  19.172   7.381  0.00  0.00     0.219 HD
ENDBRANCH  11  20
ENDBRANCH   1  11
BRANCH   1  22
HETATM   22  N   UNK N   1      31.335  17.688   8.348  0.00  0.00    -0.338 N 
HETATM   23  C   UNK N   1      30.262  17.893   9.026  0.00  0.00     0.259 C 
ATOM     24  HN  UNK N   1      31.521  18.318   7.566  1.00  0.00     0.164 HD
BRANCH  23  25
HETATM   25  O   UNK N   1      29.942  17.105  10.079  0.00  0.00    -0.327 OA
HETATM   26  H   UNK N   1      29.077  17.034  10.433  0.00  0.00     0.221 HD
ENDBRANCH  23  25
BRANCH  23  27
HETATM   27  O   UNK N   1      29.467  18.916   8.662  0.00  0.00    -0.312 OA
BRANCH  27  28
HETATM   28  C   UNK N   1      28.129  18.804   8.377  0.00  0.00     0.218 C 
BRANCH  28  29
HETATM   29  C   UNK N   1      27.879  19.297   6.982  0.00  0.00    -0.034 A 
HETATM   30  C   UNK N   1      28.268  18.536   5.867  0.00  0.00     0.009 A 
HETATM   31  C   UNK N   1      28.039  19.006   4.573  0.00  0.00     0.001 A 
HETATM   32  C   UNK N   1      27.421  20.243   4.384  0.00  0.00     0.000 A 
HETATM   33  C   UNK N   1      27.031  21.008   5.488  0.00  0.00     0.001 A 
HETATM   34  C   UNK N   1      27.259  20.536   6.786  0.00  0.00     0.009 A 
ENDBRANCH  28  29
ENDBRANCH  27  28
ENDBRANCH  23  27
ENDBRANCH   1  22
TORSDOF 13
ENDMDL
MODEL 3
REMARK VINA RESULT:      -6.1     13.278     15.807
REMARK  13 active torsions:
REMARK  status: ('A' for Active; 'I' for Inactive)
REMARK    1  A    between atoms: C_15  and  C_11 
REMARK    2  A    between atoms: C_18  and  C_11 
REMARK    3  A    between atoms: C_19  and  C_12 
REMARK    4  A    between atoms: C_16  and  C_13 
REMARK    5  A    between atoms: O_31  and  C_13 
REMARK    6  A    between atoms: C_19  and  C_14 
REMARK    7  A    between atoms: N_23  and  C_14 
REMARK    8  A    between atoms: O_27  and  C_17 
REMARK    9  A    between atoms: C_20  and  C_18 
REMARK   10  A    between atoms: C_18  and  N_25 
REMARK   11  A    between atoms: C_20  and  O_29 
REMARK   12  A    between atoms: C_21  and  O_30 
REMARK   13  A    between atoms: O_31  and  C_21 
ROOT
HETATM    1  C   UNK N   1      20.726  15.808   4.966  0.00  0.00     0.164 C 
ENDROOT
BRANCH   1   2
HETATM    2  C   UNK N   1      20.848  14.436   4.276  0.00  0.00     0.072 C 
BRANCH   2   3
HETATM    3  C   UNK N   1      21.642  14.316   2.993  0.00  0.00    -0.056 A 
HETATM    4  C   UNK N   1      22.994  14.688   2.894  0.00  0.00     0.010 A 
HETATM    5  C   UNK N   1      23.704  14.473   1.708  0.00  0.00     0.037 A 
HETATM    6  C   UNK N   1      23.068  13.885   0.611  0.00  0.00     0.065 A 
HETATM    7  C   UNK N   1      21.722  13.525   0.697  0.00  0.00     0.037 A 
HETATM    8  C   UNK N   1      21.014  13.738   1.884  0.00  0.00     0.010 A 
BRANCH   6   9
HETATM    9  O   UNK N   1      23.753  13.662  -0.522  0.00  0.00    -0.361 OA
HETATM   10  H   UNK N   1      23.368  13.226  -1.257  0.00  0.00     0.217 HD
ENDBRANCH   6   9
ENDBRANCH   2   3
ENDBRANCH   1   2
BRANCH   1  11
HETATM   11  C   UNK N   1      19.449  16.447   4.436  0.00  0.00     0.135 C 
HETATM   12  N   UNK N   1      19.387  17.283   3.449  0.00  0.00    -0.362 N 
ATOM     13  HN  UNK N   1      18.459  17.650   3.242  1.00  0.00     0.162 HD
BRANCH  12  14
HETATM   14  C   UNK N   1      20.455  17.771   2.598  0.00  0.00     0.151 C 
HETATM   15  C   UNK N   1      20.164  17.341   1.172  0.00  0.00     0.040 C 
BRANCH  14  16
HETATM   16  C   UNK N   1      20.504  19.274   2.686  0.00  0.00     0.177 C 
HETATM   17  O   UNK N   1      20.263  19.827   3.748  0.00  0.00    -0.293 OA
BRANCH  16  18
HETATM   18  C   UNK N   1      20.797  20.116   1.479  0.00  0.00     0.302 C 
HETATM   19  F   UNK N   1      20.669  21.461   1.772  0.00  0.00    -0.247 F 
ENDBRANCH  16  18
ENDBRANCH  14  16
ENDBRANCH  12  14
BRANCH  11  20
HETATM   20  O   UNK N   1      18.298  16.131   5.064  0.00  0.00    -0.348 OA
HETATM   21  H   UNK N   1      17.683  15.651   5.585  0.00  0.00     0.219 HD
ENDBRANCH  11  20
ENDBRANCH   1  11
BRANCH   1  22
HETATM   22  N   UNK N   1      20.578  15.610   6.391  0.00  0.00    -0.338 N 
HETATM   23  C   UNK N   1      20.956  16.434   7.302  0.00  0.00     0.259 C 
ATOM     24  HN  UNK N   1      20.137  14.743   6.699  1.00  0.00     0.164 HD
BRANCH  23  25
HETATM   25  O   UNK N   1      21.548  17.607   6.980  0.00  0.00    -0.327 OA
HETATM   26  H   UNK N   1      21.161  18.250   6.417  0.00  0.00     0.221 HD
ENDBRANCH  23  25
BRANCH  23  27
HETATM   27  O   UNK N   1      20.743  16.100   8.589  0.00  0.00    -0.312 OA
BRANCH  27  28
HETATM   28  C   UNK N   1      19.943  15.066   9.007  0.00  0.00     0.218 C 
BRANCH  28  29
HETATM   29  C   UNK N   1      20.786  14.040   9.704  0.00  0.00    -0.034 A 
HETATM   30  C   UNK N   1      20.216  13.142  10.623  0.00  0.00     0.009 A 
HETATM   31  C   UNK N   1      21.009  12.195  11.273  0.00  0.00     0.001 A 
HETATM   32  C   UNK N   1      22.379  12.141  11.013  0.00  0.00     0.000 A 
HETATM   33  C   UNK N   1      22.954  13.032  10.101  0.00  0.00     0.001 A 
HETATM   34  C   UNK N   1      22.160  13.979   9.446  0.00  0.00     0.009 A 
ENDBRANCH  28  29
ENDBRANCH  27  28
ENDBRANCH  23  27
ENDBRANCH   1  22
TORSDOF 13
ENDMDL
MODEL 4
REMARK VINA RESULT:      -6.0      3.609      9.148
REMARK  13 active torsions:
REMARK  status: ('A' for Active; 'I' for Inactive)
REMARK    1  A    between atoms: C_15  and  C_11 
REMARK    2  A    between atoms: C_18  and  C_11 
REMARK    3  A    between atoms: C_19  and  C_12 
REMARK    4  A    between atoms: C_16  and  C_13 
REMARK    5  A    between atoms: O_31  and  C_13 
REMARK    6  A    between atoms: C_19  and  C_14 
REMARK    7  A    between atoms: N_23  and  C_14 
REMARK    8  A    between atoms: O_27  and  C_17 
REMARK    9  A    between atoms: C_20  and  C_18 
REMARK   10  A    between atoms: C_18  and  N_25 
REMARK   11  A    between atoms: C_20  and  O_29 
REMARK   12  A    between atoms: C_21  and  O_30 
REMARK   13  A    between atoms: O_31  and  C_21 
ROOT
HETATM    1  C   UNK N   1      36.627  13.343  13.028  0.00  0.00     0.164 C 
ENDROOT
BRANCH   1   2
HETATM    2  C   UNK N   1      37.182  11.978  12.579  0.00  0.00     0.072 C 
BRANCH   2   3
HETATM    3  C   UNK N   1      37.072  10.789  13.509  0.00  0.00    -0.056 A 
HETATM    4  C   UNK N   1      35.952   9.940  13.534  0.00  0.00     0.010 A 
HETATM    5  C   UNK N   1      35.942   8.803  14.350  0.00  0.00     0.037 A 
HETATM    6  C   UNK N   1      37.051   8.506  15.147  0.00  0.00     0.065 A 
HETATM    7  C   UNK N   1      38.162   9.352  15.138  0.00  0.00     0.037 A 
HETATM    8  C   UNK N   1      38.172  10.487  14.320  0.00  0.00     0.010 A 
BRANCH   6   9
HETATM    9  O   UNK N   1      37.050   7.407  15.917  0.00  0.00    -0.361 OA
HETATM   10  H   UNK N   1      36.689   6.593  15.622  0.00  0.00     0.217 HD
ENDBRANCH   6   9
ENDBRANCH   2   3
ENDBRANCH   1   2
BRANCH   1  11
HETATM   11  C   UNK N   1      35.311  13.541  12.289  0.00  0.00     0.135 C 
HETATM   12  N   UNK N   1      35.139  14.317  11.267  0.00  0.00    -0.362 N 
ATOM     13  HN  UNK N   1      34.185  14.367  10.909  1.00  0.00     0.162 HD
BRANCH  12  14
HETATM   14  C   UNK N   1      36.113  15.126  10.561  0.00  0.00     0.151 C 
HETATM   15  C   UNK N   1      36.739  14.278   9.470  0.00  0.00     0.040 C 
BRANCH  14  16
HETATM   16  C   UNK N   1      35.416  16.316   9.955  0.00  0.00     0.177 C 
HETATM   17  O   UNK N   1      35.499  17.407  10.497  0.00  0.00    -0.293 OA
BRANCH  16  18
HETATM   18  C   UNK N   1      34.577  16.181   8.718  0.00  0.00     0.302 C 
HETATM   19  F   UNK N   1      33.370  15.574   9.003  0.00  0.00    -0.247 F 
ENDBRANCH  16  18
ENDBRANCH  14  16
ENDBRANCH  12  14
BRANCH  11  20
HETATM   20  O   UNK N   1      34.238  12.869  12.754  0.00  0.00    -0.348 OA
HETATM   21  H   UNK N   1      33.494  12.660  13.285  0.00  0.00     0.219 HD
ENDBRANCH  11  20
ENDBRANCH   1  11
BRANCH   1  22
HETATM   22  N   UNK N   1      36.349  13.298  14.447  0.00  0.00    -0.338 N 
HETATM   23  C   UNK N   1      36.662  14.209  15.299  0.00  0.00     0.259 C 
ATOM     24  HN  UNK N   1      35.865  12.474  14.803  1.00  0.00     0.164 HD
BRANCH  23  25
HETATM   25  O   UNK N   1      37.304  15.336  14.911  0.00  0.00    -0.327 OA
HETATM   26  H   UNK N   1      37.550  15.518  14.025  0.00  0.00     0.221 HD
ENDBRANCH  23  25
BRANCH  23  27
HETATM   27  O   UNK N   1      36.328  14.015  16.588  0.00  0.00    -0.312 OA
BRANCH  27  28
HETATM   28  C   UNK N   1      35.090  13.617  17.025  0.00  0.00     0.218 C 
BRANCH  28  29
HETATM   29  C   UNK N   1      35.233  12.374  17.852  0.00  0.00    -0.034 A 
HETATM   30  C   UNK N   1      35.267  11.105  17.247  0.00  0.00     0.009 A 
HETATM   31  C   UNK N   1      35.393   9.953  18.024  0.00  0.00     0.001 A 
HETATM   32  C   UNK N   1      35.483  10.059  19.413  0.00  0.00     0.000 A 
HETATM   33  C   UNK N   1      35.448  11.317  20.023  0.00  0.00     0.001 A 
HETATM   34  C   UNK N   1      35.325  12.473  19.244  0.00  0.00     0.009 A 
ENDBRANCH  28  29
ENDBRANCH  27  28
ENDBRANCH  23  27
ENDBRANCH   1  22
TORSDOF 13
ENDMDL
MODEL 5
REMARK VINA RESULT:      -6.0     15.783     19.766
REMARK  13 active torsions:
REMARK  status: ('A' for Active; 'I' for Inactive)
REMARK    1  A    between atoms: C_15  and  C_11 
REMARK    2  A    between atoms: C_18  and  C_11 
REMARK    3  A    between atoms: C_19  and  C_12 
REMARK    4  A    between atoms: C_16  and  C_13 
REMARK    5  A    between atoms: O_31  and  C_13 
REMARK    6  A    between atoms: C_19  and  C_14 
REMARK    7  A    between atoms: N_23  and  C_14 
REMARK    8  A    between atoms: O_27  and  C_17 
REMARK    9  A    between atoms: C_20  and  C_18 
REMARK   10  A    between atoms: C_18  and  N_25 
REMARK   11  A    between atoms: C_20  and  O_29 
REMARK   12  A    between atoms: C_21  and  O_30 
REMARK   13  A    between atoms: O_31  and  C_21 
ROOT
HETATM    1  C   UNK N   1      25.612  25.256  -5.738  0.00  0.00     0.164 C 
ENDROOT
BRANCH   1   2
HETATM    2  C   UNK N   1      25.082  26.699  -5.637  0.00  0.00     0.072 C 
BRANCH   2   3
HETATM    3  C   UNK N   1      26.009  27.802  -5.173  0.00  0.00    -0.056 A 
HETATM    4  C   UNK N   1      27.001  28.362  -5.996  0.00  0.00     0.010 A 
HETATM    5  C   UNK N   1      27.771  29.441  -5.546  0.00  0.00     0.037 A 
HETATM    6  C   UNK N   1      27.555  29.966  -4.269  0.00  0.00     0.065 A 
HETATM    7  C   UNK N   1      26.581  29.406  -3.440  0.00  0.00     0.037 A 
HETATM    8  C   UNK N   1      25.810  28.330  -3.892  0.00  0.00     0.010 A 
BRANCH   6   9
HETATM    9  O   UNK N   1      28.281  31.012  -3.842  0.00  0.00    -0.361 OA
HETATM   10  H   UNK N   1      28.612  31.062  -2.966  0.00  0.00     0.217 HD
ENDBRANCH   6   9
ENDBRANCH   2   3
ENDBRANCH   1   2
BRANCH   1  11
HETATM   11  C   UNK N   1      25.800  24.965  -7.221  0.00  0.00     0.135 C 
HETATM   12  N   UNK N   1      26.058  23.801  -7.725  0.00  0.00    -0.362 N 
ATOM     13  HN  UNK N   1      26.192  23.781  -8.736  1.00  0.00     0.162 HD
BRANCH  12  14
HETATM   14  C   UNK N   1      26.185  22.523  -7.053  0.00  0.00     0.151 C 
HETATM   15  C   UNK N   1      25.078  21.610  -7.549  0.00  0.00     0.040 C 
BRANCH  14  16
HETATM   16  C   UNK N   1      27.530  21.928  -7.380  0.00  0.00     0.177 C 
HETATM   17  O   UNK N   1      27.606  20.998  -8.167  0.00  0.00    -0.293 OA
BRANCH  16  18
HETATM   18  C   UNK N   1      28.783  22.425  -6.719  0.00  0.00     0.302 C 
HETATM   19  F   UNK N   1      29.271  21.495  -5.823  0.00  0.00    -0.247 F 
ENDBRANCH  16  18
ENDBRANCH  14  16
ENDBRANCH  12  14
BRANCH  11  20
HETATM   20  O   UNK N   1      25.710  26.011  -8.067  0.00  0.00    -0.348 OA
HETATM   21  H   UNK N   1      25.898  26.839  -8.465  0.00  0.00     0.219 HD
ENDBRANCH  11  20
ENDBRANCH   1  11
BRANCH   1  22
HETATM   22  N   UNK N   1      26.905  25.181  -5.093  0.00  0.00    -0.338 N 
HETATM   23  C   UNK N   1      27.151  24.584  -3.981  0.00  0.00     0.259 C 
ATOM     24  HN  UNK N   1      27.688  25.640  -5.559  1.00  0.00     0.164 HD
BRANCH  23  25
HETATM   25  O   UNK N   1      26.170  23.949  -3.298  0.00  0.00    -0.327 OA
HETATM   26  H   UNK N   1      26.322  23.236  -2.709  0.00  0.00     0.221 HD
ENDBRANCH  23  25
BRANCH  23  27
HETATM   27  O   UNK N   1      28.414  24.605  -3.515  0.00  0.00    -0.312 OA
BRANCH  27  28
HETATM   28  C   UNK N   1      28.964  23.646  -2.702  0.00  0.00     0.218 C 
BRANCH  28  29
HETATM   29  C   UNK N   1      30.294  23.231  -3.257  0.00  0.00    -0.034 A 
HETATM   30  C   UNK N   1      30.874  22.003  -2.896  0.00  0.00     0.009 A 
HETATM   31  C   UNK N   1      32.116  21.628  -3.410  0.00  0.00     0.001 A 
HETATM   32  C   UNK N   1      32.790  22.480  -4.287  0.00  0.00     0.000 A 
HETATM   33  C   UNK N   1      32.220  23.704  -4.650  0.00  0.00     0.001 A 
HETATM   34  C   UNK N   1      30.974  24.080  -4.137  0.00  0.00     0.009 A 
ENDBRANCH  28  29
ENDBRANCH  27  28
ENDBRANCH  23  27
ENDBRANCH   1  22
TORSDOF 13
ENDMDL
MODEL 6
REMARK VINA RESULT:      -5.9     15.338     18.772
REMARK  13 active torsions:
REMARK  status: ('A' for Active; 'I' for Inactive)
REMARK    1  A    between atoms: C_15  and  C_11 
REMARK    2  A    between atoms: C_18  and  C_11 
REMARK    3  A    between atoms: C_19  and  C_12 
REMARK    4  A    between atoms: C_16  and  C_13 
REMARK    5  A    between atoms: O_31  and  C_13 
REMARK    6  A    between atoms: C_19  and  C_14 
REMARK    7  A    between atoms: N_23  and  C_14 
REMARK    8  A    between atoms: O_27  and  C_17 
REMARK    9  A    between atoms: C_20  and  C_18 
REMARK   10  A    between atoms: C_18  and  N_25 
REMARK   11  A    between atoms: C_20  and  O_29 
REMARK   12  A    between atoms: C_21  and  O_30 
REMARK   13  A    between atoms: O_31  and  C_21 
ROOT
HETATM    1  C   UNK N   1      28.942  26.212  -4.119  0.00  0.00     0.164 C 
ENDROOT
BRANCH   1   2
HETATM    2  C   UNK N   1      30.448  25.965  -3.911  0.00  0.00     0.072 C 
BRANCH   2   3
HETATM    3  C   UNK N   1      30.942  24.558  -3.651  0.00  0.00    -0.056 A 
HETATM    4  C   UNK N   1      30.366  23.712  -2.688  0.00  0.00     0.010 A 
HETATM    5  C   UNK N   1      30.804  22.390  -2.552  0.00  0.00     0.037 A 
HETATM    6  C   UNK N   1      31.822  21.904  -3.376  0.00  0.00     0.065 A 
HETATM    7  C   UNK N   1      32.409  22.743  -4.326  0.00  0.00     0.037 A 
HETATM    8  C   UNK N   1      31.968  24.063  -4.464  0.00  0.00     0.010 A 
BRANCH   6   9
HETATM    9  O   UNK N   1      32.232  20.631  -3.258  0.00  0.00    -0.361 OA
HETATM   10  H   UNK N   1      33.137  20.408  -3.162  0.00  0.00     0.217 HD
ENDBRANCH   6   9
ENDBRANCH   2   3
ENDBRANCH   1   2
BRANCH   1  11
HETATM   11  C   UNK N   1      28.819  27.528  -4.876  0.00  0.00     0.135 C 
HETATM   12  N   UNK N   1      28.127  28.551  -4.486  0.00  0.00    -0.362 N 
ATOM     13  HN  UNK N   1      28.117  29.344  -5.127  1.00  0.00     0.162 HD
BRANCH  12  14
HETATM   14  C   UNK N   1      27.364  28.725  -3.266  0.00  0.00     0.151 C 
HETATM   15  C   UNK N   1      26.991  30.191  -3.141  0.00  0.00     0.040 C 
BRANCH  14  16
HETATM   16  C   UNK N   1      26.119  27.880  -3.341  0.00  0.00     0.177 C 
HETATM   17  O   UNK N   1      25.857  27.107  -2.434  0.00  0.00    -0.293 OA
BRANCH  16  18
HETATM   18  C   UNK N   1      25.212  27.932  -4.535  0.00  0.00     0.302 C 
HETATM   19  F   UNK N   1      25.522  26.931  -5.436  0.00  0.00    -0.247 F 
ENDBRANCH  16  18
ENDBRANCH  14  16
ENDBRANCH  12  14
BRANCH  11  20
HETATM   20  O   UNK N   1      29.465  27.619  -6.056  0.00  0.00    -0.348 OA
HETATM   21  H   UNK N   1      29.953  27.361  -6.815  0.00  0.00     0.219 HD
ENDBRANCH  11  20
ENDBRANCH   1  11
BRANCH   1  22
HETATM   22  N   UNK N   1      28.399  25.158  -4.948  0.00  0.00    -0.338 N 
HETATM   23  C   UNK N   1      27.399  24.409  -4.644  0.00  0.00     0.259 C 
ATOM     24  HN  UNK N   1      28.847  24.995  -5.850  1.00  0.00     0.164 HD
BRANCH  23  25
HETATM   25  O   UNK N   1      26.747  24.560  -3.468  0.00  0.00    -0.327 OA
HETATM   26  H   UNK N   1      27.115  24.340  -2.634  0.00  0.00     0.221 HD
ENDBRANCH  23  25
BRANCH  23  27
HETATM   27  O   UNK N   1      27.015  23.471  -5.530  0.00  0.00    -0.312 OA
BRANCH  27  28
HETATM   28  C   UNK N   1      27.458  23.392  -6.826  0.00  0.00     0.218 C 
BRANCH  28  29
HETATM   29  C   UNK N   1      28.229  22.118  -7.008  0.00  0.00    -0.034 A 
HETATM   30  C   UNK N   1      27.834  21.167  -7.966  0.00  0.00     0.009 A 
HETATM   31  C   UNK N   1      28.552  19.981  -8.123  0.00  0.00     0.001 A 
HETATM   32  C   UNK N   1      29.668  19.733  -7.323  0.00  0.00     0.000 A 
HETATM   33  C   UNK N   1      30.066  20.674  -6.367  0.00  0.00     0.001 A 
HETATM   34  C   UNK N   1      29.349  21.865  -6.210  0.00  0.00     0.009 A 
ENDBRANCH  28  29
ENDBRANCH  27  28
ENDBRANCH  23  27
ENDBRANCH   1  22
TORSDOF 13
ENDMDL
MODEL 7
REMARK VINA RESULT:      -5.9     13.163     16.155
REMARK  13 active torsions:
REMARK  status: ('A' for Active; 'I' for Inactive)
REMARK    1  A    between atoms: C_15  and  C_11 
REMARK    2  A    between atoms: C_18  and  C_11 
REMARK    3  A    between atoms: C_19  and  C_12 
REMARK    4  A    between atoms: C_16  and  C_13 
REMARK    5  A    between atoms: O_31  and  C_13 
REMARK    6  A    between atoms: C_19  and  C_14 
REMARK    7  A    between atoms: N_23  and  C_14 
REMARK    8  A    between atoms: O_27  and  C_17 
REMARK    9  A    between atoms: C_20  and  C_18 
REMARK   10  A    between atoms: C_18  and  N_25 
REMARK   11  A    between atoms: C_20  and  O_29 
REMARK   12  A    between atoms: C_21  and  O_30 
REMARK   13  A    between atoms: O_31  and  C_21 
ROOT
HETATM    1  C   UNK N   1      21.048  16.245   4.730  0.00  0.00     0.164 C 
ENDROOT
BRANCH   1   2
HETATM    2  C   UNK N   1      21.569  17.673   4.975  0.00  0.00     0.072 C 
BRANCH   2   3
HETATM    3  C   UNK N   1      21.369  18.731   3.911  0.00  0.00    -0.056 A 
HETATM    4  C   UNK N   1      22.412  19.547   3.440  0.00  0.00     0.010 A 
HETATM    5  C   UNK N   1      22.190  20.447   2.392  0.00  0.00     0.037 A 
HETATM    6  C   UNK N   1      20.923  20.540   1.807  0.00  0.00     0.065 A 
HETATM    7  C   UNK N   1      19.879  19.742   2.280  0.00  0.00     0.037 A 
HETATM    8  C   UNK N   1      20.102  18.841   3.325  0.00  0.00     0.010 A 
BRANCH   6   9
HETATM    9  O   UNK N   1      20.713  21.391   0.791  0.00  0.00    -0.361 OA
HETATM   10  H   UNK N   1      21.294  22.105   0.613  0.00  0.00     0.217 HD
ENDBRANCH   6   9
ENDBRANCH   2   3
ENDBRANCH   1   2
BRANCH   1  11
HETATM   11  C   UNK N   1      21.857  15.682   3.569  0.00  0.00     0.135 C 
HETATM   12  N   UNK N   1      21.371  15.338   2.419  0.00  0.00    -0.362 N 
ATOM     13  HN  UNK N   1      22.041  14.942   1.759  1.00  0.00     0.162 HD
BRANCH  12  14
HETATM   14  C   UNK N   1      20.007  15.437   1.938  0.00  0.00     0.151 C 
HETATM   15  C   UNK N   1      20.033  16.037   0.544  0.00  0.00     0.040 C 
BRANCH  14  16
HETATM   16  C   UNK N   1      19.400  14.058   1.896  0.00  0.00     0.177 C 
HETATM   17  O   UNK N   1      18.713  13.671   2.827  0.00  0.00    -0.293 OA
BRANCH  16  18
HETATM   18  C   UNK N   1      19.662  13.126   0.749  0.00  0.00     0.302 C 
HETATM   19  F   UNK N   1      18.576  13.073  -0.102  0.00  0.00    -0.247 F 
ENDBRANCH  16  18
ENDBRANCH  14  16
ENDBRANCH  12  14
BRANCH  11  20
HETATM   20  O   UNK N   1      23.179  15.509   3.769  0.00  0.00    -0.348 OA
HETATM   21  H   UNK N   1      24.048  15.661   4.087  0.00  0.00     0.219 HD
ENDBRANCH  11  20
ENDBRANCH   1  11
BRANCH   1  22
HETATM   22  N   UNK N   1      21.311  15.437   5.901  0.00  0.00    -0.338 N 
HETATM   23  C   UNK N   1      20.560  14.489   6.337  0.00  0.00     0.259 C 
ATOM     24  HN  UNK N   1      22.163  15.636   6.424  1.00  0.00     0.164 HD
BRANCH  23  25
HETATM   25  O   UNK N   1      19.412  14.159   5.701  0.00  0.00    -0.327 OA
HETATM   26  H   UNK N   1      19.369  13.566   4.976  0.00  0.00     0.221 HD
ENDBRANCH  23  25
BRANCH  23  27
HETATM   27  O   UNK N   1      20.949  13.830   7.444  0.00  0.00    -0.312 OA
BRANCH  27  28
HETATM   28  C   UNK N   1      20.593  14.171   8.725  0.00  0.00     0.218 C 
BRANCH  28  29
HETATM   29  C   UNK N   1      21.416  13.377   9.695  0.00  0.00    -0.034 A 
HETATM   30  C   UNK N   1      20.816  12.733  10.791  0.00  0.00     0.009 A 
HETATM   31  C   UNK N   1      21.590  12.003  11.694  0.00  0.00     0.001 A 
HETATM   32  C   UNK N   1      22.971  11.913  11.511  0.00  0.00     0.000 A 
HETATM   33  C   UNK N   1      23.576  12.552  10.423  0.00  0.00     0.001 A 
HETATM   34  C   UNK N   1      22.800  13.282   9.517  0.00  0.00     0.009 A 
ENDBRANCH  28  29
ENDBRANCH  27  28
ENDBRANCH  23  27
ENDBRANCH   1  22
TORSDOF 13
ENDMDL
MODEL 8
REMARK VINA RESULT:      -5.9      2.779      6.872
REMARK  13 active torsions:
REMARK  status: ('A' for Active; 'I' for Inactive)
REMARK    1  A    between atoms: C_15  and  C_11 
REMARK    2  A    between atoms: C_18  and  C_11 
REMARK    3  A    between atoms: C_19  and  C_12 
REMARK    4  A    between atoms: C_16  and  C_13 
REMARK    5  A    between atoms: O_31  and  C_13 
REMARK    6  A    between atoms: C_19  and  C_14 
REMARK    7  A    between atoms: N_23  and  C_14 
REMARK    8  A    between atoms: O_27  and  C_17 
REMARK    9  A    between atoms: C_20  and  C_18 
REMARK   10  A    between atoms: C_18  and  N_25 
REMARK   11  A    between atoms: C_20  and  O_29 
REMARK   12  A    between atoms: C_21  and  O_30 
REMARK   13  A    between atoms: O_31  and  C_21 
ROOT
HETATM    1  C   UNK N   1      35.176  14.646  10.742  0.00  0.00     0.164 C 
ENDROOT
BRANCH   1   2
HETATM    2  C   UNK N   1      34.402  15.941  10.432  0.00  0.00     0.072 C 
BRANCH   2   3
HETATM    3  C   UNK N   1      34.112  16.308   8.992  0.00  0.00    -0.056 A 
HETATM    4  C   UNK N   1      33.635  17.573   8.607  0.00  0.00     0.010 A 
HETATM    5  C   UNK N   1      33.469  17.887   7.254  0.00  0.00     0.037 A 
HETATM    6  C   UNK N   1      33.777  16.939   6.275  0.00  0.00     0.065 A 
HETATM    7  C   UNK N   1      34.238  15.675   6.649  0.00  0.00     0.037 A 
HETATM    8  C   UNK N   1      34.407  15.363   8.002  0.00  0.00     0.010 A 
BRANCH   6   9
HETATM    9  O   UNK N   1      33.634  17.244   4.975  0.00  0.00    -0.361 OA
HETATM   10  H   UNK N   1      32.792  17.294   4.566  0.00  0.00     0.217 HD
ENDBRANCH   6   9
ENDBRANCH   2   3
ENDBRANCH   1   2
BRANCH   1  11
HETATM   11  C   UNK N   1      36.634  14.918  10.396  0.00  0.00     0.135 C 
HETATM   12  N   UNK N   1      37.405  14.117   9.732  0.00  0.00    -0.362 N 
ATOM     13  HN  UNK N   1      38.368  14.431   9.616  1.00  0.00     0.162 HD
BRANCH  12  14
HETATM   14  C   UNK N   1      37.090  12.835   9.132  0.00  0.00     0.151 C 
HETATM   15  C   UNK N   1      37.374  12.921   7.644  0.00  0.00     0.040 C 
BRANCH  14  16
HETATM   16  C   UNK N   1      37.953  11.773   9.763  0.00  0.00     0.177 C 
HETATM   17  O   UNK N   1      37.633  11.295  10.840  0.00  0.00    -0.293 OA
BRANCH  16  18
HETATM   18  C   UNK N   1      39.229  11.320   9.116  0.00  0.00     0.302 C 
HETATM   19  F   UNK N   1      40.242  12.234   9.329  0.00  0.00    -0.247 F 
ENDBRANCH  16  18
ENDBRANCH  14  16
ENDBRANCH  12  14
BRANCH  11  20
HETATM   20  O   UNK N   1      37.163  16.077  10.837  0.00  0.00    -0.348 OA
HETATM   21  H   UNK N   1      37.333  16.997  10.907  0.00  0.00     0.219 HD
ENDBRANCH  11  20
ENDBRANCH   1  11
BRANCH   1  22
HETATM   22  N   UNK N   1      35.089  14.370  12.159  0.00  0.00    -0.338 N 
HETATM   23  C   UNK N   1      35.027  13.200  12.690  0.00  0.00     0.259 C 
ATOM     24  HN  UNK N   1      35.076  15.170  12.791  1.00  0.00     0.164 HD
BRANCH  23  25
HETATM   25  O   UNK N   1      35.041  12.085  11.923  0.00  0.00    -0.327 OA
HETATM   26  H   UNK N   1      35.341  11.249  12.224  0.00  0.00     0.221 HD
ENDBRANCH  23  25
BRANCH  23  27
HETATM   27  O   UNK N   1      34.952  13.114  14.031  0.00  0.00    -0.312 OA
BRANCH  27  28
HETATM   28  C   UNK N   1      35.938  13.515  14.897  0.00  0.00     0.218 C 
BRANCH  28  29
HETATM   29  C   UNK N   1      35.720  12.862  16.230  0.00  0.00    -0.034 A 
HETATM   30  C   UNK N   1      35.324  13.618  17.347  0.00  0.00     0.009 A 
HETATM   31  C   UNK N   1      35.131  13.004  18.585  0.00  0.00     0.001 A 
HETATM   32  C   UNK N   1      35.336  11.630  18.718  0.00  0.00     0.000 A 
HETATM   33  C   UNK N   1      35.731  10.871  17.612  0.00  0.00     0.001 A 
HETATM   34  C   UNK N   1      35.922  11.485  16.369  0.00  0.00     0.009 A 
ENDBRANCH  28  29
ENDBRANCH  27  28
ENDBRANCH  23  27
ENDBRANCH   1  22
TORSDOF 13
ENDMDL
MODEL 9
REMARK VINA RESULT:      -5.9      3.768      6.921
REMARK  13 active torsions:
REMARK  status: ('A' for Active; 'I' for Inactive)
REMARK    1  A    between atoms: C_15  and  C_11 
REMARK    2  A    between atoms: C_18  and  C_11 
REMARK    3  A    between atoms: C_19  and  C_12 
REMARK    4  A    between atoms: C_16  and  C_13 
REMARK    5  A    between atoms: O_31  and  C_13 
REMARK    6  A    between atoms: C_19  and  C_14 
REMARK    7  A    between atoms: N_23  and  C_14 
REMARK    8  A    between atoms: O_27  and  C_17 
REMARK    9  A    between atoms: C_20  and  C_18 
REMARK   10  A    between atoms: C_18  and  N_25 
REMARK   11  A    between atoms: C_20  and  O_29 
REMARK   12  A    between atoms: C_21  and  O_30 
REMARK   13  A    between atoms: O_31  and  C_21 
ROOT
HETATM    1  C   UNK N   1      32.868  17.250   8.537  0.00  0.00     0.164 C 
ENDROOT
BRANCH   1   2
HETATM    2  C   UNK N   1      33.444  15.828   8.668  0.00  0.00     0.072 C 
BRANCH   2   3
HETATM    3  C   UNK N   1      34.244  15.460   9.900  0.00  0.00    -0.056 A 
HETATM    4  C   UNK N   1      34.198  14.184  10.486  0.00  0.00     0.010 A 
HETATM    5  C   UNK N   1      35.025  13.871  11.571  0.00  0.00     0.037 A 
HETATM    6  C   UNK N   1      35.904  14.832  12.078  0.00  0.00     0.065 A 
HETATM    7  C   UNK N   1      35.945  16.107  11.510  0.00  0.00     0.037 A 
HETATM    8  C   UNK N   1      35.120  16.418  10.424  0.00  0.00     0.010 A 
BRANCH   6   9
HETATM    9  O   UNK N   1      36.710  14.529  13.107  0.00  0.00    -0.361 OA
HETATM   10  H   UNK N   1      36.851  13.644  13.384  0.00  0.00     0.217 HD
ENDBRANCH   6   9
ENDBRANCH   2   3
ENDBRANCH   1   2
BRANCH   1  11
HETATM   11  C   UNK N   1      33.752  17.986   7.539  0.00  0.00     0.135 C 
HETATM   12  N   UNK N   1      33.781  17.765   6.264  0.00  0.00    -0.362 N 
ATOM     13  HN  UNK N   1      34.457  18.319   5.738  1.00  0.00     0.162 HD
BRANCH  12  14
HETATM   14  C   UNK N   1      32.987  16.840   5.479  0.00  0.00     0.151 C 
HETATM   15  C   UNK N   1      32.312  17.616   4.364  0.00  0.00     0.040 C 
BRANCH  14  16
HETATM   16  C   UNK N   1      33.894  15.785   4.900  0.00  0.00     0.177 C 
HETATM   17  O   UNK N   1      35.018  15.639   5.353  0.00  0.00    -0.293 OA
BRANCH  16  18
HETATM   18  C   UNK N   1      33.461  14.936   3.741  0.00  0.00     0.302 C 
HETATM   19  F   UNK N   1      34.251  15.173   2.633  0.00  0.00    -0.247 F 
ENDBRANCH  16  18
ENDBRANCH  14  16
ENDBRANCH  12  14
BRANCH  11  20
HETATM   20  O   UNK N   1      34.584  18.926   8.033  0.00  0.00    -0.348 OA
HETATM   21  H   UNK N   1      35.382  19.377   8.232  0.00  0.00     0.219 HD
ENDBRANCH  11  20
ENDBRANCH   1  11
BRANCH   1  22
HETATM   22  N   UNK N   1      31.532  17.171   7.988  0.00  0.00    -0.338 N 
HETATM   23  C   UNK N   1      30.463  17.604   8.558  0.00  0.00     0.259 C 
ATOM     24  HN  UNK N   1      31.428  16.735   7.071  1.00  0.00     0.164 HD
BRANCH  23  25
HETATM   25  O   UNK N   1      30.512  18.197   9.773  0.00  0.00    -0.327 OA
HETATM   26  H   UNK N   1      30.670  17.735  10.573  0.00  0.00     0.221 HD
ENDBRANCH  23  25
BRANCH  23  27
HETATM   27  O   UNK N   1      29.293  17.454   7.910  0.00  0.00    -0.312 OA
BRANCH  27  28
HETATM   28  C   UNK N   1      29.154  17.409   6.545  0.00  0.00     0.218 C 
BRANCH  28  29
HETATM   29  C   UNK N   1      28.398  18.620   6.085  0.00  0.00    -0.034 A 
HETATM   30  C   UNK N   1      28.216  18.879   4.715  0.00  0.00     0.009 A 
HETATM   31  C   UNK N   1      27.519  20.013   4.296  0.00  0.00     0.001 A 
HETATM   32  C   UNK N   1      27.000  20.899   5.242  0.00  0.00     0.000 A 
HETATM   33  C   UNK N   1      27.178  20.649   6.606  0.00  0.00     0.001 A 
HETATM   34  C   UNK N   1      27.875  19.511   7.028  0.00  0.00     0.009 A 
ENDBRANCH  28  29
ENDBRANCH  27  28
ENDBRANCH  23  27
ENDBRANCH   1  22
TORSDOF 13
ENDMDL
