MODEL 1
REMARK VINA RESULT:      -6.6      0.000      0.000
REMARK  5 active torsions:
REMARK  status: ('A' for Active; 'I' for Inactive)
REMARK    1  A    between atoms: C_13  and  C_11 
REMARK    2  A    between atoms: S_21  and  C_11 
REMARK    3  A    between atoms: C_14  and  C_12 
REMARK    4  A    between atoms: O_18  and  N_17 
REMARK    5  A    between atoms: S_22  and  S_21 
ROOT
HETATM    1  C   UNK N   1      29.051  16.680  10.375  0.00  0.00     0.039 C 
HETATM    2  C   UNK N   1      29.816  18.954   9.721  0.00  0.00     0.039 C 
HETATM    3  C   UNK N   1      28.113  18.778   6.183  0.00  0.00     0.040 C 
HETATM    4  C   UNK N   1      27.199  16.493   6.570  0.00  0.00     0.040 C 
HETATM    5  C   UNK N   1      30.175  17.036   8.200  0.00  0.00    -0.036 C 
HETATM    6  C   UNK N   1      29.608  16.973   6.993  0.00  0.00    -0.018 C 
HETATM    7  C   UNK N   1      29.250  17.631   9.208  0.00  0.00     0.057 C 
HETATM    8  C   UNK N   1      28.211  17.520   7.048  0.00  0.00     0.060 C 
HETATM    9  N   UNK N   1      27.966  17.781   8.486  0.00  0.00    -0.173 NA
ENDROOT
BRANCH   5  10
HETATM   10  C   UNK N   1      31.572  16.590   8.537  0.00  0.00     0.127 C 
BRANCH  10  11
HETATM   11  S   UNK N   1      32.777  17.896   8.165  0.00  0.00    -0.033 SA
BRANCH  11  12
HETATM   12  S   UNK N   1      34.379  16.865   9.117  0.00  0.00     0.195 S 
HETATM   13  C   UNK N   1      35.198  15.260   8.904  0.00  0.00     0.174 C 
HETATM   14  O   UNK N   1      34.988  17.056   7.721  0.00  0.00    -0.217 OA
HETATM   15  O   UNK N   1      35.389  17.890   9.655  0.00  0.00    -0.217 OA
ENDBRANCH  11  12
ENDBRANCH  10  11
ENDBRANCH   5  10
BRANCH   6  16
HETATM   16  C   UNK N   1      30.252  16.471   5.731  0.00  0.00    -0.028 A 
HETATM   17  C   UNK N   1      30.923  17.369   4.884  0.00  0.00     0.012 A 
HETATM   18  C   UNK N   1      31.536  16.925   3.709  0.00  0.00     0.001 A 
HETATM   19  C   UNK N   1      31.491  15.572   3.367  0.00  0.00     0.000 A 
HETATM   20  C   UNK N   1      30.829  14.666   4.197  0.00  0.00     0.001 A 
HETATM   21  C   UNK N   1      30.214  15.114   5.370  0.00  0.00     0.012 A 
ENDBRANCH   6  16
BRANCH   9  22
HETATM   22  O   UNK N   1      27.368  18.981   8.712  0.00  0.00    -0.311 OA
HETATM   23  H   UNK N   1      26.520  19.368   8.444  0.00  0.00     0.237 HD
ENDBRANCH   9  22
TORSDOF 5
ENDMDL
MODEL 2
REMARK VINA RESULT:      -6.2     13.730     15.853
REMARK  5 active torsions:
REMARK  status: ('A' for Active; 'I' for Inactive)
REMARK    1  A    between atoms: C_13  and  C_11 
REMARK    2  A    between atoms: S_21  and  C_11 
REMARK    3  A    between atoms: C_14  and  C_12 
REMARK    4  A    between atoms: O_18  and  N_17 
REMARK    5  A    between atoms: S_22  and  S_21 
ROOT
HETATM    1  C   UNK N   1      24.810  26.967  -5.612  0.00  0.00     0.039 C 
HETATM    2  C   UNK N   1      26.881  27.876  -6.644  0.00  0.00     0.039 C 
HETATM    3  C   UNK N   1      28.486  24.323  -7.142  0.00  0.00     0.040 C 
HETATM    4  C   UNK N   1      26.528  23.135  -6.162  0.00  0.00     0.040 C 
HETATM    5  C   UNK N   1      27.028  26.245  -4.790  0.00  0.00    -0.036 C 
HETATM    6  C   UNK N   1      27.581  25.040  -4.948  0.00  0.00    -0.018 C 
HETATM    7  C   UNK N   1      26.244  26.649  -5.993  0.00  0.00     0.057 C 
HETATM    8  C   UNK N   1      27.223  24.480  -6.294  0.00  0.00     0.060 C 
HETATM    9  N   UNK N   1      26.257  25.449  -6.860  0.00  0.00    -0.173 NA
ENDROOT
BRANCH   5  10
HETATM   10  C   UNK N   1      27.170  27.122  -3.575  0.00  0.00     0.127 C 
BRANCH  10  11
HETATM   11  S   UNK N   1      28.704  28.090  -3.648  0.00  0.00    -0.033 SA
BRANCH  11  12
HETATM   12  S   UNK N   1      27.818  29.802  -2.743  0.00  0.00     0.195 S 
HETATM   13  C   UNK N   1      26.598  31.049  -3.243  0.00  0.00     0.174 C 
HETATM   14  O   UNK N   1      26.575  28.916  -2.892  0.00  0.00    -0.217 OA
HETATM   15  O   UNK N   1      27.743  29.587  -1.224  0.00  0.00    -0.217 OA
ENDBRANCH  11  12
ENDBRANCH  10  11
ENDBRANCH   5  10
BRANCH   6  16
HETATM   16  C   UNK N   1      28.468  24.330  -3.964  0.00  0.00    -0.028 A 
HETATM   17  C   UNK N   1      29.865  24.397  -4.108  0.00  0.00     0.012 A 
HETATM   18  C   UNK N   1      30.711  23.752  -3.201  0.00  0.00     0.001 A 
HETATM   19  C   UNK N   1      30.170  23.034  -2.133  0.00  0.00     0.000 A 
HETATM   20  C   UNK N   1      28.786  22.958  -1.975  0.00  0.00     0.001 A 
HETATM   21  C   UNK N   1      27.942  23.601  -2.885  0.00  0.00     0.012 A 
ENDBRANCH   6  16
BRANCH   9  22
HETATM   22  O   UNK N   1      26.503  25.742  -8.165  0.00  0.00    -0.311 OA
HETATM   23  H   UNK N   1      26.855  25.231  -8.911  0.00  0.00     0.237 HD
ENDBRANCH   9  22
TORSDOF 5
ENDMDL
MODEL 3
REMARK VINA RESULT:      -6.2      2.494      4.242
REMARK  5 active torsions:
REMARK  status: ('A' for Active; 'I' for Inactive)
REMARK    1  A    between atoms: C_13  and  C_11 
REMARK    2  A    between atoms: S_21  and  C_11 
REMARK    3  A    between atoms: C_14  and  C_12 
REMARK    4  A    between atoms: O_18  and  N_17 
REMARK    5  A    between atoms: S_22  and  S_21 
ROOT
HETATM    1  C   UNK N   1      28.171  18.495   5.771  0.00  0.00     0.039 C 
HETATM    2  C   UNK N   1      27.551  16.283   6.725  0.00  0.00     0.039 C 
HETATM    3  C   UNK N   1      29.501  16.909  10.080  0.00  0.00     0.040 C 
HETATM    4  C   UNK N   1      30.257  19.181   9.393  0.00  0.00     0.040 C 
HETATM    5  C   UNK N   1      29.911  17.027   6.738  0.00  0.00    -0.036 C 
HETATM    6  C   UNK N   1      30.583  17.232   7.873  0.00  0.00    -0.018 C 
HETATM    7  C   UNK N   1      28.494  17.479   6.852  0.00  0.00     0.057 C 
HETATM    8  C   UNK N   1      29.686  17.863   8.899  0.00  0.00     0.060 C 
HETATM    9  N   UNK N   1      28.426  18.145   8.173  0.00  0.00    -0.173 NA
ENDROOT
BRANCH   5  10
HETATM   10  C   UNK N   1      30.472  16.405   5.487  0.00  0.00     0.127 C 
BRANCH  10  11
HETATM   11  S   UNK N   1      31.332  17.643   4.477  0.00  0.00    -0.033 SA
BRANCH  11  12
HETATM   12  S   UNK N   1      33.013  16.381   4.133  0.00  0.00     0.195 S 
HETATM   13  C   UNK N   1      33.973  15.200   5.122  0.00  0.00     0.174 C 
HETATM   14  O   UNK N   1      31.940  15.316   4.397  0.00  0.00    -0.217 OA
HETATM   15  O   UNK N   1      33.026  15.948   2.660  0.00  0.00    -0.217 OA
ENDBRANCH  11  12
ENDBRANCH  10  11
ENDBRANCH   5  10
BRANCH   6  16
HETATM   16  C   UNK N   1      32.016  16.866   8.139  0.00  0.00    -0.028 A 
HETATM   17  C   UNK N   1      33.032  17.811   7.920  0.00  0.00     0.012 A 
HETATM   18  C   UNK N   1      34.371  17.497   8.168  0.00  0.00     0.001 A 
HETATM   19  C   UNK N   1      34.713  16.230   8.645  0.00  0.00     0.000 A 
HETATM   20  C   UNK N   1      33.717  15.279   8.869  0.00  0.00     0.001 A 
HETATM   21  C   UNK N   1      32.379  15.595   8.618  0.00  0.00     0.012 A 
ENDBRANCH   6  16
BRANCH   9  22
HETATM   22  O   UNK N   1      27.318  17.800   8.882  0.00  0.00    -0.311 OA
HETATM   23  H   UNK N   1      26.366  17.854   8.705  0.00  0.00     0.237 HD
ENDBRANCH   9  22
TORSDOF 5
ENDMDL
MODEL 4
REMARK VINA RESULT:      -6.1     14.050     16.265
REMARK  5 active torsions:
REMARK  status: ('A' for Active; 'I' for Inactive)
REMARK    1  A    between atoms: C_13  and  C_11 
REMARK    2  A    between atoms: S_21  and  C_11 
REMARK    3  A    between atoms: C_14  and  C_12 
REMARK    4  A    between atoms: O_18  and  N_17 
REMARK    5  A    between atoms: S_22  and  S_21 
ROOT
HETATM    1  C   UNK N   1      27.241  27.206  -7.665  0.00  0.00     0.039 C 
HETATM    2  C   UNK N   1      25.175  26.607  -6.418  0.00  0.00     0.039 C 
HETATM    3  C   UNK N   1      26.807  27.274  -2.905  0.00  0.00     0.040 C 
HETATM    4  C   UNK N   1      28.998  27.945  -3.882  0.00  0.00     0.040 C 
HETATM    5  C   UNK N   1      27.346  25.606  -5.782  0.00  0.00    -0.036 C 
HETATM    6  C   UNK N   1      27.903  25.820  -4.587  0.00  0.00    -0.018 C 
HETATM    7  C   UNK N   1      26.682  26.835  -6.304  0.00  0.00     0.057 C 
HETATM    8  C   UNK N   1      27.680  27.242  -4.160  0.00  0.00     0.060 C 
HETATM    9  N   UNK N   1      27.045  27.890  -5.331  0.00  0.00    -0.173 NA
ENDROOT
BRANCH   5  10
HETATM   10  C   UNK N   1      27.353  24.300  -6.531  0.00  0.00     0.127 C 
BRANCH  10  11
HETATM   11  S   UNK N   1      25.951  23.260  -6.033  0.00  0.00    -0.033 SA
BRANCH  11  12
HETATM   12  S   UNK N   1      25.593  22.571  -8.016  0.00  0.00     0.195 S 
HETATM   13  C   UNK N   1      25.631  20.964  -8.858  0.00  0.00     0.174 C 
HETATM   14  O   UNK N   1      24.449  21.857  -7.285  0.00  0.00    -0.217 OA
HETATM   15  O   UNK N   1      24.549  23.478  -8.685  0.00  0.00    -0.217 OA
ENDBRANCH  11  12
ENDBRANCH  10  11
ENDBRANCH   5  10
BRANCH   6  16
HETATM   16  C   UNK N   1      28.621  24.804  -3.744  0.00  0.00    -0.028 A 
HETATM   17  C   UNK N   1      27.892  23.976  -2.874  0.00  0.00     0.012 A 
HETATM   18  C   UNK N   1      28.536  23.019  -2.086  0.00  0.00     0.001 A 
HETATM   19  C   UNK N   1      29.923  22.873  -2.160  0.00  0.00     0.000 A 
HETATM   20  C   UNK N   1      30.663  23.686  -3.019  0.00  0.00     0.001 A 
HETATM   21  C   UNK N   1      30.016  24.645  -3.804  0.00  0.00     0.012 A 
ENDBRANCH   6  16
BRANCH   9  22
HETATM   22  O   UNK N   1      25.992  28.681  -4.991  0.00  0.00    -0.311 OA
HETATM   23  H   UNK N   1      25.074  28.743  -5.298  0.00  0.00     0.237 HD
ENDBRANCH   9  22
TORSDOF 5
ENDMDL
MODEL 5
REMARK VINA RESULT:      -6.0      1.747      2.177
REMARK  5 active torsions:
REMARK  status: ('A' for Active; 'I' for Inactive)
REMARK    1  A    between atoms: C_13  and  C_11 
REMARK    2  A    between atoms: S_21  and  C_11 
REMARK    3  A    between atoms: C_14  and  C_12 
REMARK    4  A    between atoms: O_18  and  N_17 
REMARK    5  A    between atoms: S_22  and  S_21 
ROOT
HETATM    1  C   UNK N   1      27.956  17.142   8.829  0.00  0.00     0.039 C 
HETATM    2  C   UNK N   1      28.063  19.332   7.656  0.00  0.00     0.039 C 
HETATM    3  C   UNK N   1      28.169  17.693   4.085  0.00  0.00     0.040 C 
HETATM    4  C   UNK N   1      28.052  15.372   4.982  0.00  0.00     0.040 C 
HETATM    5  C   UNK N   1      29.675  17.541   7.096  0.00  0.00    -0.036 C 
HETATM    6  C   UNK N   1      29.724  16.986   5.882  0.00  0.00    -0.018 C 
HETATM    7  C   UNK N   1      28.271  17.825   7.510  0.00  0.00     0.057 C 
HETATM    8  C   UNK N   1      28.337  16.822   5.331  0.00  0.00     0.060 C 
HETATM    9  N   UNK N   1      27.442  17.218   6.444  0.00  0.00    -0.173 NA
ENDROOT
BRANCH   5  10
HETATM   10  C   UNK N   1      30.864  17.870   7.958  0.00  0.00     0.127 C 
BRANCH  10  11
HETATM   11  S   UNK N   1      31.463  16.393   8.827  0.00  0.00    -0.033 SA
BRANCH  11  12
HETATM   12  S   UNK N   1      33.501  16.784   8.350  0.00  0.00     0.195 S 
HETATM   13  C   UNK N   1      34.407  17.336   6.878  0.00  0.00     0.174 C 
HETATM   14  O   UNK N   1      32.925  18.197   8.194  0.00  0.00    -0.217 OA
HETATM   15  O   UNK N   1      34.232  17.263   9.614  0.00  0.00    -0.217 OA
ENDBRANCH  11  12
ENDBRANCH  10  11
ENDBRANCH   5  10
BRANCH   6  16
HETATM   16  C   UNK N   1      30.966  16.602   5.127  0.00  0.00    -0.028 A 
HETATM   17  C   UNK N   1      31.477  15.298   5.241  0.00  0.00     0.012 A 
HETATM   18  C   UNK N   1      32.626  14.915   4.543  0.00  0.00     0.001 A 
HETATM   19  C   UNK N   1      33.278  15.831   3.715  0.00  0.00     0.000 A 
HETATM   20  C   UNK N   1      32.783  17.130   3.591  0.00  0.00     0.001 A 
HETATM   21  C   UNK N   1      31.636  17.512   4.292  0.00  0.00     0.012 A 
ENDBRANCH   6  16
BRANCH   9  22
HETATM   22  O   UNK N   1      26.422  18.022   6.042  0.00  0.00    -0.311 OA
HETATM   23  H   UNK N   1      26.097  18.308   5.175  0.00  0.00     0.237 HD
ENDBRANCH   9  22
TORSDOF 5
ENDMDL
MODEL 6
REMARK VINA RESULT:      -5.9     13.707     15.606
REMARK  5 active torsions:
REMARK  status: ('A' for Active; 'I' for Inactive)
REMARK    1  A    between atoms: C_13  and  C_11 
REMARK    2  A    between atoms: S_21  and  C_11 
REMARK    3  A    between atoms: C_14  and  C_12 
REMARK    4  A    between atoms: O_18  and  N_17 
REMARK    5  A    between atoms: S_22  and  S_21 
ROOT
HETATM    1  C   UNK N   1      28.034  23.316  -6.603  0.00  0.00     0.039 C 
HETATM    2  C   UNK N   1      25.836  23.400  -5.445  0.00  0.00     0.039 C 
HETATM    3  C   UNK N   1      25.299  27.217  -6.215  0.00  0.00     0.040 C 
HETATM    4  C   UNK N   1      27.452  27.424  -7.451  0.00  0.00     0.040 C 
HETATM    5  C   UNK N   1      27.574  25.085  -4.937  0.00  0.00    -0.036 C 
HETATM    6  C   UNK N   1      27.396  26.385  -5.186  0.00  0.00    -0.018 C 
HETATM    7  C   UNK N   1      26.983  24.236  -6.011  0.00  0.00     0.057 C 
HETATM    8  C   UNK N   1      26.658  26.566  -6.481  0.00  0.00     0.060 C 
HETATM    9  N   UNK N   1      26.551  25.202  -7.047  0.00  0.00    -0.173 NA
ENDROOT
BRANCH   5  10
HETATM   10  C   UNK N   1      28.263  24.510  -3.728  0.00  0.00     0.127 C 
BRANCH  10  11
HETATM   11  S   UNK N   1      30.067  24.554  -3.928  0.00  0.00    -0.033 SA
BRANCH  11  12
HETATM   12  S   UNK N   1      30.342  22.647  -3.020  0.00  0.00     0.195 S 
HETATM   13  C   UNK N   1      30.863  21.004  -3.585  0.00  0.00     0.174 C 
HETATM   14  O   UNK N   1      31.789  22.950  -3.428  0.00  0.00    -0.217 OA
HETATM   15  O   UNK N   1      30.754  22.842  -1.553  0.00  0.00    -0.217 OA
ENDBRANCH  11  12
ENDBRANCH  10  11
ENDBRANCH   5  10
BRANCH   6  16
HETATM   16  C   UNK N   1      27.822  27.527  -4.308  0.00  0.00    -0.028 A 
HETATM   17  C   UNK N   1      29.086  28.114  -4.487  0.00  0.00     0.012 A 
HETATM   18  C   UNK N   1      29.502  29.183  -3.689  0.00  0.00     0.001 A 
HETATM   19  C   UNK N   1      28.654  29.685  -2.699  0.00  0.00     0.000 A 
HETATM   20  C   UNK N   1      27.394  29.115  -2.508  0.00  0.00     0.001 A 
HETATM   21  C   UNK N   1      26.982  28.044  -3.306  0.00  0.00     0.012 A 
ENDBRANCH   6  16
BRANCH   9  22
HETATM   22  O   UNK N   1      25.314  24.929  -7.542  0.00  0.00    -0.311 OA
HETATM   23  H   UNK N   1      24.935  24.928  -8.435  0.00  0.00     0.237 HD
ENDBRANCH   9  22
TORSDOF 5
ENDMDL
MODEL 7
REMARK VINA RESULT:      -5.9      3.206      4.861
REMARK  5 active torsions:
REMARK  status: ('A' for Active; 'I' for Inactive)
REMARK    1  A    between atoms: C_13  and  C_11 
REMARK    2  A    between atoms: S_21  and  C_11 
REMARK    3  A    between atoms: C_14  and  C_12 
REMARK    4  A    between atoms: O_18  and  N_17 
REMARK    5  A    between atoms: S_22  and  S_21 
ROOT
HETATM    1  C   UNK N   1      28.353  19.268   7.925  0.00  0.00     0.039 C 
HETATM    2  C   UNK N   1      27.902  16.908   8.567  0.00  0.00     0.039 C 
HETATM    3  C   UNK N   1      31.714  15.967   8.735  0.00  0.00     0.040 C 
HETATM    4  C   UNK N   1      32.463  18.263   8.123  0.00  0.00     0.040 C 
HETATM    5  C   UNK N   1      29.450  17.417   6.705  0.00  0.00    -0.036 C 
HETATM    6  C   UNK N   1      30.744  17.091   6.750  0.00  0.00    -0.018 C 
HETATM    7  C   UNK N   1      28.956  17.879   8.034  0.00  0.00     0.057 C 
HETATM    8  C   UNK N   1      31.283  17.306   8.135  0.00  0.00     0.060 C 
HETATM    9  N   UNK N   1      30.172  17.947   8.876  0.00  0.00    -0.173 NA
ENDROOT
BRANCH   5  10
HETATM   10  C   UNK N   1      28.565  17.326   5.491  0.00  0.00     0.127 C 
BRANCH  10  11
HETATM   11  S   UNK N   1      27.914  15.644   5.288  0.00  0.00    -0.033 SA
BRANCH  11  12
HETATM   12  S   UNK N   1      28.654  15.460   3.299  0.00  0.00     0.195 S 
HETATM   13  C   UNK N   1      28.164  14.544   1.812  0.00  0.00     0.174 C 
HETATM   14  O   UNK N   1      27.299  16.120   3.011  0.00  0.00    -0.217 OA
HETATM   15  O   UNK N   1      29.337  16.774   2.892  0.00  0.00    -0.217 OA
ENDBRANCH  11  12
ENDBRANCH  10  11
ENDBRANCH   5  10
BRANCH   6  16
HETATM   16  C   UNK N   1      31.567  16.550   5.615  0.00  0.00    -0.028 A 
HETATM   17  C   UNK N   1      32.187  17.436   4.717  0.00  0.00     0.012 A 
HETATM   18  C   UNK N   1      32.964  16.957   3.659  0.00  0.00     0.001 A 
HETATM   19  C   UNK N   1      33.137  15.582   3.486  0.00  0.00     0.000 A 
HETATM   20  C   UNK N   1      32.529  14.689   4.370  0.00  0.00     0.001 A 
HETATM   21  C   UNK N   1      31.750  15.170   5.426  0.00  0.00     0.012 A 
ENDBRANCH   6  16
BRANCH   9  22
HETATM   22  O   UNK N   1      29.988  17.419  10.115  0.00  0.00    -0.311 OA
HETATM   23  H   UNK N   1      30.580  17.000  10.759  0.00  0.00     0.237 HD
ENDBRANCH   9  22
TORSDOF 5
ENDMDL
MODEL 8
REMARK VINA RESULT:      -5.9     15.626     17.721
REMARK  5 active torsions:
REMARK  status: ('A' for Active; 'I' for Inactive)
REMARK    1  A    between atoms: C_13  and  C_11 
REMARK    2  A    between atoms: S_21  and  C_11 
REMARK    3  A    between atoms: C_14  and  C_12 
REMARK    4  A    between atoms: O_18  and  N_17 
REMARK    5  A    between atoms: S_22  and  S_21 
ROOT
HETATM    1  C   UNK N   1      27.096  27.889  -6.594  0.00  0.00     0.039 C 
HETATM    2  C   UNK N   1      24.863  27.319  -5.659  0.00  0.00     0.039 C 
HETATM    3  C   UNK N   1      26.132  23.982  -4.015  0.00  0.00     0.040 C 
HETATM    4  C   UNK N   1      28.471  24.304  -4.809  0.00  0.00     0.040 C 
HETATM    5  C   UNK N   1      26.138  25.637  -6.950  0.00  0.00    -0.036 C 
HETATM    6  C   UNK N   1      26.564  24.496  -6.402  0.00  0.00    -0.018 C 
HETATM    7  C   UNK N   1      26.252  26.778  -5.997  0.00  0.00     0.057 C 
HETATM    8  C   UNK N   1      27.028  24.741  -4.995  0.00  0.00     0.060 C 
HETATM    9  N   UNK N   1      26.963  26.211  -4.828  0.00  0.00    -0.173 NA
ENDROOT
BRANCH   5  10
HETATM   10  C   UNK N   1      25.589  25.788  -8.343  0.00  0.00     0.127 C 
BRANCH  10  11
HETATM   11  S   UNK N   1      26.920  25.720  -9.576  0.00  0.00    -0.033 SA
BRANCH  11  12
HETATM   12  S   UNK N   1      25.607  25.141 -11.149  0.00  0.00     0.195 S 
HETATM   13  C   UNK N   1      25.635  23.900 -12.472  0.00  0.00     0.174 C 
HETATM   14  O   UNK N   1      25.589  23.856 -10.312  0.00  0.00    -0.217 OA
HETATM   15  O   UNK N   1      24.156  25.398 -10.715  0.00  0.00    -0.217 OA
ENDBRANCH  11  12
ENDBRANCH  10  11
ENDBRANCH   5  10
BRANCH   6  16
HETATM   16  C   UNK N   1      26.560  23.140  -7.049  0.00  0.00    -0.028 A 
HETATM   17  C   UNK N   1      25.362  22.410  -7.136  0.00  0.00     0.012 A 
HETATM   18  C   UNK N   1      25.332  21.151  -7.741  0.00  0.00     0.001 A 
HETATM   19  C   UNK N   1      26.501  20.604  -8.272  0.00  0.00     0.000 A 
HETATM   20  C   UNK N   1      27.700  21.315  -8.195  0.00  0.00     0.001 A 
HETATM   21  C   UNK N   1      27.728  22.574  -7.587  0.00  0.00     0.012 A 
ENDBRANCH   6  16
BRANCH   9  22
HETATM   22  O   UNK N   1      26.412  26.585  -3.642  0.00  0.00    -0.311 OA
HETATM   23  H   UNK N   1      26.783  26.861  -2.789  0.00  0.00     0.237 HD
ENDBRANCH   9  22
TORSDOF 5
ENDMDL
MODEL 9
REMARK VINA RESULT:      -5.9      6.720     10.933
REMARK  5 active torsions:
REMARK  status: ('A' for Active; 'I' for Inactive)
REMARK    1  A    between atoms: C_13  and  C_11 
REMARK    2  A    between atoms: S_21  and  C_11 
REMARK    3  A    between atoms: C_14  and  C_12 
REMARK    4  A    between atoms: O_18  and  N_17 
REMARK    5  A    between atoms: S_22  and  S_21 
ROOT
HETATM    1  C   UNK N   1      34.464  10.821  11.900  0.00  0.00     0.039 C 
HETATM    2  C   UNK N   1      36.657  11.710  11.139  0.00  0.00     0.039 C 
HETATM    3  C   UNK N   1      38.366  11.175  14.638  0.00  0.00     0.040 C 
HETATM    4  C   UNK N   1      36.306  10.226  15.668  0.00  0.00     0.040 C 
HETATM    5  C   UNK N   1      35.632  12.550  13.228  0.00  0.00    -0.036 C 
HETATM    6  C   UNK N   1      36.211  12.381  14.420  0.00  0.00    -0.018 C 
HETATM    7  C   UNK N   1      35.810  11.351  12.359  0.00  0.00     0.057 C 
HETATM    8  C   UNK N   1      36.850  11.025  14.496  0.00  0.00     0.060 C 
HETATM    9  N   UNK N   1      36.446  10.347  13.243  0.00  0.00    -0.173 NA
ENDROOT
BRANCH   5  10
HETATM   10  C   UNK N   1      34.900  13.785  12.776  0.00  0.00     0.127 C 
BRANCH  10  11
HETATM   11  S   UNK N   1      36.046  14.989  12.047  0.00  0.00    -0.033 SA
BRANCH  11  12
HETATM   12  S   UNK N   1      34.981  15.080  10.205  0.00  0.00     0.195 S 
HETATM   13  C   UNK N   1      33.975  13.927   9.229  0.00  0.00     0.174 C 
HETATM   14  O   UNK N   1      33.809  14.861  11.171  0.00  0.00    -0.217 OA
HETATM   15  O   UNK N   1      34.479  16.515   9.983  0.00  0.00    -0.217 OA
ENDBRANCH  11  12
ENDBRANCH  10  11
ENDBRANCH   5  10
BRANCH   6  16
HETATM   16  C   UNK N   1      36.269  13.389  15.533  0.00  0.00    -0.028 A 
HETATM   17  C   UNK N   1      35.440  13.239  16.657  0.00  0.00     0.012 A 
HETATM   18  C   UNK N   1      35.481  14.158  17.708  0.00  0.00     0.001 A 
HETATM   19  C   UNK N   1      36.361  15.241  17.653  0.00  0.00     0.000 A 
HETATM   20  C   UNK N   1      37.193  15.406  16.544  0.00  0.00     0.001 A 
HETATM   21  C   UNK N   1      37.146  14.486  15.493  0.00  0.00     0.012 A 
ENDBRANCH   6  16
BRANCH   9  22
HETATM   22  O   UNK N   1      37.473   9.689  12.642  0.00  0.00    -0.311 OA
HETATM   23  H   UNK N   1      37.554   8.821  12.217  0.00  0.00     0.237 HD
ENDBRANCH   9  22
TORSDOF 5
ENDMDL
