MODEL 1
REMARK VINA RESULT:      -3.6      0.000      0.000
REMARK  2 active torsions:
REMARK  status: ('A' for Active; 'I' for Inactive)
REMARK    1  A    between atoms: O_1  and  C_2 
REMARK    2  A    between atoms: C_2  and  C_4 
ROOT
HETATM    1  C   UNK N   1      34.675  18.245   8.137  0.00  0.00     0.174 C 
HETATM    2  O   UNK N   1      34.412  18.154   6.947  0.00  0.00    -0.648 OA
ENDROOT
BRANCH   1   3
HETATM    3  O   UNK N   1      35.344  19.319   8.591  0.00  0.00    -0.774 OA
HETATM    4  H   UNK N   1      35.747  19.911   7.986  0.00  0.00     0.167 HD
ENDBRANCH   1   3
BRANCH   1   5
HETATM    5  C   UNK N   1      34.253  17.167   9.082  0.00  0.00     0.275 C 
HETATM    6 Cl   UNK N   1      32.740  16.271   8.793  0.00  0.00    -0.097 Cl
HETATM    7 Cl   UNK N   1      35.260  16.774  10.502  0.00  0.00    -0.097 Cl
ENDBRANCH   1   5
TORSDOF 2
ENDMDL
MODEL 2
REMARK VINA RESULT:      -3.6      0.068      2.195
REMARK  2 active torsions:
REMARK  status: ('A' for Active; 'I' for Inactive)
REMARK    1  A    between atoms: O_1  and  C_2 
REMARK    2  A    between atoms: C_2  and  C_4 
ROOT
HETATM    1  C   UNK N   1      34.679  18.259   8.146  0.00  0.00     0.174 C 
HETATM    2  O   UNK N   1      35.282  19.239   8.557  0.00  0.00    -0.648 OA
ENDROOT
BRANCH   1   3
HETATM    3  O   UNK N   1      34.383  18.158   6.839  0.00  0.00    -0.774 OA
HETATM    4  H   UNK N   1      34.049  17.354   6.494  0.00  0.00     0.167 HD
ENDBRANCH   1   3
BRANCH   1   5
HETATM    5  C   UNK N   1      34.272  17.177   9.095  0.00  0.00     0.275 C 
HETATM    6 Cl   UNK N   1      35.293  16.800  10.505  0.00  0.00    -0.097 Cl
HETATM    7 Cl   UNK N   1      32.766  16.261   8.818  0.00  0.00    -0.097 Cl
ENDBRANCH   1   5
TORSDOF 2
ENDMDL
MODEL 3
REMARK VINA RESULT:      -3.5     11.928     12.518
REMARK  2 active torsions:
REMARK  status: ('A' for Active; 'I' for Inactive)
REMARK    1  A    between atoms: O_1  and  C_2 
REMARK    2  A    between atoms: C_2  and  C_4 
ROOT
HETATM    1  C   UNK N   1      24.363  12.233  10.772  0.00  0.00     0.174 C 
HETATM    2  O   UNK N   1      24.348  11.849   9.612  0.00  0.00    -0.648 OA
ENDROOT
BRANCH   1   3
HETATM    3  O   UNK N   1      25.486  12.768  11.283  0.00  0.00    -0.774 OA
HETATM    4  H   UNK N   1      25.442  13.314  12.043  0.00  0.00     0.167 HD
ENDBRANCH   1   3
BRANCH   1   5
HETATM    5  C   UNK N   1      23.137  12.109  11.619  0.00  0.00     0.275 C 
HETATM    6 Cl   UNK N   1      23.289  11.929  13.384  0.00  0.00    -0.097 Cl
HETATM    7 Cl   UNK N   1      21.520  12.141  10.865  0.00  0.00    -0.097 Cl
ENDBRANCH   1   5
TORSDOF 2
ENDMDL
MODEL 4
REMARK VINA RESULT:      -3.5     12.403     13.113
REMARK  2 active torsions:
REMARK  status: ('A' for Active; 'I' for Inactive)
REMARK    1  A    between atoms: O_1  and  C_2 
REMARK    2  A    between atoms: C_2  and  C_4 
ROOT
HETATM    1  C   UNK N   1      23.818  12.081  12.038  0.00  0.00     0.174 C 
HETATM    2  O   UNK N   1      23.555  11.998  13.229  0.00  0.00    -0.648 OA
ENDROOT
BRANCH   1   3
HETATM    3  O   UNK N   1      25.075  12.359  11.651  0.00  0.00    -0.774 OA
HETATM    4  H   UNK N   1      25.791  12.197  12.232  0.00  0.00     0.167 HD
ENDBRANCH   1   3
BRANCH   1   5
HETATM    5  C   UNK N   1      22.745  11.874  11.018  0.00  0.00     0.275 C 
HETATM    6 Cl   UNK N   1      21.042  12.182  11.442  0.00  0.00    -0.097 Cl
HETATM    7 Cl   UNK N   1      23.165  11.320   9.375  0.00  0.00    -0.097 Cl
ENDBRANCH   1   5
TORSDOF 2
ENDMDL
MODEL 5
REMARK VINA RESULT:      -3.5     12.372     13.102
REMARK  2 active torsions:
REMARK  status: ('A' for Active; 'I' for Inactive)
REMARK    1  A    between atoms: O_1  and  C_2 
REMARK    2  A    between atoms: C_2  and  C_4 
ROOT
HETATM    1  C   UNK N   1      23.835  12.094  12.005  0.00  0.00     0.174 C 
HETATM    2  O   UNK N   1      23.565  12.017  13.194  0.00  0.00    -0.648 OA
ENDROOT
BRANCH   1   3
HETATM    3  O   UNK N   1      25.094  12.370  11.623  0.00  0.00    -0.774 OA
HETATM    4  H   UNK N   1      25.676  12.810  12.211  0.00  0.00     0.167 HD
ENDBRANCH   1   3
BRANCH   1   5
HETATM    5  C   UNK N   1      22.768  11.882  10.979  0.00  0.00     0.275 C 
HETATM    6 Cl   UNK N   1      23.203  11.321   9.345  0.00  0.00    -0.097 Cl
HETATM    7 Cl   UNK N   1      21.058  12.188  11.387  0.00  0.00    -0.097 Cl
ENDBRANCH   1   5
TORSDOF 2
ENDMDL
MODEL 6
REMARK VINA RESULT:      -3.4     15.102     15.698
REMARK  2 active torsions:
REMARK  status: ('A' for Active; 'I' for Inactive)
REMARK    1  A    between atoms: O_1  and  C_2 
REMARK    2  A    between atoms: C_2  and  C_4 
ROOT
HETATM    1  C   UNK N   1      20.893  20.390   1.219  0.00  0.00     0.174 C 
HETATM    2  O   UNK N   1      21.387  21.346   1.798  0.00  0.00    -0.648 OA
ENDROOT
BRANCH   1   3
HETATM    3  O   UNK N   1      20.603  20.480  -0.090  0.00  0.00    -0.774 OA
HETATM    4  H   UNK N   1      19.720  20.628  -0.366  0.00  0.00     0.167 HD
ENDBRANCH   1   3
BRANCH   1   5
HETATM    5  C   UNK N   1      20.613  19.125   1.965  0.00  0.00     0.275 C 
HETATM    6 Cl   UNK N   1      20.733  19.095   3.742  0.00  0.00    -0.097 Cl
HETATM    7 Cl   UNK N   1      20.158  17.643   1.080  0.00  0.00    -0.097 Cl
ENDBRANCH   1   5
TORSDOF 2
ENDMDL
MODEL 7
REMARK VINA RESULT:      -3.4     15.200     15.513
REMARK  2 active torsions:
REMARK  status: ('A' for Active; 'I' for Inactive)
REMARK    1  A    between atoms: O_1  and  C_2 
REMARK    2  A    between atoms: C_2  and  C_4 
ROOT
HETATM    1  C   UNK N   1      20.916  20.657   1.257  0.00  0.00     0.174 C 
HETATM    2  O   UNK N   1      21.084  20.538   0.053  0.00  0.00    -0.648 OA
ENDROOT
BRANCH   1   3
HETATM    3  O   UNK N   1      20.933  21.880   1.815  0.00  0.00    -0.774 OA
HETATM    4  H   UNK N   1      20.554  22.016   2.660  0.00  0.00     0.167 HD
ENDBRANCH   1   3
BRANCH   1   5
HETATM    5  C   UNK N   1      20.692  19.447   2.106  0.00  0.00     0.275 C 
HETATM    6 Cl   UNK N   1      20.221  17.904   1.350  0.00  0.00    -0.097 Cl
HETATM    7 Cl   UNK N   1      20.894  19.544   3.876  0.00  0.00    -0.097 Cl
ENDBRANCH   1   5
TORSDOF 2
ENDMDL
MODEL 8
REMARK VINA RESULT:      -3.2     18.744     19.153
REMARK  2 active torsions:
REMARK  status: ('A' for Active; 'I' for Inactive)
REMARK    1  A    between atoms: O_1  and  C_2 
REMARK    2  A    between atoms: C_2  and  C_4 
ROOT
HETATM    1  C   UNK N   1      25.920  28.542  -3.745  0.00  0.00     0.174 C 
HETATM    2  O   UNK N   1      25.805  27.779  -2.797  0.00  0.00    -0.648 OA
ENDROOT
BRANCH   1   3
HETATM    3  O   UNK N   1      26.015  29.865  -3.527  0.00  0.00    -0.774 OA
HETATM    4  H   UNK N   1      26.835  30.241  -3.272  0.00  0.00     0.167 HD
ENDBRANCH   1   3
BRANCH   1   5
HETATM    5  C   UNK N   1      25.955  28.005  -5.139  0.00  0.00     0.275 C 
HETATM    6 Cl   UNK N   1      27.288  28.453  -6.233  0.00  0.00    -0.097 Cl
HETATM    7 Cl   UNK N   1      24.664  26.914  -5.713  0.00  0.00    -0.097 Cl
ENDBRANCH   1   5
TORSDOF 2
ENDMDL
MODEL 9
REMARK VINA RESULT:      -3.1     13.790     14.291
REMARK  2 active torsions:
REMARK  status: ('A' for Active; 'I' for Inactive)
REMARK    1  A    between atoms: O_1  and  C_2 
REMARK    2  A    between atoms: C_2  and  C_4 
ROOT
HETATM    1  C   UNK N   1      20.911  12.256  11.179  0.00  0.00     0.174 C 
HETATM    2  O   UNK N   1      20.450  12.940  10.277  0.00  0.00    -0.648 OA
ENDROOT
BRANCH   1   3
HETATM    3  O   UNK N   1      20.084  11.676  12.066  0.00  0.00    -0.774 OA
HETATM    4  H   UNK N   1      20.412  11.030  12.660  0.00  0.00     0.167 HD
ENDBRANCH   1   3
BRANCH   1   5
HETATM    5  C   UNK N   1      22.390  12.066  11.294  0.00  0.00     0.275 C 
HETATM    6 Cl   UNK N   1      23.390  11.962   9.823  0.00  0.00    -0.097 Cl
HETATM    7 Cl   UNK N   1      23.156  11.942  12.900  0.00  0.00    -0.097 Cl
ENDBRANCH   1   5
TORSDOF 2
ENDMDL
