MODEL 1
REMARK VINA RESULT:      -6.3      0.000      0.000
REMARK  4 active torsions:
REMARK  status: ('A' for Active; 'I' for Inactive)
REMARK    1  A    between atoms: C_10  and  C_5 
REMARK    2  A    between atoms: N_17  and  C_6 
REMARK    3  A    between atoms: N_19  and  C_7 
REMARK    4  A    between atoms: N_16  and  C_9 
ROOT
HETATM    1  N   UNK N   1      31.587  17.382   8.377  0.00  0.00    -0.299 N 
ATOM      2  HN  UNK N   1      31.557  18.052   9.146  1.00  0.00     0.187 HD
HETATM    3  N   UNK N   1      32.572  16.626   8.262  0.00  0.00    -0.293 N 
ATOM      4  HN  UNK N   1      32.614  15.976   7.476  1.00  0.00     0.187 HD
ENDROOT
BRANCH   3   5
HETATM    5  C   UNK N   1      33.636  16.652   9.202  0.00  0.00     0.138 A 
HETATM    6  C   UNK N   1      33.859  15.729  10.297  0.00  0.00     0.146 A 
HETATM    7  N   UNK N   1      33.142  14.718  10.625  0.00  0.00    -0.382 N 
HETATM    8  N   UNK N   1      35.025  16.149  10.965  0.00  0.00    -0.282 N 
HETATM    9  H   UNK N   1      33.400  14.132  11.432  0.00  0.00     0.157 HD
ATOM     10  HN  UNK N   1      32.309  14.491  10.081  1.00  0.00     0.157 HD
HETATM   11  N   UNK N   1      35.474  17.167  10.400  0.00  0.00    -0.282 N 
ATOM     12  HN  UNK N   1      35.436  15.695  11.781  1.00  0.00     0.188 HD
HETATM   13  C   UNK N   1      34.645  17.520   9.301  0.00  0.00     0.146 A 
ATOM     14  HN  UNK N   1      36.313  17.672  10.686  1.00  0.00     0.188 HD
BRANCH  13  15
HETATM   15  N   UNK N   1      34.878  18.630   8.458  0.00  0.00    -0.382 N 
HETATM   16  H   UNK N   1      34.247  19.385   8.454  0.00  0.00     0.157 HD
HETATM   17  H   UNK N   1      35.671  18.648   7.875  0.00  0.00     0.157 HD
ENDBRANCH  13  15
ENDBRANCH   3   5
BRANCH   1  18
HETATM   18  C   UNK N   1      30.505  17.326   7.458  0.00  0.00     0.063 A 
HETATM   19  C   UNK N   1      30.741  17.047   6.101  0.00  0.00     0.032 A 
HETATM   20  C   UNK N   1      29.678  16.957   5.201  0.00  0.00     0.002 A 
HETATM   21  C   UNK N   1      28.369  17.135   5.647  0.00  0.00     0.001 A 
HETATM   22  C   UNK N   1      28.121  17.407   6.994  0.00  0.00     0.018 A 
HETATM   23  C   UNK N   1      29.179  17.511   7.911  0.00  0.00     0.075 A 
BRANCH  23  24
HETATM   24  C   UNK N   1      28.883  17.808   9.360  0.00  0.00     0.419 C 
HETATM   25  F   UNK N   1      27.519  17.958   9.531  0.00  0.00    -0.166 F 
HETATM   26  F   UNK N   1      29.521  18.973   9.743  0.00  0.00    -0.166 F 
HETATM   27  F   UNK N   1      29.321  16.779  10.179  0.00  0.00    -0.166 F 
ENDBRANCH  23  24
ENDBRANCH   1  18
TORSDOF 4
ENDMDL
MODEL 2
REMARK VINA RESULT:      -6.3      7.820      9.771
REMARK  4 active torsions:
REMARK  status: ('A' for Active; 'I' for Inactive)
REMARK    1  A    between atoms: C_10  and  C_5 
REMARK    2  A    between atoms: N_17  and  C_6 
REMARK    3  A    between atoms: N_19  and  C_7 
REMARK    4  A    between atoms: N_16  and  C_9 
ROOT
HETATM    1  N   UNK N   1      36.727  13.309  14.176  0.00  0.00    -0.299 N 
ATOM      2  HN  UNK N   1      36.730  12.292  14.252  1.00  0.00     0.187 HD
HETATM    3  N   UNK N   1      36.738  13.839  13.047  0.00  0.00    -0.293 N 
ATOM      4  HN  UNK N   1      36.765  14.857  12.972  1.00  0.00     0.187 HD
ENDROOT
BRANCH   3   5
HETATM    5  C   UNK N   1      36.714  13.054  11.863  0.00  0.00     0.138 A 
HETATM    6  C   UNK N   1      37.763  12.937  10.869  0.00  0.00     0.146 A 
HETATM    7  N   UNK N   1      38.906  13.518  10.868  0.00  0.00    -0.382 N 
HETATM    8  N   UNK N   1      37.295  12.061   9.871  0.00  0.00    -0.282 N 
HETATM    9  H   UNK N   1      39.573  13.359  10.099  0.00  0.00     0.157 HD
ATOM     10  HN  UNK N   1      39.158  14.141  11.636  1.00  0.00     0.157 HD
HETATM   11  N   UNK N   1      36.144  11.681  10.170  0.00  0.00    -0.282 N 
ATOM     12  HN  UNK N   1      37.813  11.782   9.038  1.00  0.00     0.188 HD
HETATM   13  C   UNK N   1      35.739  12.272  11.397  0.00  0.00     0.146 A 
ATOM     14  HN  UNK N   1      35.578  11.041   9.613  1.00  0.00     0.188 HD
BRANCH  13  15
HETATM   15  N   UNK N   1      34.483  12.048  12.007  0.00  0.00    -0.382 N 
HETATM   16  H   UNK N   1      34.436  11.799  12.958  0.00  0.00     0.157 HD
HETATM   17  H   UNK N   1      33.657  12.141  11.480  0.00  0.00     0.157 HD
ENDBRANCH  13  15
ENDBRANCH   3   5
BRANCH   1  18
HETATM   18  C   UNK N   1      36.710  14.097  15.357  0.00  0.00     0.063 A 
HETATM   19  C   UNK N   1      37.367  15.339  15.392  0.00  0.00     0.032 A 
HETATM   20  C   UNK N   1      37.323  16.132  16.540  0.00  0.00     0.002 A 
HETATM   21  C   UNK N   1      36.617  15.698  17.662  0.00  0.00     0.001 A 
HETATM   22  C   UNK N   1      35.956  14.469  17.638  0.00  0.00     0.018 A 
HETATM   23  C   UNK N   1      35.997  13.654  16.496  0.00  0.00     0.075 A 
BRANCH  23  24
HETATM   24  C   UNK N   1      35.276  12.330  16.497  0.00  0.00     0.419 C 
HETATM   25  F   UNK N   1      36.153  11.327  16.122  0.00  0.00    -0.166 F 
HETATM   26  F   UNK N   1      34.218  12.365  15.609  0.00  0.00    -0.166 F 
HETATM   27  F   UNK N   1      34.781  12.033  17.757  0.00  0.00    -0.166 F 
ENDBRANCH  23  24
ENDBRANCH   1  18
TORSDOF 4
ENDMDL
MODEL 3
REMARK VINA RESULT:      -6.2      7.642     10.455
REMARK  4 active torsions:
REMARK  status: ('A' for Active; 'I' for Inactive)
REMARK    1  A    between atoms: C_10  and  C_5 
REMARK    2  A    between atoms: N_17  and  C_6 
REMARK    3  A    between atoms: N_19  and  C_7 
REMARK    4  A    between atoms: N_16  and  C_9 
ROOT
HETATM    1  N   UNK N   1      34.694  12.707  15.414  0.00  0.00    -0.299 N 
ATOM      2  HN  UNK N   1      33.729  12.719  15.083  1.00  0.00     0.187 HD
HETATM    3  N   UNK N   1      35.624  12.858  14.596  0.00  0.00    -0.293 N 
ATOM      4  HN  UNK N   1      36.589  12.818  14.924  1.00  0.00     0.187 HD
ENDROOT
BRANCH   3   5
HETATM    5  C   UNK N   1      35.365  13.085  13.218  0.00  0.00     0.138 A 
HETATM    6  C   UNK N   1      34.680  12.198  12.299  0.00  0.00     0.146 A 
HETATM    7  N   UNK N   1      34.181  11.045  12.552  0.00  0.00    -0.382 N 
HETATM    8  N   UNK N   1      34.666  12.832  11.041  0.00  0.00    -0.282 N 
HETATM    9  H   UNK N   1      33.718  10.501  11.810  0.00  0.00     0.157 HD
ATOM     10  HN  UNK N   1      34.241  10.663  13.496  1.00  0.00     0.157 HD
HETATM   11  N   UNK N   1      35.243  13.935  11.134  0.00  0.00    -0.282 N 
ATOM     12  HN  UNK N   1      34.252  12.451  10.191  1.00  0.00     0.188 HD
HETATM   13  C   UNK N   1      35.696  14.137  12.466  0.00  0.00     0.146 A 
ATOM     14  HN  UNK N   1      35.370  14.594  10.367  1.00  0.00     0.188 HD
BRANCH  13  15
HETATM   15  N   UNK N   1      36.393  15.288  12.899  0.00  0.00    -0.382 N 
HETATM   16  H   UNK N   1      37.304  15.203  13.262  0.00  0.00     0.157 HD
HETATM   17  H   UNK N   1      35.967  16.173  12.839  0.00  0.00     0.157 HD
ENDBRANCH  13  15
ENDBRANCH   3   5
BRANCH   1  18
HETATM   18  C   UNK N   1      34.954  12.521  16.797  0.00  0.00     0.063 A 
HETATM   19  C   UNK N   1      35.054  13.630  17.656  0.00  0.00     0.032 A 
HETATM   20  C   UNK N   1      35.276  13.450  19.022  0.00  0.00     0.002 A 
HETATM   21  C   UNK N   1      35.391  12.163  19.548  0.00  0.00     0.001 A 
HETATM   22  C   UNK N   1      35.287  11.054  18.706  0.00  0.00     0.018 A 
HETATM   23  C   UNK N   1      35.075  11.217  17.328  0.00  0.00     0.075 A 
BRANCH  23  24
HETATM   24  C   UNK N   1      34.970  10.001  16.441  0.00  0.00     0.419 C 
HETATM   25  F   UNK N   1      34.843   8.868  17.224  0.00  0.00    -0.166 F 
HETATM   26  F   UNK N   1      36.102   9.888  15.657  0.00  0.00    -0.166 F 
HETATM   27  F   UNK N   1      33.866  10.087  15.607  0.00  0.00    -0.166 F 
ENDBRANCH  23  24
ENDBRANCH   1  18
TORSDOF 4
ENDMDL
MODEL 4
REMARK VINA RESULT:      -6.2      5.489      8.379
REMARK  4 active torsions:
REMARK  status: ('A' for Active; 'I' for Inactive)
REMARK    1  A    between atoms: C_10  and  C_5 
REMARK    2  A    between atoms: N_17  and  C_6 
REMARK    3  A    between atoms: N_19  and  C_7 
REMARK    4  A    between atoms: N_16  and  C_9 
ROOT
HETATM    1  N   UNK N   1      34.572  13.089  12.756  0.00  0.00    -0.299 N 
ATOM      2  HN  UNK N   1      34.435  13.871  13.396  1.00  0.00     0.187 HD
HETATM    3  N   UNK N   1      34.600  13.300  11.527  0.00  0.00    -0.293 N 
ATOM      4  HN  UNK N   1      34.708  12.513  10.887  1.00  0.00     0.187 HD
ENDROOT
BRANCH   3   5
HETATM    5  C   UNK N   1      34.483  14.615  11.002  0.00  0.00     0.138 A 
HETATM    6  C   UNK N   1      35.374  15.733  11.236  0.00  0.00     0.146 A 
HETATM    7  N   UNK N   1      36.432  15.750  11.961  0.00  0.00    -0.382 N 
HETATM    8  N   UNK N   1      34.860  16.832  10.523  0.00  0.00    -0.282 N 
HETATM    9  H   UNK N   1      36.987  16.613  12.057  0.00  0.00     0.157 HD
ATOM     10  HN  UNK N   1      36.727  14.903  12.446  1.00  0.00     0.157 HD
HETATM   11  N   UNK N   1      33.818  16.483   9.931  0.00  0.00    -0.282 N 
ATOM     12  HN  UNK N   1      35.272  17.765  10.494  1.00  0.00     0.188 HD
HETATM   13  C   UNK N   1      33.541  15.115  10.199  0.00  0.00     0.146 A 
ATOM     14  HN  UNK N   1      33.248  17.090   9.343  1.00  0.00     0.188 HD
BRANCH  13  15
HETATM   15  N   UNK N   1      32.427  14.416   9.682  0.00  0.00    -0.382 N 
HETATM   16  H   UNK N   1      32.237  13.499   9.985  0.00  0.00     0.157 HD
HETATM   17  H   UNK N   1      31.840  14.847   9.019  0.00  0.00     0.157 HD
ENDBRANCH  13  15
ENDBRANCH   3   5
BRANCH   1  18
HETATM   18  C   UNK N   1      34.730  11.779  13.281  0.00  0.00     0.063 A 
HETATM   19  C   UNK N   1      34.575  10.657  12.448  0.00  0.00     0.032 A 
HETATM   20  C   UNK N   1      34.762   9.369  12.952  0.00  0.00     0.002 A 
HETATM   21  C   UNK N   1      35.115   9.186  14.288  0.00  0.00     0.001 A 
HETATM   22  C   UNK N   1      35.277  10.292  15.125  0.00  0.00     0.018 A 
HETATM   23  C   UNK N   1      35.083  11.594  14.638  0.00  0.00     0.075 A 
BRANCH  23  24
HETATM   24  C   UNK N   1      35.262  12.772  15.563  0.00  0.00     0.419 C 
HETATM   25  F   UNK N   1      34.024  13.297  15.887  0.00  0.00    -0.166 F 
HETATM   26  F   UNK N   1      36.023  13.747  14.946  0.00  0.00    -0.166 F 
HETATM   27  F   UNK N   1      35.901  12.393  16.733  0.00  0.00    -0.166 F 
ENDBRANCH  23  24
ENDBRANCH   1  18
TORSDOF 4
ENDMDL
MODEL 5
REMARK VINA RESULT:      -6.2      1.038      2.073
REMARK  4 active torsions:
REMARK  status: ('A' for Active; 'I' for Inactive)
REMARK    1  A    between atoms: C_10  and  C_5 
REMARK    2  A    between atoms: N_17  and  C_6 
REMARK    3  A    between atoms: N_19  and  C_7 
REMARK    4  A    between atoms: N_16  and  C_9 
ROOT
HETATM    1  N   UNK N   1      31.421  16.485   8.568  0.00  0.00    -0.299 N 
ATOM      2  HN  UNK N   1      31.159  16.557   9.551  1.00  0.00     0.187 HD
HETATM    3  N   UNK N   1      32.476  15.896   8.257  0.00  0.00    -0.293 N 
ATOM      4  HN  UNK N   1      32.752  15.850   7.275  1.00  0.00     0.187 HD
ENDROOT
BRANCH   3   5
HETATM    5  C   UNK N   1      33.300  15.288   9.242  0.00  0.00     0.138 A 
HETATM    6  C   UNK N   1      34.308  15.933  10.058  0.00  0.00     0.146 A 
HETATM    7  N   UNK N   1      34.650  17.169  10.047  0.00  0.00    -0.382 N 
HETATM    8  N   UNK N   1      34.874  14.941  10.882  0.00  0.00    -0.282 N 
HETATM    9  H   UNK N   1      35.390  17.514  10.675  0.00  0.00     0.157 HD
ATOM     10  HN  UNK N   1      34.184  17.817   9.411  1.00  0.00     0.157 HD
HETATM   11  N   UNK N   1      34.326  13.847  10.638  0.00  0.00    -0.282 N 
ATOM     12  HN  UNK N   1      35.614  15.093  11.568  1.00  0.00     0.188 HD
HETATM   13  C   UNK N   1      33.342  14.010   9.625  0.00  0.00     0.146 A 
ATOM     14  HN  UNK N   1      34.551  12.965  11.098  1.00  0.00     0.188 HD
BRANCH  13  15
HETATM   15  N   UNK N   1      32.546  12.959   9.118  0.00  0.00    -0.382 N 
HETATM   16  H   UNK N   1      31.664  12.774   9.513  0.00  0.00     0.157 HD
HETATM   17  H   UNK N   1      32.874  12.411   8.368  0.00  0.00     0.157 HD
ENDBRANCH  13  15
ENDBRANCH   3   5
BRANCH   1  18
HETATM   18  C   UNK N   1      30.579  17.056   7.577  0.00  0.00     0.063 A 
HETATM   19  C   UNK N   1      30.877  16.895   6.213  0.00  0.00     0.032 A 
HETATM   20  C   UNK N   1      30.034  17.426   5.236  0.00  0.00     0.002 A 
HETATM   21  C   UNK N   1      28.879  18.114   5.609  0.00  0.00     0.001 A 
HETATM   22  C   UNK N   1      28.569  18.276   6.960  0.00  0.00     0.018 A 
HETATM   23  C   UNK N   1      29.411  17.758   7.956  0.00  0.00     0.075 A 
BRANCH  23  24
HETATM   24  C   UNK N   1      29.054  17.949   9.409  0.00  0.00     0.419 C 
HETATM   25  F   UNK N   1      27.743  18.379   9.510  0.00  0.00    -0.166 F 
HETATM   26  F   UNK N   1      29.888  18.891   9.982  0.00  0.00    -0.166 F 
HETATM   27  F   UNK N   1      29.184  16.763  10.115  0.00  0.00    -0.166 F 
ENDBRANCH  23  24
ENDBRANCH   1  18
TORSDOF 4
ENDMDL
MODEL 6
REMARK VINA RESULT:      -6.1      5.594      8.443
REMARK  4 active torsions:
REMARK  status: ('A' for Active; 'I' for Inactive)
REMARK    1  A    between atoms: C_10  and  C_5 
REMARK    2  A    between atoms: N_17  and  C_6 
REMARK    3  A    between atoms: N_19  and  C_7 
REMARK    4  A    between atoms: N_16  and  C_9 
ROOT
HETATM    1  N   UNK N   1      34.598  13.013  12.899  0.00  0.00    -0.299 N 
ATOM      2  HN  UNK N   1      34.394  13.786  13.533  1.00  0.00     0.187 HD
HETATM    3  N   UNK N   1      34.695  13.233  11.676  0.00  0.00    -0.293 N 
ATOM      4  HN  UNK N   1      34.871  12.454  11.040  1.00  0.00     0.187 HD
ENDROOT
BRANCH   3   5
HETATM    5  C   UNK N   1      34.567  14.546  11.149  0.00  0.00     0.138 A 
HETATM    6  C   UNK N   1      33.536  15.034  10.257  0.00  0.00     0.146 A 
HETATM    7  N   UNK N   1      32.546  14.378   9.772  0.00  0.00    -0.382 N 
HETATM    8  N   UNK N   1      33.818  16.389   9.995  0.00  0.00    -0.282 N 
HETATM    9  H   UNK N   1      31.875  14.835   9.139  0.00  0.00     0.157 HD
ATOM     10  HN  UNK N   1      32.424  13.395  10.017  1.00  0.00     0.157 HD
HETATM   11  N   UNK N   1      34.853  16.716  10.611  0.00  0.00    -0.282 N 
ATOM     12  HN  UNK N   1      33.266  17.004   9.397  1.00  0.00     0.188 HD
HETATM   13  C   UNK N   1      35.356  15.605  11.341  0.00  0.00     0.146 A 
ATOM     14  HN  UNK N   1      35.275  17.644  10.593  1.00  0.00     0.188 HD
BRANCH  13  15
HETATM   15  N   UNK N   1      36.522  15.645  12.139  0.00  0.00    -0.382 N 
HETATM   16  H   UNK N   1      37.410  15.596  11.717  0.00  0.00     0.157 HD
HETATM   17  H   UNK N   1      36.447  15.722  13.118  0.00  0.00     0.157 HD
ENDBRANCH  13  15
ENDBRANCH   3   5
BRANCH   1  18
HETATM   18  C   UNK N   1      34.766  11.705  13.427  0.00  0.00     0.063 A 
HETATM   19  C   UNK N   1      34.639  10.581  12.593  0.00  0.00     0.032 A 
HETATM   20  C   UNK N   1      34.838   9.296  13.100  0.00  0.00     0.002 A 
HETATM   21  C   UNK N   1      35.175   9.119  14.442  0.00  0.00     0.001 A 
HETATM   22  C   UNK N   1      35.310  10.228  15.279  0.00  0.00     0.018 A 
HETATM   23  C   UNK N   1      35.103  11.527  14.789  0.00  0.00     0.075 A 
BRANCH  23  24
HETATM   24  C   UNK N   1      35.253  12.707  15.716  0.00  0.00     0.419 C 
HETATM   25  F   UNK N   1      34.013  13.276  15.942  0.00  0.00    -0.166 F 
HETATM   26  F   UNK N   1      36.090  13.650  15.150  0.00  0.00    -0.166 F 
HETATM   27  F   UNK N   1      35.789  12.320  16.934  0.00  0.00    -0.166 F 
ENDBRANCH  23  24
ENDBRANCH   1  18
TORSDOF 4
ENDMDL
MODEL 7
REMARK VINA RESULT:      -6.1      7.318     10.409
REMARK  4 active torsions:
REMARK  status: ('A' for Active; 'I' for Inactive)
REMARK    1  A    between atoms: C_10  and  C_5 
REMARK    2  A    between atoms: N_17  and  C_6 
REMARK    3  A    between atoms: N_19  and  C_7 
REMARK    4  A    between atoms: N_16  and  C_9 
ROOT
HETATM    1  N   UNK N   1      36.234  12.192  15.190  0.00  0.00    -0.299 N 
ATOM      2  HN  UNK N   1      37.146  12.631  15.066  1.00  0.00     0.187 HD
HETATM    3  N   UNK N   1      35.337  12.395  14.347  0.00  0.00    -0.293 N 
ATOM      4  HN  UNK N   1      34.416  11.978  14.487  1.00  0.00     0.187 HD
ENDROOT
BRANCH   3   5
HETATM    5  C   UNK N   1      35.573  13.195  13.197  0.00  0.00     0.138 A 
HETATM    6  C   UNK N   1      36.289  14.453  13.138  0.00  0.00     0.146 A 
HETATM    7  N   UNK N   1      36.843  15.083  14.108  0.00  0.00    -0.382 N 
HETATM    8  N   UNK N   1      36.262  14.884  11.798  0.00  0.00    -0.282 N 
HETATM    9  H   UNK N   1      37.324  15.979  13.943  0.00  0.00     0.157 HD
ATOM     10  HN  UNK N   1      36.809  14.692  15.049  1.00  0.00     0.157 HD
HETATM   11  N   UNK N   1      35.637  14.050  11.113  0.00  0.00    -0.282 N 
ATOM     12  HN  UNK N   1      36.686  15.742  11.444  1.00  0.00     0.188 HD
HETATM   13  C   UNK N   1      35.187  12.983  11.937  0.00  0.00     0.146 A 
ATOM     14  HN  UNK N   1      35.472  14.123  10.109  1.00  0.00     0.188 HD
BRANCH  13  15
HETATM   15  N   UNK N   1      34.441  11.878  11.465  0.00  0.00    -0.382 N 
HETATM   16  H   UNK N   1      33.979  11.288  12.103  0.00  0.00     0.157 HD
HETATM   17  H   UNK N   1      34.385  11.699  10.499  0.00  0.00     0.157 HD
ENDBRANCH  13  15
ENDBRANCH   3   5
BRANCH   1  18
HETATM   18  C   UNK N   1      36.008  11.359  16.318  0.00  0.00     0.063 A 
HETATM   19  C   UNK N   1      36.350   9.996  16.274  0.00  0.00     0.032 A 
HETATM   20  C   UNK N   1      36.162   9.182  17.392  0.00  0.00     0.002 A 
HETATM   21  C   UNK N   1      35.639   9.720  18.567  0.00  0.00     0.001 A 
HETATM   22  C   UNK N   1      35.300  11.073  18.625  0.00  0.00     0.018 A 
HETATM   23  C   UNK N   1      35.473  11.904  17.508  0.00  0.00     0.075 A 
BRANCH  23  24
HETATM   24  C   UNK N   1      35.097  13.362  17.597  0.00  0.00     0.419 C 
HETATM   25  F   UNK N   1      34.811  13.685  18.911  0.00  0.00    -0.166 F 
HETATM   26  F   UNK N   1      33.986  13.613  16.814  0.00  0.00    -0.166 F 
HETATM   27  F   UNK N   1      36.133  14.172  17.159  0.00  0.00    -0.166 F 
ENDBRANCH  23  24
ENDBRANCH   1  18
TORSDOF 4
ENDMDL
MODEL 8
REMARK VINA RESULT:      -6.1      2.361      3.474
REMARK  4 active torsions:
REMARK  status: ('A' for Active; 'I' for Inactive)
REMARK    1  A    between atoms: C_10  and  C_5 
REMARK    2  A    between atoms: N_17  and  C_6 
REMARK    3  A    between atoms: N_19  and  C_7 
REMARK    4  A    between atoms: N_16  and  C_9 
ROOT
HETATM    1  N   UNK N   1      31.712  16.396   8.414  0.00  0.00    -0.299 N 
ATOM      2  HN  UNK N   1      32.328  16.317   7.604  1.00  0.00     0.187 HD
HETATM    3  N   UNK N   1      32.054  15.878   9.496  0.00  0.00    -0.293 N 
ATOM      4  HN  UNK N   1      31.424  15.933  10.297  1.00  0.00     0.187 HD
ENDROOT
BRANCH   3   5
HETATM    5  C   UNK N   1      33.302  15.214   9.634  0.00  0.00     0.138 A 
HETATM    6  C   UNK N   1      34.568  15.801  10.024  0.00  0.00     0.146 A 
HETATM    7  N   UNK N   1      34.803  17.027  10.317  0.00  0.00    -0.382 N 
HETATM    8  N   UNK N   1      35.525  14.769  10.017  0.00  0.00    -0.282 N 
HETATM    9  H   UNK N   1      35.752  17.331  10.577  0.00  0.00     0.157 HD
ATOM     10  HN  UNK N   1      34.043  17.708  10.292  1.00  0.00     0.157 HD
HETATM   11  N   UNK N   1      34.973  13.702   9.679  0.00  0.00    -0.282 N 
ATOM     12  HN  UNK N   1      36.513  14.876  10.250  1.00  0.00     0.188 HD
HETATM   13  C   UNK N   1      33.592  13.927   9.429  0.00  0.00     0.146 A 
ATOM     14  HN  UNK N   1      35.444  12.801   9.595  1.00  0.00     0.188 HD
BRANCH  13  15
HETATM   15  N   UNK N   1      32.687  12.921   9.022  0.00  0.00    -0.382 N 
HETATM   16  H   UNK N   1      32.814  11.993   9.326  0.00  0.00     0.157 HD
HETATM   17  H   UNK N   1      31.931  13.147   8.435  0.00  0.00     0.157 HD
ENDBRANCH  13  15
ENDBRANCH   3   5
BRANCH   1  18
HETATM   18  C   UNK N   1      30.483  17.095   8.289  0.00  0.00     0.063 A 
HETATM   19  C   UNK N   1      29.760  17.472   9.435  0.00  0.00     0.032 A 
HETATM   20  C   UNK N   1      28.569  18.189   9.318  0.00  0.00     0.002 A 
HETATM   21  C   UNK N   1      28.090  18.546   8.058  0.00  0.00     0.001 A 
HETATM   22  C   UNK N   1      28.800  18.183   6.912  0.00  0.00     0.018 A 
HETATM   23  C   UNK N   1      29.995  17.453   7.011  0.00  0.00     0.075 A 
BRANCH  23  24
HETATM   24  C   UNK N   1      30.742  17.071   5.757  0.00  0.00     0.419 C 
HETATM   25  F   UNK N   1      30.089  17.592   4.654  0.00  0.00    -0.166 F 
HETATM   26  F   UNK N   1      30.802  15.695   5.642  0.00  0.00    -0.166 F 
HETATM   27  F   UNK N   1      32.036  17.566   5.778  0.00  0.00    -0.166 F 
ENDBRANCH  23  24
ENDBRANCH   1  18
TORSDOF 4
ENDMDL
MODEL 9
REMARK VINA RESULT:      -6.1      3.285      4.802
REMARK  4 active torsions:
REMARK  status: ('A' for Active; 'I' for Inactive)
REMARK    1  A    between atoms: C_10  and  C_5 
REMARK    2  A    between atoms: N_17  and  C_6 
REMARK    3  A    between atoms: N_19  and  C_7 
REMARK    4  A    between atoms: N_16  and  C_9 
ROOT
HETATM    1  N   UNK N   1      28.412  18.646   5.936  0.00  0.00    -0.299 N 
ATOM      2  HN  UNK N   1      29.254  19.216   5.864  1.00  0.00     0.187 HD
HETATM    3  N   UNK N   1      28.385  17.691   6.739  0.00  0.00    -0.293 N 
ATOM      4  HN  UNK N   1      27.553  17.103   6.790  1.00  0.00     0.187 HD
ENDROOT
BRANCH   3   5
HETATM    5  C   UNK N   1      29.492  17.407   7.584  0.00  0.00     0.138 A 
HETATM    6  C   UNK N   1      30.664  16.622   7.256  0.00  0.00     0.146 A 
HETATM    7  N   UNK N   1      30.926  16.035   6.146  0.00  0.00    -0.382 N 
HETATM    8  N   UNK N   1      31.486  16.603   8.399  0.00  0.00    -0.282 N 
HETATM    9  H   UNK N   1      31.797  15.497   6.031  0.00  0.00     0.157 HD
ATOM     10  HN  UNK N   1      30.267  16.102   5.371  1.00  0.00     0.157 HD
HETATM   11  N   UNK N   1      30.937  17.261   9.306  0.00  0.00    -0.282 N 
ATOM     12  HN  UNK N   1      32.385  16.127   8.474  1.00  0.00     0.188 HD
HETATM   13  C   UNK N   1      29.695  17.779   8.849  0.00  0.00     0.146 A 
ATOM     14  HN  UNK N   1      31.324  17.405  10.239  1.00  0.00     0.188 HD
BRANCH  13  15
HETATM   15  N   UNK N   1      28.826  18.564   9.640  0.00  0.00    -0.382 N 
HETATM   16  H   UNK N   1      29.194  19.171  10.322  0.00  0.00     0.157 HD
HETATM   17  H   UNK N   1      27.852  18.504   9.510  0.00  0.00     0.157 HD
ENDBRANCH  13  15
ENDBRANCH   3   5
BRANCH   1  18
HETATM   18  C   UNK N   1      27.289  18.952   5.122  0.00  0.00     0.063 A 
HETATM   19  C   UNK N   1      26.897  18.076   4.095  0.00  0.00     0.032 A 
HETATM   20  C   UNK N   1      25.775  18.357   3.314  0.00  0.00     0.002 A 
HETATM   21  C   UNK N   1      25.026  19.508   3.556  0.00  0.00     0.001 A 
HETATM   22  C   UNK N   1      25.402  20.383   4.577  0.00  0.00     0.018 A 
HETATM   23  C   UNK N   1      26.534  20.122   5.365  0.00  0.00     0.075 A 
BRANCH  23  24
HETATM   24  C   UNK N   1      26.919  21.085   6.460  0.00  0.00     0.419 C 
HETATM   25  F   UNK N   1      26.901  20.430   7.678  0.00  0.00    -0.166 F 
HETATM   26  F   UNK N   1      26.027  22.141   6.497  0.00  0.00    -0.166 F 
HETATM   27  F   UNK N   1      28.191  21.594   6.251  0.00  0.00    -0.166 F 
ENDBRANCH  23  24
ENDBRANCH   1  18
TORSDOF 4
ENDMDL
