MODEL 1
REMARK VINA RESULT:      -7.0      0.000      0.000
REMARK  5 active torsions:
REMARK  status: ('A' for Active; 'I' for Inactive)
REMARK    1  A    between atoms: C_13  and  C_12 
REMARK    2  A    between atoms: C_14  and  C_12 
REMARK    3  A    between atoms: C_17  and  C_13 
REMARK    4  A    between atoms: N_20  and  C_15 
REMARK    5  A    between atoms: N_21  and  C_16 
ROOT
HETATM    1  C   UNK N   1      20.140  16.441   7.089  0.00  0.00     0.174 A 
HETATM    2  C   UNK N   1      20.129  15.617   5.815  0.00  0.00     0.257 A 
HETATM    3  C   UNK N   1      20.922  17.609   6.538  0.00  0.00     0.257 A 
HETATM    4  N   UNK N   1      20.769  16.237   4.791  0.00  0.00    -0.214 N 
HETATM    5  N   UNK N   1      21.242  17.454   5.232  0.00  0.00    -0.214 N 
HETATM    6  O   UNK N   1      19.645  14.496   5.738  0.00  0.00    -0.270 OA
HETATM    7  O   UNK N   1      21.177  18.615   7.182  0.00  0.00    -0.270 OA
ENDROOT
BRANCH   4   8
HETATM    8  C   UNK N   1      21.006  15.625   3.503  0.00  0.00     0.060 A 
HETATM    9  C   UNK N   1      20.111  15.792   2.433  0.00  0.00     0.031 A 
HETATM   10  C   UNK N   1      20.358  15.212   1.185  0.00  0.00     0.002 A 
HETATM   11  C   UNK N   1      21.520  14.468   0.980  0.00  0.00     0.000 A 
HETATM   12  C   UNK N   1      22.439  14.316   2.019  0.00  0.00     0.002 A 
HETATM   13  C   UNK N   1      22.188  14.897   3.266  0.00  0.00     0.031 A 
ENDBRANCH   4   8
BRANCH   5  14
HETATM   14  C   UNK N   1      21.869  18.492   4.452  0.00  0.00     0.060 A 
HETATM   15  C   UNK N   1      21.082  19.356   3.667  0.00  0.00     0.031 A 
HETATM   16  C   UNK N   1      21.670  20.338   2.867  0.00  0.00     0.002 A 
HETATM   17  C   UNK N   1      23.058  20.458   2.821  0.00  0.00     0.000 A 
HETATM   18  C   UNK N   1      23.857  19.591   3.568  0.00  0.00     0.002 A 
HETATM   19  C   UNK N   1      23.265  18.610   4.369  0.00  0.00     0.031 A 
ENDBRANCH   5  14
BRANCH   1  20
HETATM   20  C   UNK N   1      20.944  15.763   8.192  0.00  0.00     0.031 C 
BRANCH  20  21
HETATM   21  C   UNK N   1      20.039  15.080   9.215  0.00  0.00     0.079 C 
BRANCH  21  22
HETATM   22  C   UNK N   1      20.618  13.851   9.871  0.00  0.00     0.123 C 
HETATM   23  C   UNK N   1      22.084  13.569   9.888  0.00  0.00     0.091 C 
HETATM   24  O   UNK N   1      19.862  13.053  10.398  0.00  0.00    -0.298 OA
ENDBRANCH  21  22
ENDBRANCH  20  21
ENDBRANCH   1  20
TORSDOF 5
ENDMDL
MODEL 2
REMARK VINA RESULT:      -6.9      1.212      3.851
REMARK  5 active torsions:
REMARK  status: ('A' for Active; 'I' for Inactive)
REMARK    1  A    between atoms: C_13  and  C_12 
REMARK    2  A    between atoms: C_14  and  C_12 
REMARK    3  A    between atoms: C_17  and  C_13 
REMARK    4  A    between atoms: N_20  and  C_15 
REMARK    5  A    between atoms: N_21  and  C_16 
ROOT
HETATM    1  C   UNK N   1      21.735  16.137   6.890  0.00  0.00     0.174 A 
HETATM    2  C   UNK N   1      21.611  17.466   6.168  0.00  0.00     0.257 A 
HETATM    3  C   UNK N   1      22.030  15.299   5.669  0.00  0.00     0.257 A 
HETATM    4  N   UNK N   1      21.814  17.350   4.830  0.00  0.00    -0.214 N 
HETATM    5  N   UNK N   1      22.079  16.030   4.533  0.00  0.00    -0.214 N 
HETATM    6  O   UNK N   1      21.306  18.512   6.723  0.00  0.00    -0.270 OA
HETATM    7  O   UNK N   1      22.269  14.101   5.714  0.00  0.00    -0.270 OA
ENDROOT
BRANCH   4   8
HETATM    8  C   UNK N   1      21.639  18.437   3.894  0.00  0.00     0.060 A 
HETATM    9  C   UNK N   1      20.396  18.701   3.297  0.00  0.00     0.031 A 
HETATM   10  C   UNK N   1      20.231  19.767   2.407  0.00  0.00     0.002 A 
HETATM   11  C   UNK N   1      21.309  20.602   2.114  0.00  0.00     0.000 A 
HETATM   12  C   UNK N   1      22.545  20.379   2.721  0.00  0.00     0.002 A 
HETATM   13  C   UNK N   1      22.706  19.311   3.610  0.00  0.00     0.031 A 
ENDBRANCH   4   8
BRANCH   5  14
HETATM   14  C   UNK N   1      22.476  15.476   3.262  0.00  0.00     0.060 A 
HETATM   15  C   UNK N   1      21.498  15.057   2.339  0.00  0.00     0.031 A 
HETATM   16  C   UNK N   1      21.858  14.474   1.123  0.00  0.00     0.002 A 
HETATM   17  C   UNK N   1      23.204  14.278   0.818  0.00  0.00     0.000 A 
HETATM   18  C   UNK N   1      24.187  14.656   1.732  0.00  0.00     0.002 A 
HETATM   19  C   UNK N   1      23.824  15.242   2.949  0.00  0.00     0.031 A 
ENDBRANCH   5  14
BRANCH   1  20
HETATM   20  C   UNK N   1      20.409  15.700   7.500  0.00  0.00     0.031 C 
BRANCH  20  21
HETATM   21  C   UNK N   1      20.474  15.658   9.025  0.00  0.00     0.079 C 
BRANCH  21  22
HETATM   22  C   UNK N   1      20.549  14.278   9.632  0.00  0.00     0.123 C 
HETATM   23  C   UNK N   1      21.846  13.578   9.864  0.00  0.00     0.091 C 
HETATM   24  O   UNK N   1      19.514  13.710   9.934  0.00  0.00    -0.298 OA
ENDBRANCH  21  22
ENDBRANCH  20  21
ENDBRANCH   1  20
TORSDOF 5
ENDMDL
MODEL 3
REMARK VINA RESULT:      -6.6      1.764      4.331
REMARK  5 active torsions:
REMARK  status: ('A' for Active; 'I' for Inactive)
REMARK    1  A    between atoms: C_13  and  C_12 
REMARK    2  A    between atoms: C_14  and  C_12 
REMARK    3  A    between atoms: C_17  and  C_13 
REMARK    4  A    between atoms: N_20  and  C_15 
REMARK    5  A    between atoms: N_21  and  C_16 
ROOT
HETATM    1  C   UNK N   1      21.432  16.287   6.928  0.00  0.00     0.174 A 
HETATM    2  C   UNK N   1      21.397  17.618   6.199  0.00  0.00     0.257 A 
HETATM    3  C   UNK N   1      21.760  15.435   5.725  0.00  0.00     0.257 A 
HETATM    4  N   UNK N   1      21.667  17.491   4.874  0.00  0.00    -0.214 N 
HETATM    5  N   UNK N   1      21.897  16.161   4.592  0.00  0.00    -0.214 N 
HETATM    6  O   UNK N   1      21.103  18.677   6.737  0.00  0.00    -0.270 OA
HETATM    7  O   UNK N   1      21.951  14.230   5.783  0.00  0.00    -0.270 OA
ENDROOT
BRANCH   4   8
HETATM    8  C   UNK N   1      21.584  18.581   3.929  0.00  0.00     0.060 A 
HETATM    9  C   UNK N   1      22.701  19.375   3.622  0.00  0.00     0.031 A 
HETATM   10  C   UNK N   1      22.617  20.416   2.693  0.00  0.00     0.002 A 
HETATM   11  C   UNK N   1      21.412  20.668   2.037  0.00  0.00     0.000 A 
HETATM   12  C   UNK N   1      20.298  19.871   2.301  0.00  0.00     0.002 A 
HETATM   13  C   UNK N   1      20.386  18.831   3.233  0.00  0.00     0.031 A 
ENDBRANCH   4   8
BRANCH   5  14
HETATM   14  C   UNK N   1      22.340  15.589   3.345  0.00  0.00     0.060 A 
HETATM   15  C   UNK N   1      21.397  15.170   2.387  0.00  0.00     0.031 A 
HETATM   16  C   UNK N   1      21.800  14.570   1.193  0.00  0.00     0.002 A 
HETATM   17  C   UNK N   1      23.156  14.357   0.945  0.00  0.00     0.000 A 
HETATM   18  C   UNK N   1      24.105  14.735   1.895  0.00  0.00     0.002 A 
HETATM   19  C   UNK N   1      23.698  15.338   3.090  0.00  0.00     0.031 A 
ENDBRANCH   5  14
BRANCH   1  20
HETATM   20  C   UNK N   1      20.060  15.903   7.466  0.00  0.00     0.031 C 
BRANCH  20  21
HETATM   21  C   UNK N   1      19.886  16.320   8.925  0.00  0.00     0.079 C 
BRANCH  21  22
HETATM   22  C   UNK N   1      18.867  17.405   9.170  0.00  0.00     0.123 C 
HETATM   23  C   UNK N   1      17.401  17.178   8.994  0.00  0.00     0.091 C 
HETATM   24  O   UNK N   1      19.251  18.508   9.516  0.00  0.00    -0.298 OA
ENDBRANCH  21  22
ENDBRANCH  20  21
ENDBRANCH   1  20
TORSDOF 5
ENDMDL
MODEL 4
REMARK VINA RESULT:      -6.6      8.788     11.168
REMARK  5 active torsions:
REMARK  status: ('A' for Active; 'I' for Inactive)
REMARK    1  A    between atoms: C_13  and  C_12 
REMARK    2  A    between atoms: C_14  and  C_12 
REMARK    3  A    between atoms: C_17  and  C_13 
REMARK    4  A    between atoms: N_20  and  C_15 
REMARK    5  A    between atoms: N_21  and  C_16 
ROOT
HETATM    1  C   UNK N   1      28.614  17.854   7.280  0.00  0.00     0.174 A 
HETATM    2  C   UNK N   1      29.808  17.650   8.196  0.00  0.00     0.257 A 
HETATM    3  C   UNK N   1      29.310  17.473   5.995  0.00  0.00     0.257 A 
HETATM    4  N   UNK N   1      30.911  17.232   7.523  0.00  0.00    -0.214 N 
HETATM    5  N   UNK N   1      30.601  17.116   6.186  0.00  0.00    -0.214 N 
HETATM    6  O   UNK N   1      29.790  17.890   9.395  0.00  0.00    -0.270 OA
HETATM    7  O   UNK N   1      28.747  17.426   4.912  0.00  0.00    -0.270 OA
ENDROOT
BRANCH   4   8
HETATM    8  C   UNK N   1      32.212  17.075   8.134  0.00  0.00     0.060 A 
HETATM    9  C   UNK N   1      32.570  15.898   8.812  0.00  0.00     0.031 A 
HETATM   10  C   UNK N   1      33.837  15.748   9.382  0.00  0.00     0.002 A 
HETATM   11  C   UNK N   1      34.779  16.770   9.266  0.00  0.00     0.000 A 
HETATM   12  C   UNK N   1      34.458  17.934   8.568  0.00  0.00     0.002 A 
HETATM   13  C   UNK N   1      33.188  18.082   7.999  0.00  0.00     0.031 A 
ENDBRANCH   4   8
BRANCH   5  14
HETATM   14  C   UNK N   1      31.429  16.587   5.131  0.00  0.00     0.060 A 
HETATM   15  C   UNK N   1      32.101  17.462   4.256  0.00  0.00     0.031 A 
HETATM   16  C   UNK N   1      32.870  16.973   3.198  0.00  0.00     0.002 A 
HETATM   17  C   UNK N   1      32.963  15.598   2.984  0.00  0.00     0.000 A 
HETATM   18  C   UNK N   1      32.280  14.715   3.820  0.00  0.00     0.002 A 
HETATM   19  C   UNK N   1      31.511  15.208   4.880  0.00  0.00     0.031 A 
ENDBRANCH   5  14
BRANCH   1  20
HETATM   20  C   UNK N   1      28.193  19.316   7.220  0.00  0.00     0.031 C 
BRANCH  20  21
HETATM   21  C   UNK N   1      26.919  19.506   6.400  0.00  0.00     0.079 C 
BRANCH  21  22
HETATM   22  C   UNK N   1      26.975  20.597   5.360  0.00  0.00     0.123 C 
HETATM   23  C   UNK N   1      26.883  20.312   3.897  0.00  0.00     0.091 C 
HETATM   24  O   UNK N   1      27.109  21.752   5.724  0.00  0.00    -0.298 OA
ENDBRANCH  21  22
ENDBRANCH  20  21
ENDBRANCH   1  20
TORSDOF 5
ENDMDL
MODEL 5
REMARK VINA RESULT:      -6.4     13.730     15.759
REMARK  5 active torsions:
REMARK  status: ('A' for Active; 'I' for Inactive)
REMARK    1  A    between atoms: C_13  and  C_12 
REMARK    2  A    between atoms: C_14  and  C_12 
REMARK    3  A    between atoms: C_17  and  C_13 
REMARK    4  A    between atoms: N_20  and  C_15 
REMARK    5  A    between atoms: N_21  and  C_16 
ROOT
HETATM    1  C   UNK N   1      27.886  26.967  -6.815  0.00  0.00     0.174 A 
HETATM    2  C   UNK N   1      27.197  25.776  -7.457  0.00  0.00     0.257 A 
HETATM    3  C   UNK N   1      28.521  26.210  -5.673  0.00  0.00     0.257 A 
HETATM    4  N   UNK N   1      27.435  24.618  -6.788  0.00  0.00    -0.214 N 
HETATM    5  N   UNK N   1      28.249  24.886  -5.709  0.00  0.00    -0.214 N 
HETATM    6  O   UNK N   1      26.465  25.862  -8.433  0.00  0.00    -0.270 OA
HETATM    7  O   UNK N   1      29.258  26.728  -4.847  0.00  0.00    -0.270 OA
ENDROOT
BRANCH   4   8
HETATM    8  C   UNK N   1      26.807  23.358  -7.115  0.00  0.00     0.060 A 
HETATM    9  C   UNK N   1      25.562  22.995  -6.576  0.00  0.00     0.031 A 
HETATM   10  C   UNK N   1      24.953  21.782  -6.913  0.00  0.00     0.002 A 
HETATM   11  C   UNK N   1      25.573  20.918  -7.815  0.00  0.00     0.000 A 
HETATM   12  C   UNK N   1      26.794  21.273  -8.389  0.00  0.00     0.002 A 
HETATM   13  C   UNK N   1      27.401  22.487  -8.049  0.00  0.00     0.031 A 
ENDBRANCH   4   8
BRANCH   5  14
HETATM   14  C   UNK N   1      28.852  23.939  -4.803  0.00  0.00     0.060 A 
HETATM   15  C   UNK N   1      28.472  23.921  -3.447  0.00  0.00     0.031 A 
HETATM   16  C   UNK N   1      29.076  23.047  -2.542  0.00  0.00     0.002 A 
HETATM   17  C   UNK N   1      30.087  22.189  -2.972  0.00  0.00     0.000 A 
HETATM   18  C   UNK N   1      30.500  22.214  -4.305  0.00  0.00     0.002 A 
HETATM   19  C   UNK N   1      29.893  23.089  -5.210  0.00  0.00     0.031 A 
ENDBRANCH   5  14
BRANCH   1  20
HETATM   20  C   UNK N   1      26.881  27.971  -6.267  0.00  0.00     0.031 C 
BRANCH  20  21
HETATM   21  C   UNK N   1      26.046  27.377  -5.134  0.00  0.00     0.079 C 
BRANCH  21  22
HETATM   22  C   UNK N   1      25.926  28.236  -3.900  0.00  0.00     0.123 C 
HETATM   23  C   UNK N   1      26.371  29.661  -3.872  0.00  0.00     0.091 C 
HETATM   24  O   UNK N   1      25.460  27.749  -2.885  0.00  0.00    -0.298 OA
ENDBRANCH  21  22
ENDBRANCH  20  21
ENDBRANCH   1  20
TORSDOF 5
ENDMDL
MODEL 6
REMARK VINA RESULT:      -6.3     16.179     18.129
REMARK  5 active torsions:
REMARK  status: ('A' for Active; 'I' for Inactive)
REMARK    1  A    between atoms: C_13  and  C_12 
REMARK    2  A    between atoms: C_14  and  C_12 
REMARK    3  A    between atoms: C_17  and  C_13 
REMARK    4  A    between atoms: N_20  and  C_15 
REMARK    5  A    between atoms: N_21  and  C_16 
ROOT
HETATM    1  C   UNK N   1      35.861  12.245  16.200  0.00  0.00     0.174 A 
HETATM    2  C   UNK N   1      36.530  12.975  15.051  0.00  0.00     0.257 A 
HETATM    3  C   UNK N   1      35.208  11.167  15.369  0.00  0.00     0.257 A 
HETATM    4  N   UNK N   1      36.287  12.387  13.851  0.00  0.00    -0.214 N 
HETATM    5  N   UNK N   1      35.489  11.281  14.051  0.00  0.00    -0.214 N 
HETATM    6  O   UNK N   1      37.171  14.009  15.186  0.00  0.00    -0.270 OA
HETATM    7  O   UNK N   1      34.554  10.251  15.845  0.00  0.00    -0.270 OA
ENDROOT
BRANCH   4   8
HETATM    8  C   UNK N   1      36.706  12.942  12.584  0.00  0.00     0.060 A 
HETATM    9  C   UNK N   1      37.780  12.396  11.861  0.00  0.00     0.031 A 
HETATM   10  C   UNK N   1      38.167  12.928  10.627  0.00  0.00     0.002 A 
HETATM   11  C   UNK N   1      37.470  14.007  10.084  0.00  0.00     0.000 A 
HETATM   12  C   UNK N   1      36.379  14.544  10.769  0.00  0.00     0.002 A 
HETATM   13  C   UNK N   1      35.996  14.010  12.004  0.00  0.00     0.031 A 
ENDBRANCH   4   8
BRANCH   5  14
HETATM   14  C   UNK N   1      35.091  10.294  13.078  0.00  0.00     0.060 A 
HETATM   15  C   UNK N   1      33.909  10.475  12.334  0.00  0.00     0.031 A 
HETATM   16  C   UNK N   1      33.478   9.511  11.421  0.00  0.00     0.002 A 
HETATM   17  C   UNK N   1      34.210   8.336  11.252  0.00  0.00     0.000 A 
HETATM   18  C   UNK N   1      35.366   8.123  12.003  0.00  0.00     0.002 A 
HETATM   19  C   UNK N   1      35.797   9.091  12.916  0.00  0.00     0.031 A 
ENDBRANCH   5  14
BRANCH   1  20
HETATM   20  C   UNK N   1      34.787  13.100  16.862  0.00  0.00     0.031 C 
BRANCH  20  21
HETATM   21  C   UNK N   1      35.307  13.785  18.124  0.00  0.00     0.079 C 
BRANCH  21  22
HETATM   22  C   UNK N   1      35.058  13.040  19.413  0.00  0.00     0.123 C 
HETATM   23  C   UNK N   1      35.407  11.599  19.583  0.00  0.00     0.091 C 
HETATM   24  O   UNK N   1      34.545  13.632  20.346  0.00  0.00    -0.298 OA
ENDBRANCH  21  22
ENDBRANCH  20  21
ENDBRANCH   1  20
TORSDOF 5
ENDMDL
MODEL 7
REMARK VINA RESULT:      -6.3     15.767     17.291
REMARK  5 active torsions:
REMARK  status: ('A' for Active; 'I' for Inactive)
REMARK    1  A    between atoms: C_13  and  C_12 
REMARK    2  A    between atoms: C_14  and  C_12 
REMARK    3  A    between atoms: C_17  and  C_13 
REMARK    4  A    between atoms: N_20  and  C_15 
REMARK    5  A    between atoms: N_21  and  C_16 
ROOT
HETATM    1  C   UNK N   1      34.772  12.858  15.148  0.00  0.00     0.174 A 
HETATM    2  C   UNK N   1      34.258  11.580  14.510  0.00  0.00     0.257 A 
HETATM    3  C   UNK N   1      35.705  13.252  14.028  0.00  0.00     0.257 A 
HETATM    4  N   UNK N   1      34.805  11.354  13.288  0.00  0.00    -0.214 N 
HETATM    5  N   UNK N   1      35.678  12.380  12.994  0.00  0.00    -0.214 N 
HETATM    6  O   UNK N   1      33.481  10.813  15.061  0.00  0.00    -0.270 OA
HETATM    7  O   UNK N   1      36.360  14.283  14.026  0.00  0.00    -0.270 OA
ENDROOT
BRANCH   4   8
HETATM    8  C   UNK N   1      34.580  10.153  12.516  0.00  0.00     0.060 A 
HETATM    9  C   UNK N   1      35.291   8.969  12.772  0.00  0.00     0.031 A 
HETATM   10  C   UNK N   1      35.052   7.807  12.034  0.00  0.00     0.002 A 
HETATM   11  C   UNK N   1      34.079   7.804  11.034  0.00  0.00     0.000 A 
HETATM   12  C   UNK N   1      33.337   8.959  10.785  0.00  0.00     0.002 A 
HETATM   13  C   UNK N   1      33.579  10.120  11.526  0.00  0.00     0.031 A 
ENDBRANCH   4   8
BRANCH   5  14
HETATM   14  C   UNK N   1      36.381  12.612  11.757  0.00  0.00     0.060 A 
HETATM   15  C   UNK N   1      35.717  13.214  10.671  0.00  0.00     0.031 A 
HETATM   16  C   UNK N   1      36.362  13.406   9.448  0.00  0.00     0.002 A 
HETATM   17  C   UNK N   1      37.679  12.978   9.282  0.00  0.00     0.000 A 
HETATM   18  C   UNK N   1      38.344  12.350  10.335  0.00  0.00     0.002 A 
HETATM   19  C   UNK N   1      37.696  12.161  11.560  0.00  0.00     0.031 A 
ENDBRANCH   5  14
BRANCH   1  20
HETATM   20  C   UNK N   1      35.578  12.574  16.408  0.00  0.00     0.031 C 
BRANCH  20  21
HETATM   21  C   UNK N   1      35.080  13.393  17.597  0.00  0.00     0.079 C 
BRANCH  21  22
HETATM   22  C   UNK N   1      35.202  12.722  18.943  0.00  0.00     0.123 C 
HETATM   23  C   UNK N   1      35.470  11.260  19.084  0.00  0.00     0.091 C 
HETATM   24  O   UNK N   1      35.069  13.393  19.951  0.00  0.00    -0.298 OA
ENDBRANCH  21  22
ENDBRANCH  20  21
ENDBRANCH   1  20
TORSDOF 5
ENDMDL
MODEL 8
REMARK VINA RESULT:      -6.2     13.938     16.105
REMARK  5 active torsions:
REMARK  status: ('A' for Active; 'I' for Inactive)
REMARK    1  A    between atoms: C_13  and  C_12 
REMARK    2  A    between atoms: C_14  and  C_12 
REMARK    3  A    between atoms: C_17  and  C_13 
REMARK    4  A    between atoms: N_20  and  C_15 
REMARK    5  A    between atoms: N_21  and  C_16 
ROOT
HETATM    1  C   UNK N   1      25.222  25.290  -5.289  0.00  0.00     0.174 A 
HETATM    2  C   UNK N   1      26.379  25.097  -4.326  0.00  0.00     0.257 A 
HETATM    3  C   UNK N   1      25.881  24.651  -6.488  0.00  0.00     0.257 A 
HETATM    4  N   UNK N   1      27.435  24.468  -4.904  0.00  0.00    -0.214 N 
HETATM    5  N   UNK N   1      27.123  24.189  -6.217  0.00  0.00    -0.214 N 
HETATM    6  O   UNK N   1      26.380  25.512  -3.176  0.00  0.00    -0.270 OA
HETATM    7  O   UNK N   1      25.325  24.504  -7.566  0.00  0.00    -0.270 OA
ENDROOT
BRANCH   4   8
HETATM    8  C   UNK N   1      28.706  24.263  -4.247  0.00  0.00     0.060 A 
HETATM    9  C   UNK N   1      28.967  23.108  -3.493  0.00  0.00     0.031 A 
HETATM   10  C   UNK N   1      30.207  22.910  -2.877  0.00  0.00     0.002 A 
HETATM   11  C   UNK N   1      31.217  23.860  -3.022  0.00  0.00     0.000 A 
HETATM   12  C   UNK N   1      30.991  25.000  -3.795  0.00  0.00     0.002 A 
HETATM   13  C   UNK N   1      29.750  25.195  -4.409  0.00  0.00     0.031 A 
ENDBRANCH   4   8
BRANCH   5  14
HETATM   14  C   UNK N   1      27.896  23.423  -7.163  0.00  0.00     0.060 A 
HETATM   15  C   UNK N   1      27.829  22.017  -7.154  0.00  0.00     0.031 A 
HETATM   16  C   UNK N   1      28.603  21.252  -8.028  0.00  0.00     0.002 A 
HETATM   17  C   UNK N   1      29.478  21.882  -8.914  0.00  0.00     0.000 A 
HETATM   18  C   UNK N   1      29.583  23.273  -8.917  0.00  0.00     0.002 A 
HETATM   19  C   UNK N   1      28.804  24.036  -8.041  0.00  0.00     0.031 A 
ENDBRANCH   5  14
BRANCH   1  20
HETATM   20  C   UNK N   1      24.965  26.764  -5.573  0.00  0.00     0.031 C 
BRANCH  20  21
HETATM   21  C   UNK N   1      26.239  27.490  -6.000  0.00  0.00     0.079 C 
BRANCH  21  22
HETATM   22  C   UNK N   1      26.641  28.657  -5.132  0.00  0.00     0.123 C 
HETATM   23  C   UNK N   1      27.764  29.572  -5.494  0.00  0.00     0.091 C 
HETATM   24  O   UNK N   1      26.036  28.855  -4.093  0.00  0.00    -0.298 OA
ENDBRANCH  21  22
ENDBRANCH  20  21
ENDBRANCH   1  20
TORSDOF 5
ENDMDL
MODEL 9
REMARK VINA RESULT:      -6.1     13.750     16.425
REMARK  5 active torsions:
REMARK  status: ('A' for Active; 'I' for Inactive)
REMARK    1  A    between atoms: C_13  and  C_12 
REMARK    2  A    between atoms: C_14  and  C_12 
REMARK    3  A    between atoms: C_17  and  C_13 
REMARK    4  A    between atoms: N_20  and  C_15 
REMARK    5  A    between atoms: N_21  and  C_16 
ROOT
HETATM    1  C   UNK N   1      25.988  26.496  -4.250  0.00  0.00     0.174 A 
HETATM    2  C   UNK N   1      27.292  27.264  -4.369  0.00  0.00     0.257 A 
HETATM    3  C   UNK N   1      26.603  25.121  -4.142  0.00  0.00     0.257 A 
HETATM    4  N   UNK N   1      28.379  26.452  -4.320  0.00  0.00    -0.214 N 
HETATM    5  N   UNK N   1      27.955  25.149  -4.171  0.00  0.00    -0.214 N 
HETATM    6  O   UNK N   1      27.351  28.473  -4.546  0.00  0.00    -0.270 OA
HETATM    7  O   UNK N   1      25.951  24.101  -3.974  0.00  0.00    -0.270 OA
ENDROOT
BRANCH   4   8
HETATM    8  C   UNK N   1      29.734  26.910  -4.527  0.00  0.00     0.060 A 
HETATM    9  C   UNK N   1      30.508  27.418  -3.471  0.00  0.00     0.031 A 
HETATM   10  C   UNK N   1      31.825  27.841  -3.677  0.00  0.00     0.002 A 
HETATM   11  C   UNK N   1      32.398  27.743  -4.944  0.00  0.00     0.000 A 
HETATM   12  C   UNK N   1      31.659  27.211  -6.001  0.00  0.00     0.002 A 
HETATM   13  C   UNK N   1      30.341  26.789  -5.791  0.00  0.00     0.031 A 
ENDBRANCH   4   8
BRANCH   5  14
HETATM   14  C   UNK N   1      28.766  23.978  -3.950  0.00  0.00     0.060 A 
HETATM   15  C   UNK N   1      29.272  23.703  -2.665  0.00  0.00     0.031 A 
HETATM   16  C   UNK N   1      30.098  22.601  -2.436  0.00  0.00     0.002 A 
HETATM   17  C   UNK N   1      30.453  21.766  -3.495  0.00  0.00     0.000 A 
HETATM   18  C   UNK N   1      29.988  22.039  -4.782  0.00  0.00     0.002 A 
HETATM   19  C   UNK N   1      29.159  23.142  -5.008  0.00  0.00     0.031 A 
ENDBRANCH   5  14
BRANCH   1  20
HETATM   20  C   UNK N   1      25.162  26.587  -5.526  0.00  0.00     0.031 C 
BRANCH  20  21
HETATM   21  C   UNK N   1      26.039  26.532  -6.775  0.00  0.00     0.079 C 
BRANCH  21  22
HETATM   22  C   UNK N   1      25.701  25.437  -7.756  0.00  0.00     0.123 C 
HETATM   23  C   UNK N   1      25.714  25.656  -9.233  0.00  0.00     0.091 C 
HETATM   24  O   UNK N   1      25.397  24.337  -7.330  0.00  0.00    -0.298 OA
ENDBRANCH  21  22
ENDBRANCH  20  21
ENDBRANCH   1  20
TORSDOF 5
ENDMDL
