MODEL 1
REMARK VINA RESULT:      -6.3      0.000      0.000
REMARK  7 active torsions:
REMARK  status: ('A' for Active; 'I' for Inactive)
REMARK    1  A    between atoms: C_7  and  C_5 
REMARK    2  A    between atoms: C_9  and  C_5 
REMARK    3  A    between atoms: C_11  and  C_9 
REMARK    4  A    between atoms: C_9  and  N_12 
REMARK    5  A    between atoms: O_15  and  C_11 
REMARK    6  A    between atoms: O_17  and  N_13 
REMARK    7  A    between atoms: O_17  and  O_16 
ROOT
HETATM    1  C   UNK N   1      31.308  16.827   3.908  0.00  0.00     0.001 A 
HETATM    2  C   UNK N   1      32.649  17.189   3.655  0.00  0.00     0.002 A 
HETATM    3  C   UNK N   1      30.799  16.842   5.221  0.00  0.00     0.014 A 
HETATM    4  C   UNK N   1      33.492  17.567   4.714  0.00  0.00     0.033 A 
HETATM    5  C   UNK N   1      32.686  17.795   8.150  0.00  0.00     0.134 A 
HETATM    6  C   UNK N   1      31.465  17.367   7.630  0.00  0.00    -0.025 A 
HETATM    7  C   UNK N   1      31.654  17.226   6.255  0.00  0.00     0.001 A 
HETATM    8  C   UNK N   1      32.955  17.573   6.000  0.00  0.00     0.075 A 
HETATM    9  N   UNK N   1      33.577  17.905   7.140  0.00  0.00    -0.201 N 
ENDROOT
BRANCH   6  10
HETATM   10  C   UNK N   1      30.248  17.163   8.500  0.00  0.00     0.076 C 
BRANCH  10  11
HETATM   11  C   UNK N   1      29.557  18.378   9.122  0.00  0.00     0.177 C 
BRANCH  11  12
HETATM   12  C   UNK N   1      28.067  18.199   8.977  0.00  0.00     0.163 C 
HETATM   13  O   UNK N   1      27.505  17.229   9.464  0.00  0.00    -0.648 OA
BRANCH  12  14
HETATM   14  O   UNK N   1      27.344  19.110   8.297  0.00  0.00    -0.775 OA
HETATM   15  H   UNK N   1      27.507  19.504   7.463  0.00  0.00     0.167 HD
ENDBRANCH  12  14
ENDBRANCH  11  12
BRANCH  11  16
HETATM   16  N   UNK N   1      29.900  18.500  10.531  0.00  0.00    -0.417 N 
HETATM   17  H   UNK N   1      29.770  19.248  11.212  0.00  0.00     0.150 HD
HETATM   18  H   UNK N   1      30.362  17.675  10.913  0.00  0.00     0.150 HD
ENDBRANCH  11  16
ENDBRANCH  10  11
ENDBRANCH   6  10
BRANCH   9  19
HETATM   19  O   UNK N   1      34.865  18.309   7.262  0.00  0.00    -0.108 OA
BRANCH  19  20
HETATM   20  O   UNK N   1      34.871  19.121   8.301  0.00  0.00    -0.226 OA
HETATM   21  H   UNK N   1      35.128  19.494   9.159  0.00  0.00     0.256 HD
ENDBRANCH  19  20
ENDBRANCH   9  19
TORSDOF 7
ENDMDL
MODEL 2
REMARK VINA RESULT:      -6.2      7.775      9.678
REMARK  7 active torsions:
REMARK  status: ('A' for Active; 'I' for Inactive)
REMARK    1  A    between atoms: C_7  and  C_5 
REMARK    2  A    between atoms: C_9  and  C_5 
REMARK    3  A    between atoms: C_11  and  C_9 
REMARK    4  A    between atoms: C_9  and  N_12 
REMARK    5  A    between atoms: O_15  and  C_11 
REMARK    6  A    between atoms: O_17  and  N_13 
REMARK    7  A    between atoms: O_17  and  O_16 
ROOT
HETATM    1  C   UNK N   1      34.176  10.757  14.941  0.00  0.00     0.001 A 
HETATM    2  C   UNK N   1      34.831  10.968  16.174  0.00  0.00     0.002 A 
HETATM    3  C   UNK N   1      34.367  11.651  13.870  0.00  0.00     0.014 A 
HETATM    4  C   UNK N   1      35.680  12.075  16.346  0.00  0.00     0.033 A 
HETATM    5  C   UNK N   1      36.504  14.562  13.970  0.00  0.00     0.134 A 
HETATM    6  C   UNK N   1      35.633  13.771  13.220  0.00  0.00    -0.025 A 
HETATM    7  C   UNK N   1      35.219  12.739  14.062  0.00  0.00     0.001 A 
HETATM    8  C   UNK N   1      35.848  12.936  15.263  0.00  0.00     0.075 A 
HETATM    9  N   UNK N   1      36.612  14.037  15.210  0.00  0.00    -0.201 N 
ENDROOT
BRANCH   6  10
HETATM   10  C   UNK N   1      35.311  14.077  11.776  0.00  0.00     0.076 C 
BRANCH  10  11
HETATM   11  C   UNK N   1      34.638  15.404  11.421  0.00  0.00     0.177 C 
BRANCH  11  12
HETATM   12  C   UNK N   1      35.661  16.287  10.751  0.00  0.00     0.163 C 
HETATM   13  O   UNK N   1      35.319  17.301  10.162  0.00  0.00    -0.648 OA
BRANCH  12  14
HETATM   14  O   UNK N   1      36.966  15.954  10.792  0.00  0.00    -0.775 OA
HETATM   15  H   UNK N   1      37.437  15.449  11.426  0.00  0.00     0.167 HD
ENDBRANCH  12  14
ENDBRANCH  11  12
BRANCH  11  16
HETATM   16  N   UNK N   1      33.515  15.187  10.522  0.00  0.00    -0.417 N 
HETATM   17  H   UNK N   1      32.976  14.356  10.277  0.00  0.00     0.150 HD
HETATM   18  H   UNK N   1      33.207  16.031  10.041  0.00  0.00     0.150 HD
ENDBRANCH  11  16
ENDBRANCH  10  11
ENDBRANCH   6  10
BRANCH   9  19
HETATM   19  O   UNK N   1      37.382  14.527  16.212  0.00  0.00    -0.108 OA
BRANCH  19  20
HETATM   20  O   UNK N   1      37.661  15.765  15.854  0.00  0.00    -0.226 OA
HETATM   21  H   UNK N   1      37.841  16.714  15.937  0.00  0.00     0.256 HD
ENDBRANCH  19  20
ENDBRANCH   9  19
TORSDOF 7
ENDMDL
MODEL 3
REMARK VINA RESULT:      -5.9     11.130     12.810
REMARK  7 active torsions:
REMARK  status: ('A' for Active; 'I' for Inactive)
REMARK    1  A    between atoms: C_7  and  C_5 
REMARK    2  A    between atoms: C_9  and  C_5 
REMARK    3  A    between atoms: C_11  and  C_9 
REMARK    4  A    between atoms: C_9  and  N_12 
REMARK    5  A    between atoms: O_15  and  C_11 
REMARK    6  A    between atoms: O_17  and  N_13 
REMARK    7  A    between atoms: O_17  and  O_16 
ROOT
HETATM    1  C   UNK N   1      35.017   8.960  17.369  0.00  0.00     0.001 A 
HETATM    2  C   UNK N   1      35.144   9.007  18.774  0.00  0.00     0.002 A 
HETATM    3  C   UNK N   1      35.004  10.149  16.614  0.00  0.00     0.014 A 
HETATM    4  C   UNK N   1      35.257  10.242  19.436  0.00  0.00     0.033 A 
HETATM    5  C   UNK N   1      35.311  13.472  17.996  0.00  0.00     0.134 A 
HETATM    6  C   UNK N   1      35.169  12.686  16.853  0.00  0.00    -0.025 A 
HETATM    7  C   UNK N   1      35.123  11.362  17.292  0.00  0.00     0.001 A 
HETATM    8  C   UNK N   1      35.243  11.397  18.656  0.00  0.00     0.075 A 
HETATM    9  N   UNK N   1      35.346  12.665  19.080  0.00  0.00    -0.201 N 
ENDROOT
BRANCH   6  10
HETATM   10  C   UNK N   1      35.116  13.285  15.467  0.00  0.00     0.076 C 
BRANCH  10  11
HETATM   11  C   UNK N   1      36.403  13.398  14.648  0.00  0.00     0.177 C 
BRANCH  11  12
HETATM   12  C   UNK N   1      36.034  13.812  13.246  0.00  0.00     0.163 C 
HETATM   13  O   UNK N   1      34.864  13.850  12.894  0.00  0.00    -0.648 OA
BRANCH  12  14
HETATM   14  O   UNK N   1      37.001  14.135  12.365  0.00  0.00    -0.775 OA
HETATM   15  H   UNK N   1      37.027  14.822  11.729  0.00  0.00     0.167 HD
ENDBRANCH  12  14
ENDBRANCH  11  12
BRANCH  11  16
HETATM   16  N   UNK N   1      37.298  14.386  15.230  0.00  0.00    -0.417 N 
HETATM   17  H   UNK N   1      38.274  14.623  15.053  0.00  0.00     0.150 HD
HETATM   18  H   UNK N   1      36.865  14.952  15.959  0.00  0.00     0.150 HD
ENDBRANCH  11  16
ENDBRANCH  10  11
ENDBRANCH   6  10
BRANCH   9  19
HETATM   19  O   UNK N   1      35.489  13.072  20.365  0.00  0.00    -0.108 OA
BRANCH  19  20
HETATM   20  O   UNK N   1      34.374  13.718  20.644  0.00  0.00    -0.226 OA
HETATM   21  H   UNK N   1      33.621  14.318  20.529  0.00  0.00     0.256 HD
ENDBRANCH  19  20
ENDBRANCH   9  19
TORSDOF 7
ENDMDL
MODEL 4
REMARK VINA RESULT:      -5.9      1.742      5.097
REMARK  7 active torsions:
REMARK  status: ('A' for Active; 'I' for Inactive)
REMARK    1  A    between atoms: C_7  and  C_5 
REMARK    2  A    between atoms: C_9  and  C_5 
REMARK    3  A    between atoms: C_11  and  C_9 
REMARK    4  A    between atoms: C_9  and  N_12 
REMARK    5  A    between atoms: O_15  and  C_11 
REMARK    6  A    between atoms: O_17  and  N_13 
REMARK    7  A    between atoms: O_17  and  O_16 
ROOT
HETATM    1  C   UNK N   1      29.940  16.631   4.713  0.00  0.00     0.001 A 
HETATM    2  C   UNK N   1      28.593  16.408   5.073  0.00  0.00     0.002 A 
HETATM    3  C   UNK N   1      30.872  17.072   5.673  0.00  0.00     0.014 A 
HETATM    4  C   UNK N   1      28.167  16.628   6.394  0.00  0.00     0.033 A 
HETATM    5  C   UNK N   1      30.113  17.692   9.150  0.00  0.00     0.134 A 
HETATM    6  C   UNK N   1      31.080  17.679   8.144  0.00  0.00    -0.025 A 
HETATM    7  C   UNK N   1      30.426  17.277   6.979  0.00  0.00     0.001 A 
HETATM    8  C   UNK N   1      29.116  17.061   7.318  0.00  0.00     0.075 A 
HETATM    9  N   UNK N   1      28.926  17.320   8.620  0.00  0.00    -0.201 N 
ENDROOT
BRANCH   6  10
HETATM   10  C   UNK N   1      32.524  18.028   8.414  0.00  0.00     0.076 C 
BRANCH  10  11
HETATM   11  C   UNK N   1      33.550  16.906   8.579  0.00  0.00     0.177 C 
BRANCH  11  12
HETATM   12  C   UNK N   1      34.390  16.847   7.328  0.00  0.00     0.163 C 
HETATM   13  O   UNK N   1      34.433  17.797   6.560  0.00  0.00    -0.648 OA
BRANCH  12  14
HETATM   14  O   UNK N   1      35.096  15.735   7.044  0.00  0.00    -0.775 OA
HETATM   15  H   UNK N   1      35.405  15.059   7.614  0.00  0.00     0.167 HD
ENDBRANCH  12  14
ENDBRANCH  11  12
BRANCH  11  16
HETATM   16  N   UNK N   1      34.405  17.155   9.730  0.00  0.00    -0.417 N 
HETATM   17  H   UNK N   1      34.548  16.652  10.606  0.00  0.00     0.150 HD
HETATM   18  H   UNK N   1      34.971  17.998   9.645  0.00  0.00     0.150 HD
ENDBRANCH  11  16
ENDBRANCH  10  11
ENDBRANCH   6  10
BRANCH   9  19
HETATM   19  O   UNK N   1      27.759  17.204   9.297  0.00  0.00    -0.108 OA
BRANCH  19  20
HETATM   20  O   UNK N   1      27.271  18.428   9.349  0.00  0.00    -0.226 OA
HETATM   21  H   UNK N   1      27.086  19.342   9.082  0.00  0.00     0.256 HD
ENDBRANCH  19  20
ENDBRANCH   9  19
TORSDOF 7
ENDMDL
MODEL 5
REMARK VINA RESULT:      -5.8     10.675     12.517
REMARK  7 active torsions:
REMARK  status: ('A' for Active; 'I' for Inactive)
REMARK    1  A    between atoms: C_7  and  C_5 
REMARK    2  A    between atoms: C_9  and  C_5 
REMARK    3  A    between atoms: C_11  and  C_9 
REMARK    4  A    between atoms: C_9  and  N_12 
REMARK    5  A    between atoms: O_15  and  C_11 
REMARK    6  A    between atoms: O_17  and  N_13 
REMARK    7  A    between atoms: O_17  and  O_16 
ROOT
HETATM    1  C   UNK N   1      35.566   9.898  19.001  0.00  0.00     0.001 A 
HETATM    2  C   UNK N   1      35.616  10.814  20.074  0.00  0.00     0.002 A 
HETATM    3  C   UNK N   1      35.384  10.354  17.681  0.00  0.00     0.014 A 
HETATM    4  C   UNK N   1      35.481  12.192  19.836  0.00  0.00     0.033 A 
HETATM    5  C   UNK N   1      35.043  13.821  16.727  0.00  0.00     0.134 A 
HETATM    6  C   UNK N   1      35.095  12.490  16.313  0.00  0.00    -0.025 A 
HETATM    7  C   UNK N   1      35.258  11.727  17.469  0.00  0.00     0.001 A 
HETATM    8  C   UNK N   1      35.305  12.608  18.518  0.00  0.00     0.075 A 
HETATM    9  N   UNK N   1      35.166  13.865  18.072  0.00  0.00    -0.201 N 
ENDROOT
BRANCH   6  10
HETATM   10  C   UNK N   1      35.005  12.097  14.857  0.00  0.00     0.076 C 
BRANCH  10  11
HETATM   11  C   UNK N   1      36.152  12.456  13.910  0.00  0.00     0.177 C 
BRANCH  11  12
HETATM   12  C   UNK N   1      35.896  13.838  13.363  0.00  0.00     0.163 C 
HETATM   13  O   UNK N   1      34.918  14.061  12.666  0.00  0.00    -0.648 OA
BRANCH  12  14
HETATM   14  O   UNK N   1      36.757  14.838  13.636  0.00  0.00    -0.775 OA
HETATM   15  H   UNK N   1      37.677  14.899  13.472  0.00  0.00     0.167 HD
ENDBRANCH  12  14
ENDBRANCH  11  12
BRANCH  11  16
HETATM   16  N   UNK N   1      37.425  12.437  14.614  0.00  0.00    -0.417 N 
HETATM   17  H   UNK N   1      38.361  12.135  14.341  0.00  0.00     0.150 HD
HETATM   18  H   UNK N   1      37.372  12.793  15.567  0.00  0.00     0.150 HD
ENDBRANCH  11  16
ENDBRANCH  10  11
ENDBRANCH   6  10
BRANCH   9  19
HETATM   19  O   UNK N   1      35.175  14.989  18.829  0.00  0.00    -0.108 OA
BRANCH  19  20
HETATM   20  O   UNK N   1      36.146  15.728  18.332  0.00  0.00    -0.226 OA
HETATM   21  H   UNK N   1      36.991  16.203  18.284  0.00  0.00     0.256 HD
ENDBRANCH  19  20
ENDBRANCH   9  19
TORSDOF 7
ENDMDL
MODEL 6
REMARK VINA RESULT:      -5.8     10.176     11.836
REMARK  7 active torsions:
REMARK  status: ('A' for Active; 'I' for Inactive)
REMARK    1  A    between atoms: C_7  and  C_5 
REMARK    2  A    between atoms: C_9  and  C_5 
REMARK    3  A    between atoms: C_11  and  C_9 
REMARK    4  A    between atoms: C_9  and  N_12 
REMARK    5  A    between atoms: O_15  and  C_11 
REMARK    6  A    between atoms: O_17  and  N_13 
REMARK    7  A    between atoms: O_17  and  O_16 
ROOT
HETATM    1  C   UNK N   1      24.069  18.942   4.345  0.00  0.00     0.001 A 
HETATM    2  C   UNK N   1      24.300  20.048   3.499  0.00  0.00     0.002 A 
HETATM    3  C   UNK N   1      22.801  18.331   4.391  0.00  0.00     0.014 A 
HETATM    4  C   UNK N   1      23.264  20.554   2.695  0.00  0.00     0.033 A 
HETATM    5  C   UNK N   1      19.946  19.358   2.431  0.00  0.00     0.134 A 
HETATM    6  C   UNK N   1      20.463  18.470   3.375  0.00  0.00    -0.025 A 
HETATM    7  C   UNK N   1      21.790  18.847   3.580  0.00  0.00     0.001 A 
HETATM    8  C   UNK N   1      22.023  19.923   2.764  0.00  0.00     0.075 A 
HETATM    9  N   UNK N   1      20.912  20.235   2.081  0.00  0.00    -0.201 N 
ENDROOT
BRANCH   6  10
HETATM   10  C   UNK N   1      19.638  17.347   3.958  0.00  0.00     0.076 C 
BRANCH  10  11
HETATM   11  C   UNK N   1      19.945  15.903   3.558  0.00  0.00     0.177 C 
BRANCH  11  12
HETATM   12  C   UNK N   1      19.122  14.987   4.427  0.00  0.00     0.163 C 
HETATM   13  O   UNK N   1      18.935  15.248   5.606  0.00  0.00    -0.648 OA
BRANCH  12  14
HETATM   14  O   UNK N   1      18.591  13.863   3.906  0.00  0.00    -0.775 OA
HETATM   15  H   UNK N   1      18.015  13.236   4.295  0.00  0.00     0.167 HD
ENDBRANCH  12  14
ENDBRANCH  11  12
BRANCH  11  16
HETATM   16  N   UNK N   1      19.617  15.675   2.159  0.00  0.00    -0.417 N 
HETATM   17  H   UNK N   1      18.754  15.404   1.687  0.00  0.00     0.150 HD
HETATM   18  H   UNK N   1      20.403  15.813   1.525  0.00  0.00     0.150 HD
ENDBRANCH  11  16
ENDBRANCH  10  11
ENDBRANCH   6  10
BRANCH   9  19
HETATM   19  O   UNK N   1      20.782  21.237   1.178  0.00  0.00    -0.108 OA
BRANCH  19  20
HETATM   20  O   UNK N   1      20.654  20.630   0.013  0.00  0.00    -0.226 OA
HETATM   21  H   UNK N   1      20.530  20.520  -0.942  0.00  0.00     0.256 HD
ENDBRANCH  19  20
ENDBRANCH   9  19
TORSDOF 7
ENDMDL
MODEL 7
REMARK VINA RESULT:      -5.7     13.552     15.206
REMARK  7 active torsions:
REMARK  status: ('A' for Active; 'I' for Inactive)
REMARK    1  A    between atoms: C_7  and  C_5 
REMARK    2  A    between atoms: C_9  and  C_5 
REMARK    3  A    between atoms: C_11  and  C_9 
REMARK    4  A    between atoms: C_9  and  N_12 
REMARK    5  A    between atoms: O_15  and  C_11 
REMARK    6  A    between atoms: O_17  and  N_13 
REMARK    7  A    between atoms: O_17  and  O_16 
ROOT
HETATM    1  C   UNK N   1      25.780  27.912  -3.655  0.00  0.00     0.001 A 
HETATM    2  C   UNK N   1      25.066  28.017  -4.868  0.00  0.00     0.002 A 
HETATM    3  C   UNK N   1      26.451  26.719  -3.322  0.00  0.00     0.014 A 
HETATM    4  C   UNK N   1      25.015  26.930  -5.757  0.00  0.00     0.033 A 
HETATM    5  C   UNK N   1      26.549  23.764  -5.397  0.00  0.00     0.134 A 
HETATM    6  C   UNK N   1      26.949  24.378  -4.209  0.00  0.00    -0.025 A 
HETATM    7  C   UNK N   1      26.390  25.656  -4.223  0.00  0.00     0.001 A 
HETATM    8  C   UNK N   1      25.693  25.767  -5.397  0.00  0.00     0.075 A 
HETATM    9  N   UNK N   1      25.780  24.626  -6.097  0.00  0.00    -0.201 N 
ENDROOT
BRANCH   6  10
HETATM   10  C   UNK N   1      27.840  23.683  -3.206  0.00  0.00     0.076 C 
BRANCH  10  11
HETATM   11  C   UNK N   1      29.329  24.026  -3.160  0.00  0.00     0.177 C 
BRANCH  11  12
HETATM   12  C   UNK N   1      30.054  22.891  -2.482  0.00  0.00     0.163 C 
HETATM   13  O   UNK N   1      30.485  23.017  -1.345  0.00  0.00    -0.648 OA
BRANCH  12  14
HETATM   14  O   UNK N   1      30.238  21.727  -3.134  0.00  0.00    -0.775 OA
HETATM   15  H   UNK N   1      29.686  20.971  -3.181  0.00  0.00     0.167 HD
ENDBRANCH  12  14
ENDBRANCH  11  12
BRANCH  11  16
HETATM   16  N   UNK N   1      29.857  24.211  -4.503  0.00  0.00    -0.417 N 
HETATM   17  H   UNK N   1      29.906  23.597  -5.316  0.00  0.00     0.150 HD
HETATM   18  H   UNK N   1      30.258  25.134  -4.662  0.00  0.00     0.150 HD
ENDBRANCH  11  16
ENDBRANCH  10  11
ENDBRANCH   6  10
BRANCH   9  19
HETATM   19  O   UNK N   1      25.221  24.385  -7.308  0.00  0.00    -0.108 OA
BRANCH  19  20
HETATM   20  O   UNK N   1      26.194  24.577  -8.177  0.00  0.00    -0.226 OA
HETATM   21  H   UNK N   1      26.673  24.559  -9.020  0.00  0.00     0.256 HD
ENDBRANCH  19  20
ENDBRANCH   9  19
TORSDOF 7
ENDMDL
MODEL 8
REMARK VINA RESULT:      -5.7      2.417      2.876
REMARK  7 active torsions:
REMARK  status: ('A' for Active; 'I' for Inactive)
REMARK    1  A    between atoms: C_7  and  C_5 
REMARK    2  A    between atoms: C_9  and  C_5 
REMARK    3  A    between atoms: C_11  and  C_9 
REMARK    4  A    between atoms: C_9  and  N_12 
REMARK    5  A    between atoms: O_15  and  C_11 
REMARK    6  A    between atoms: O_17  and  N_13 
REMARK    7  A    between atoms: O_17  and  O_16 
ROOT
HETATM    1  C   UNK N   1      33.357  13.799   8.277  0.00  0.00     0.001 A 
HETATM    2  C   UNK N   1      34.620  14.247   7.833  0.00  0.00     0.002 A 
HETATM    3  C   UNK N   1      32.338  14.723   8.580  0.00  0.00     0.014 A 
HETATM    4  C   UNK N   1      34.875  15.622   7.691  0.00  0.00     0.033 A 
HETATM    5  C   UNK N   1      32.654  18.309   8.287  0.00  0.00     0.134 A 
HETATM    6  C   UNK N   1      31.837  17.226   8.613  0.00  0.00    -0.025 A 
HETATM    7  C   UNK N   1      32.612  16.082   8.426  0.00  0.00     0.001 A 
HETATM    8  C   UNK N   1      33.842  16.507   7.997  0.00  0.00     0.075 A 
HETATM    9  N   UNK N   1      33.870  17.846   7.923  0.00  0.00    -0.201 N 
ENDROOT
BRANCH   6  10
HETATM   10  C   UNK N   1      30.400  17.404   9.043  0.00  0.00     0.076 C 
BRANCH  10  11
HETATM   11  C   UNK N   1      29.283  17.270   8.006  0.00  0.00     0.177 C 
BRANCH  11  12
HETATM   12  C   UNK N   1      28.262  18.348   8.270  0.00  0.00     0.163 C 
HETATM   13  O   UNK N   1      28.180  19.322   7.537  0.00  0.00    -0.648 OA
BRANCH  12  14
HETATM   14  O   UNK N   1      27.436  18.245   9.330  0.00  0.00    -0.775 OA
HETATM   15  H   UNK N   1      27.521  18.597  10.193  0.00  0.00     0.167 HD
ENDBRANCH  12  14
ENDBRANCH  11  12
BRANCH  11  16
HETATM   16  N   UNK N   1      29.811  17.417   6.658  0.00  0.00    -0.417 N 
HETATM   17  H   UNK N   1      30.676  17.818   6.295  0.00  0.00     0.150 HD
HETATM   18  H   UNK N   1      29.196  17.047   5.935  0.00  0.00     0.150 HD
ENDBRANCH  11  16
ENDBRANCH  10  11
ENDBRANCH   6  10
BRANCH   9  19
HETATM   19  O   UNK N   1      34.920  18.605   7.528  0.00  0.00    -0.108 OA
BRANCH  19  20
HETATM   20  O   UNK N   1      35.315  19.235   8.616  0.00  0.00    -0.226 OA
HETATM   21  H   UNK N   1      35.666  19.946   9.176  0.00  0.00     0.256 HD
ENDBRANCH  19  20
ENDBRANCH   9  19
TORSDOF 7
ENDMDL
MODEL 9
REMARK VINA RESULT:      -5.7     15.253     16.688
REMARK  7 active torsions:
REMARK  status: ('A' for Active; 'I' for Inactive)
REMARK    1  A    between atoms: C_7  and  C_5 
REMARK    2  A    between atoms: C_9  and  C_5 
REMARK    3  A    between atoms: C_11  and  C_9 
REMARK    4  A    between atoms: C_9  and  N_12 
REMARK    5  A    between atoms: O_15  and  C_11 
REMARK    6  A    between atoms: O_17  and  N_13 
REMARK    7  A    between atoms: O_17  and  O_16 
ROOT
HETATM    1  C   UNK N   1      28.519  28.849  -7.461  0.00  0.00     0.001 A 
HETATM    2  C   UNK N   1      28.750  29.955  -6.615  0.00  0.00     0.002 A 
HETATM    3  C   UNK N   1      27.589  27.856  -7.100  0.00  0.00     0.014 A 
HETATM    4  C   UNK N   1      28.055  30.075  -5.400  0.00  0.00     0.033 A 
HETATM    5  C   UNK N   1      25.614  27.884  -4.075  0.00  0.00     0.134 A 
HETATM    6  C   UNK N   1      25.927  27.228  -5.265  0.00  0.00    -0.025 A 
HETATM    7  C   UNK N   1      26.906  28.000  -5.892  0.00  0.00     0.001 A 
HETATM    8  C   UNK N   1      27.139  29.075  -5.076  0.00  0.00     0.075 A 
HETATM    9  N   UNK N   1      26.370  29.000  -3.980  0.00  0.00    -0.201 N 
ENDROOT
BRANCH   6  10
HETATM   10  C   UNK N   1      25.239  25.949  -5.683  0.00  0.00     0.076 C 
BRANCH  10  11
HETATM   11  C   UNK N   1      26.065  24.673  -5.854  0.00  0.00     0.177 C 
BRANCH  11  12
HETATM   12  C   UNK N   1      26.822  24.426  -4.573  0.00  0.00     0.163 C 
HETATM   13  O   UNK N   1      28.044  24.440  -4.559  0.00  0.00    -0.648 OA
BRANCH  12  14
HETATM   14  O   UNK N   1      26.150  24.179  -3.432  0.00  0.00    -0.775 OA
HETATM   15  H   UNK N   1      26.067  24.702  -2.659  0.00  0.00     0.167 HD
ENDBRANCH  12  14
ENDBRANCH  11  12
BRANCH  11  16
HETATM   16  N   UNK N   1      25.202  23.536  -6.138  0.00  0.00    -0.417 N 
HETATM   17  H   UNK N   1      24.623  22.943  -5.545  0.00  0.00     0.150 HD
HETATM   18  H   UNK N   1      25.172  23.282  -7.125  0.00  0.00     0.150 HD
ENDBRANCH  11  16
ENDBRANCH  10  11
ENDBRANCH   6  10
BRANCH   9  19
HETATM   19  O   UNK N   1      26.332  29.897  -2.965  0.00  0.00    -0.108 OA
BRANCH  19  20
HETATM   20  O   UNK N   1      27.271  29.504  -2.126  0.00  0.00    -0.226 OA
HETATM   21  H   UNK N   1      28.157  29.369  -1.755  0.00  0.00     0.256 HD
ENDBRANCH  19  20
ENDBRANCH   9  19
TORSDOF 7
ENDMDL
