MODEL 1
REMARK VINA RESULT:      -7.8      0.000      0.000
REMARK  5 active torsions:
REMARK  status: ('A' for Active; 'I' for Inactive)
REMARK    1  A    between atoms: C_14  and  C_11 
REMARK    2  A    between atoms: N_30  and  C_11 
REMARK    3  A    between atoms: C_18  and  C_15 
REMARK    4  A    between atoms: N_26  and  C_16 
REMARK    5  A    between atoms: N_31  and  C_17 
ROOT
HETATM    1  C   UNK N   1      26.576  22.185  -7.135  0.00  0.00     0.103 C 
HETATM    2  C   UNK N   1      25.488  22.661  -8.089  0.00  0.00     0.085 C 
HETATM    3  C   UNK N   1      27.469  23.310  -6.653  0.00  0.00     0.041 C 
HETATM    4  C   UNK N   1      26.072  24.908  -7.702  0.00  0.00     0.682 C 
HETATM    5  N   UNK N   1      25.273  23.916  -8.325  0.00  0.00    -0.205 N 
ATOM      6  HN  UNK N   1      24.526  24.191  -8.960  1.00  0.00     0.183 HD
HETATM    7  N   UNK N   1      25.720  26.157  -7.710  0.00  0.00    -0.192 N 
ATOM      8  HN  UNK N   1      24.949  26.450  -8.309  1.00  0.00     0.184 HD
HETATM    9  N   UNK N   1      27.196  24.516  -6.955  0.00  0.00    -0.194 N 
ATOM     10  HN  UNK N   1      27.835  25.245  -6.637  1.00  0.00     0.184 HD
ENDROOT
BRANCH   3  11
HETATM   11  C   UNK N   1      28.506  23.131  -5.622  0.00  0.00    -0.012 A 
HETATM   12  C   UNK N   1      28.416  23.869  -4.425  0.00  0.00     0.013 A 
HETATM   13  C   UNK N   1      29.235  23.568  -3.340  0.00  0.00     0.002 A 
HETATM   14  C   UNK N   1      30.111  22.490  -3.423  0.00  0.00     0.009 A 
HETATM   15  C   UNK N   1      30.215  21.754  -4.614  0.00  0.00    -0.037 A 
HETATM   16  C   UNK N   1      29.416  22.079  -5.712  0.00  0.00     0.022 A 
BRANCH  15  17
HETATM   17  C   UNK N   1      31.063  20.532  -4.687  0.00  0.00     0.188 C 
BRANCH  17  18
HETATM   18  N   UNK N   1      32.462  20.832  -4.455  0.00  0.00    -0.283 N 
HETATM   19  C   UNK N   1      33.239  21.622  -5.205  0.00  0.00     0.201 A 
HETATM   20  N   UNK N   1      34.492  21.625  -4.710  0.00  0.00    -0.346 N 
HETATM   21  C   UNK N   1      34.435  20.802  -3.638  0.00  0.00     0.198 A 
ATOM     22  HN  UNK N   1      35.303  22.136  -5.064  1.00  0.00     0.167 HD
HETATM   23  N   UNK N   1      33.192  20.313  -3.486  0.00  0.00    -0.293 N 
ATOM     24  HN  UNK N   1      32.874  19.667  -2.763  1.00  0.00     0.188 HD
ENDBRANCH  17  18
ENDBRANCH  15  17
ENDBRANCH   3  11
BRANCH   7  25
HETATM   25  C   UNK N   1      26.387  27.140  -6.899  0.00  0.00     0.051 A 
HETATM   26  C   UNK N   1      27.512  27.846  -7.382  0.00  0.00     0.030 A 
HETATM   27  C   UNK N   1      28.136  28.829  -6.625  0.00  0.00     0.005 A 
HETATM   28  C   UNK N   1      27.654  29.120  -5.357  0.00  0.00     0.036 A 
HETATM   29  C   UNK N   1      26.560  28.414  -4.831  0.00  0.00     0.105 A 
HETATM   30  C   UNK N   1      25.933  27.416  -5.607  0.00  0.00     0.066 A 
BRANCH  29  31
HETATM   31  N   UNK N   1      26.086  28.720  -3.528  0.00  0.00    -0.116 N 
HETATM   32  O   UNK N   1      26.305  29.788  -3.043  0.00  0.00    -0.532 OA
HETATM   33  O   UNK N   1      25.459  27.911  -2.911  0.00  0.00    -0.532 OA
ENDBRANCH  29  31
ENDBRANCH   7  25
TORSDOF 5
ENDMDL
MODEL 2
REMARK VINA RESULT:      -7.5     11.684     14.902
REMARK  5 active torsions:
REMARK  status: ('A' for Active; 'I' for Inactive)
REMARK    1  A    between atoms: C_14  and  C_11 
REMARK    2  A    between atoms: N_30  and  C_11 
REMARK    3  A    between atoms: C_18  and  C_15 
REMARK    4  A    between atoms: N_26  and  C_16 
REMARK    5  A    between atoms: N_31  and  C_17 
ROOT
HETATM    1  C   UNK N   1      28.252  18.007   9.377  0.00  0.00     0.103 C 
HETATM    2  C   UNK N   1      29.310  17.186  10.104  0.00  0.00     0.085 C 
HETATM    3  C   UNK N   1      28.687  18.429   7.989  0.00  0.00     0.041 C 
HETATM    4  C   UNK N   1      30.638  17.098   8.163  0.00  0.00     0.682 C 
HETATM    5  N   UNK N   1      30.390  16.776   9.522  0.00  0.00    -0.205 N 
ATOM      6  HN  UNK N   1      31.066  16.217  10.042  1.00  0.00     0.183 HD
HETATM    7  N   UNK N   1      31.565  16.493   7.486  0.00  0.00    -0.192 N 
ATOM      8  HN  UNK N   1      32.229  15.898   7.980  1.00  0.00     0.184 HD
HETATM    9  N   UNK N   1      29.782  17.997   7.504  0.00  0.00    -0.194 N 
ATOM     10  HN  UNK N   1      30.056  18.324   6.577  1.00  0.00     0.184 HD
ENDROOT
BRANCH   3  11
HETATM   11  C   UNK N   1      27.794  19.112   7.037  0.00  0.00    -0.012 A 
HETATM   12  C   UNK N   1      27.441  20.456   7.271  0.00  0.00     0.013 A 
HETATM   13  C   UNK N   1      26.795  21.203   6.291  0.00  0.00     0.002 A 
HETATM   14  C   UNK N   1      26.546  20.630   5.047  0.00  0.00     0.009 A 
HETATM   15  C   UNK N   1      26.885  19.289   4.807  0.00  0.00    -0.037 A 
HETATM   16  C   UNK N   1      27.504  18.532   5.803  0.00  0.00     0.022 A 
BRANCH  15  17
HETATM   17  C   UNK N   1      26.728  18.692   3.452  0.00  0.00     0.188 C 
BRANCH  17  18
HETATM   18  N   UNK N   1      25.782  17.593   3.452  0.00  0.00    -0.283 N 
HETATM   19  C   UNK N   1      24.520  17.635   3.892  0.00  0.00     0.201 A 
HETATM   20  N   UNK N   1      23.961  16.413   3.779  0.00  0.00    -0.346 N 
HETATM   21  C   UNK N   1      24.943  15.639   3.261  0.00  0.00     0.198 A 
ATOM     22  HN  UNK N   1      23.012  16.135   4.027  1.00  0.00     0.167 HD
HETATM   23  N   UNK N   1      26.059  16.363   3.065  0.00  0.00    -0.293 N 
ATOM     24  HN  UNK N   1      26.947  16.027   2.691  1.00  0.00     0.188 HD
ENDBRANCH  17  18
ENDBRANCH  15  17
ENDBRANCH   3  11
BRANCH   7  25
HETATM   25  C   UNK N   1      31.683  16.638   6.060  0.00  0.00     0.051 A 
HETATM   26  C   UNK N   1      32.727  17.397   5.485  0.00  0.00     0.030 A 
HETATM   27  C   UNK N   1      32.876  17.506   4.109  0.00  0.00     0.005 A 
HETATM   28  C   UNK N   1      31.973  16.866   3.273  0.00  0.00     0.036 A 
HETATM   29  C   UNK N   1      30.902  16.133   3.809  0.00  0.00     0.105 A 
HETATM   30  C   UNK N   1      30.758  16.028   5.209  0.00  0.00     0.066 A 
BRANCH  29  31
HETATM   31  N   UNK N   1      29.983  15.492   2.937  0.00  0.00    -0.116 N 
HETATM   32  O   UNK N   1      29.028  16.080   2.531  0.00  0.00    -0.532 OA
HETATM   33  O   UNK N   1      30.164  14.360   2.600  0.00  0.00    -0.532 OA
ENDBRANCH  29  31
ENDBRANCH   7  25
TORSDOF 5
ENDMDL
MODEL 3
REMARK VINA RESULT:      -7.4     10.970     13.355
REMARK  5 active torsions:
REMARK  status: ('A' for Active; 'I' for Inactive)
REMARK    1  A    between atoms: C_14  and  C_11 
REMARK    2  A    between atoms: N_30  and  C_11 
REMARK    3  A    between atoms: C_18  and  C_15 
REMARK    4  A    between atoms: N_26  and  C_16 
REMARK    5  A    between atoms: N_31  and  C_17 
ROOT
HETATM    1  C   UNK N   1      28.119  14.826   2.094  0.00  0.00     0.103 C 
HETATM    2  C   UNK N   1      29.533  15.239   2.484  0.00  0.00     0.085 C 
HETATM    3  C   UNK N   1      27.054  15.611   2.832  0.00  0.00     0.041 C 
HETATM    4  C   UNK N   1      28.705  17.026   3.772  0.00  0.00     0.682 C 
HETATM    5  N   UNK N   1      29.774  16.255   3.248  0.00  0.00    -0.205 N 
ATOM      6  HN  UNK N   1      30.736  16.504   3.474  1.00  0.00     0.183 HD
HETATM    7  N   UNK N   1      28.914  18.185   4.314  0.00  0.00    -0.192 N 
ATOM      8  HN  UNK N   1      29.872  18.472   4.514  1.00  0.00     0.184 HD
HETATM    9  N   UNK N   1      27.384  16.583   3.586  0.00  0.00    -0.194 N 
ATOM     10  HN  UNK N   1      26.642  17.070   4.089  1.00  0.00     0.184 HD
ENDROOT
BRANCH   3  11
HETATM   11  C   UNK N   1      25.616  15.496   2.534  0.00  0.00    -0.012 A 
HETATM   12  C   UNK N   1      25.200  14.663   1.476  0.00  0.00     0.013 A 
HETATM   13  C   UNK N   1      23.855  14.347   1.306  0.00  0.00     0.002 A 
HETATM   14  C   UNK N   1      22.921  14.815   2.225  0.00  0.00     0.009 A 
HETATM   15  C   UNK N   1      23.324  15.653   3.277  0.00  0.00    -0.037 A 
HETATM   16  C   UNK N   1      24.669  15.995   3.426  0.00  0.00     0.022 A 
BRANCH  15  17
HETATM   17  C   UNK N   1      22.360  16.072   4.332  0.00  0.00     0.188 C 
BRANCH  17  18
HETATM   18  N   UNK N   1      21.329  16.945   3.805  0.00  0.00    -0.283 N 
HETATM   19  C   UNK N   1      20.026  16.662   3.706  0.00  0.00     0.201 A 
HETATM   20  N   UNK N   1      19.382  17.694   3.124  0.00  0.00    -0.346 N 
HETATM   21  C   UNK N   1      20.355  18.601   2.873  0.00  0.00     0.198 A 
ATOM     22  HN  UNK N   1      18.386  17.774   2.919  1.00  0.00     0.167 HD
HETATM   23  N   UNK N   1      21.548  18.138   3.287  0.00  0.00    -0.293 N 
ATOM     24  HN  UNK N   1      22.446  18.616   3.215  1.00  0.00     0.188 HD
ENDBRANCH  17  18
ENDBRANCH  15  17
ENDBRANCH   3  11
BRANCH   7  25
HETATM   25  C   UNK N   1      27.834  19.078   4.643  0.00  0.00     0.051 A 
HETATM   26  C   UNK N   1      27.769  19.715   5.903  0.00  0.00     0.030 A 
HETATM   27  C   UNK N   1      26.757  20.612   6.214  0.00  0.00     0.005 A 
HETATM   28  C   UNK N   1      25.774  20.883   5.273  0.00  0.00     0.036 A 
HETATM   29  C   UNK N   1      25.787  20.242   4.024  0.00  0.00     0.105 A 
HETATM   30  C   UNK N   1      26.820  19.331   3.716  0.00  0.00     0.066 A 
BRANCH  29  31
HETATM   31  N   UNK N   1      24.768  20.526   3.077  0.00  0.00    -0.116 N 
HETATM   32  O   UNK N   1      23.620  20.398   3.371  0.00  0.00    -0.532 OA
HETATM   33  O   UNK N   1      25.056  20.903   1.980  0.00  0.00    -0.532 OA
ENDBRANCH  29  31
ENDBRANCH   7  25
TORSDOF 5
ENDMDL
MODEL 4
REMARK VINA RESULT:      -7.4     14.184     17.031
REMARK  5 active torsions:
REMARK  status: ('A' for Active; 'I' for Inactive)
REMARK    1  A    between atoms: C_14  and  C_11 
REMARK    2  A    between atoms: N_30  and  C_11 
REMARK    3  A    between atoms: C_18  and  C_15 
REMARK    4  A    between atoms: N_26  and  C_16 
REMARK    5  A    between atoms: N_31  and  C_17 
ROOT
HETATM    1  C   UNK N   1      34.930  13.627   3.220  0.00  0.00     0.103 C 
HETATM    2  C   UNK N   1      34.089  14.452   2.253  0.00  0.00     0.085 C 
HETATM    3  C   UNK N   1      35.070  14.279   4.580  0.00  0.00     0.041 C 
HETATM    4  C   UNK N   1      33.520  15.962   3.966  0.00  0.00     0.682 C 
HETATM    5  N   UNK N   1      33.448  15.513   2.623  0.00  0.00    -0.205 N 
ATOM      6  HN  UNK N   1      32.886  16.028   1.946  1.00  0.00     0.183 HD
HETATM    7  N   UNK N   1      32.695  16.852   4.424  0.00  0.00    -0.192 N 
ATOM      8  HN  UNK N   1      32.095  17.353   3.769  1.00  0.00     0.184 HD
HETATM    9  N   UNK N   1      34.419  15.340   4.850  0.00  0.00    -0.194 N 
ATOM     10  HN  UNK N   1      34.559  15.766   5.766  1.00  0.00     0.184 HD
ENDROOT
BRANCH   3  11
HETATM   11  C   UNK N   1      35.717  13.620   5.727  0.00  0.00    -0.012 A 
HETATM   12  C   UNK N   1      37.114  13.731   5.883  0.00  0.00     0.013 A 
HETATM   13  C   UNK N   1      37.733  13.325   7.062  0.00  0.00     0.002 A 
HETATM   14  C   UNK N   1      36.955  12.856   8.116  0.00  0.00     0.009 A 
HETATM   15  C   UNK N   1      35.565  12.734   7.968  0.00  0.00    -0.037 A 
HETATM   16  C   UNK N   1      34.950  13.112   6.773  0.00  0.00     0.022 A 
BRANCH  15  17
HETATM   17  C   UNK N   1      34.705  12.341   9.119  0.00  0.00     0.188 C 
BRANCH  17  18
HETATM   18  N   UNK N   1      34.567  13.416  10.082  0.00  0.00    -0.283 N 
HETATM   19  C   UNK N   1      33.803  14.506   9.950  0.00  0.00     0.201 A 
HETATM   20  N   UNK N   1      33.966  15.306  11.022  0.00  0.00    -0.346 N 
HETATM   21  C   UNK N   1      34.864  14.654  11.797  0.00  0.00     0.198 A 
ATOM     22  HN  UNK N   1      33.514  16.201  11.209  1.00  0.00     0.167 HD
HETATM   23  N   UNK N   1      35.235  13.498  11.217  0.00  0.00    -0.293 N 
ATOM     24  HN  UNK N   1      35.901  12.818  11.582  1.00  0.00     0.188 HD
ENDBRANCH  17  18
ENDBRANCH  15  17
ENDBRANCH   3  11
BRANCH   7  25
HETATM   25  C   UNK N   1      32.602  17.153   5.827  0.00  0.00     0.051 A 
HETATM   26  C   UNK N   1      31.383  17.007   6.528  0.00  0.00     0.030 A 
HETATM   27  C   UNK N   1      31.294  17.251   7.892  0.00  0.00     0.005 A 
HETATM   28  C   UNK N   1      32.422  17.663   8.586  0.00  0.00     0.036 A 
HETATM   29  C   UNK N   1      33.641  17.853   7.915  0.00  0.00     0.105 A 
HETATM   30  C   UNK N   1      33.723  17.603   6.529  0.00  0.00     0.066 A 
BRANCH  29  31
HETATM   31  N   UNK N   1      34.783  18.283   8.642  0.00  0.00    -0.116 N 
HETATM   32  O   UNK N   1      35.325  19.307   8.361  0.00  0.00    -0.532 OA
HETATM   33  O   UNK N   1      35.204  17.622   9.545  0.00  0.00    -0.532 OA
ENDBRANCH  29  31
ENDBRANCH   7  25
TORSDOF 5
ENDMDL
MODEL 5
REMARK VINA RESULT:      -7.3      3.029      6.790
REMARK  5 active torsions:
REMARK  status: ('A' for Active; 'I' for Inactive)
REMARK    1  A    between atoms: C_14  and  C_11 
REMARK    2  A    between atoms: N_30  and  C_11 
REMARK    3  A    between atoms: C_18  and  C_15 
REMARK    4  A    between atoms: N_26  and  C_16 
REMARK    5  A    between atoms: N_31  and  C_17 
ROOT
HETATM    1  C   UNK N   1      26.201  22.416  -8.480  0.00  0.00     0.103 C 
HETATM    2  C   UNK N   1      26.786  21.058  -8.846  0.00  0.00     0.085 C 
HETATM    3  C   UNK N   1      26.907  23.063  -7.306  0.00  0.00     0.041 C 
HETATM    4  C   UNK N   1      28.545  21.352  -7.311  0.00  0.00     0.682 C 
HETATM    5  N   UNK N   1      27.865  20.597  -8.301  0.00  0.00    -0.205 N 
ATOM      6  HN  UNK N   1      28.229  19.688  -8.585  1.00  0.00     0.183 HD
HETATM    7  N   UNK N   1      29.750  21.045  -6.942  0.00  0.00    -0.192 N 
ATOM      8  HN  UNK N   1      30.150  20.159  -7.246  1.00  0.00     0.184 HD
HETATM    9  N   UNK N   1      27.952  22.525  -6.814  0.00  0.00    -0.194 N 
ATOM     10  HN  UNK N   1      28.385  22.974  -6.007  1.00  0.00     0.184 HD
ENDROOT
BRANCH   3  11
HETATM   11  C   UNK N   1      26.620  24.433  -6.848  0.00  0.00    -0.012 A 
HETATM   12  C   UNK N   1      25.864  25.288  -7.674  0.00  0.00     0.013 A 
HETATM   13  C   UNK N   1      25.378  26.499  -7.190  0.00  0.00     0.002 A 
HETATM   14  C   UNK N   1      25.596  26.840  -5.858  0.00  0.00     0.009 A 
HETATM   15  C   UNK N   1      26.355  25.999  -5.029  0.00  0.00    -0.037 A 
HETATM   16  C   UNK N   1      26.869  24.800  -5.527  0.00  0.00     0.022 A 
BRANCH  15  17
HETATM   17  C   UNK N   1      26.505  26.291  -3.576  0.00  0.00     0.188 C 
BRANCH  17  18
HETATM   18  N   UNK N   1      27.128  27.579  -3.346  0.00  0.00    -0.283 N 
HETATM   19  C   UNK N   1      28.394  27.909  -3.626  0.00  0.00     0.201 A 
HETATM   20  N   UNK N   1      28.629  29.176  -3.231  0.00  0.00    -0.346 N 
HETATM   21  C   UNK N   1      27.455  29.588  -2.698  0.00  0.00     0.198 A 
ATOM     22  HN  UNK N   1      29.497  29.706  -3.315  1.00  0.00     0.167 HD
HETATM   23  N   UNK N   1      26.538  28.606  -2.765  0.00  0.00    -0.293 N 
ATOM     24  HN  UNK N   1      25.575  28.647  -2.433  1.00  0.00     0.188 HD
ENDBRANCH  17  18
ENDBRANCH  15  17
ENDBRANCH   3  11
BRANCH   7  25
HETATM   25  C   UNK N   1      30.538  21.920  -6.115  0.00  0.00     0.051 A 
HETATM   26  C   UNK N   1      31.224  23.026  -6.666  0.00  0.00     0.030 A 
HETATM   27  C   UNK N   1      31.950  23.902  -5.871  0.00  0.00     0.005 A 
HETATM   28  C   UNK N   1      32.018  23.684  -4.503  0.00  0.00     0.036 A 
HETATM   29  C   UNK N   1      31.379  22.575  -3.926  0.00  0.00     0.105 A 
HETATM   30  C   UNK N   1      30.643  21.689  -4.742  0.00  0.00     0.066 A 
BRANCH  29  31
HETATM   31  N   UNK N   1      31.466  22.364  -2.524  0.00  0.00    -0.116 N 
HETATM   32  O   UNK N   1      32.270  21.603  -2.079  0.00  0.00    -0.532 OA
HETATM   33  O   UNK N   1      30.739  22.953  -1.781  0.00  0.00    -0.532 OA
ENDBRANCH  29  31
ENDBRANCH   7  25
TORSDOF 5
ENDMDL
MODEL 6
REMARK VINA RESULT:      -7.3      2.978      4.114
REMARK  5 active torsions:
REMARK  status: ('A' for Active; 'I' for Inactive)
REMARK    1  A    between atoms: C_14  and  C_11 
REMARK    2  A    between atoms: N_30  and  C_11 
REMARK    3  A    between atoms: C_18  and  C_15 
REMARK    4  A    between atoms: N_26  and  C_16 
REMARK    5  A    between atoms: N_31  and  C_17 
ROOT
HETATM    1  C   UNK N   1      26.361  21.378  -7.996  0.00  0.00     0.103 C 
HETATM    2  C   UNK N   1      25.291  22.448  -7.824  0.00  0.00     0.085 C 
HETATM    3  C   UNK N   1      27.716  21.813  -7.476  0.00  0.00     0.041 C 
HETATM    4  C   UNK N   1      26.770  23.790  -6.578  0.00  0.00     0.682 C 
HETATM    5  N   UNK N   1      25.502  23.541  -7.163  0.00  0.00    -0.205 N 
ATOM      6  HN  UNK N   1      24.754  24.225  -7.061  1.00  0.00     0.183 HD
HETATM    7  N   UNK N   1      26.934  24.733  -5.703  0.00  0.00    -0.192 N 
ATOM      8  HN  UNK N   1      26.183  25.406  -5.555  1.00  0.00     0.184 HD
HETATM    9  N   UNK N   1      27.838  22.919  -6.857  0.00  0.00    -0.194 N 
ATOM     10  HN  UNK N   1      28.770  23.192  -6.546  1.00  0.00     0.184 HD
ENDROOT
BRANCH   3  11
HETATM   11  C   UNK N   1      28.879  20.911  -7.403  0.00  0.00    -0.012 A 
HETATM   12  C   UNK N   1      28.815  19.658  -8.044  0.00  0.00     0.013 A 
HETATM   13  C   UNK N   1      29.958  18.878  -8.195  0.00  0.00     0.002 A 
HETATM   14  C   UNK N   1      31.185  19.369  -7.758  0.00  0.00     0.009 A 
HETATM   15  C   UNK N   1      31.257  20.612  -7.112  0.00  0.00    -0.037 A 
HETATM   16  C   UNK N   1      30.104  21.378  -6.931  0.00  0.00     0.022 A 
BRANCH  15  17
HETATM   17  C   UNK N   1      32.572  21.204  -6.737  0.00  0.00     0.188 C 
BRANCH  17  18
HETATM   18  N   UNK N   1      32.963  20.839  -5.389  0.00  0.00    -0.283 N 
HETATM   19  C   UNK N   1      33.246  19.608  -4.951  0.00  0.00     0.201 A 
HETATM   20  N   UNK N   1      33.522  19.649  -3.633  0.00  0.00    -0.346 N 
HETATM   21  C   UNK N   1      33.386  20.953  -3.299  0.00  0.00     0.198 A 
ATOM     22  HN  UNK N   1      33.778  18.872  -3.023  1.00  0.00     0.167 HD
HETATM   23  N   UNK N   1      33.039  21.680  -4.376  0.00  0.00    -0.293 N 
ATOM     24  HN  UNK N   1      32.868  22.686  -4.404  1.00  0.00     0.188 HD
ENDBRANCH  17  18
ENDBRANCH  15  17
ENDBRANCH   3  11
BRANCH   7  25
HETATM   25  C   UNK N   1      28.144  24.856  -4.935  0.00  0.00     0.051 A 
HETATM   26  C   UNK N   1      28.905  26.047  -4.955  0.00  0.00     0.030 A 
HETATM   27  C   UNK N   1      30.050  26.193  -4.182  0.00  0.00     0.005 A 
HETATM   28  C   UNK N   1      30.468  25.141  -3.379  0.00  0.00     0.036 A 
HETATM   29  C   UNK N   1      29.756  23.931  -3.362  0.00  0.00     0.105 A 
HETATM   30  C   UNK N   1      28.594  23.792  -4.151  0.00  0.00     0.066 A 
BRANCH  29  31
HETATM   31  N   UNK N   1      30.205  22.864  -2.540  0.00  0.00    -0.116 N 
HETATM   32  O   UNK N   1      30.251  21.752  -2.969  0.00  0.00    -0.532 OA
HETATM   33  O   UNK N   1      30.546  23.075  -1.414  0.00  0.00    -0.532 OA
ENDBRANCH  29  31
ENDBRANCH   7  25
TORSDOF 5
ENDMDL
MODEL 7
REMARK VINA RESULT:      -7.2      4.084      7.602
REMARK  5 active torsions:
REMARK  status: ('A' for Active; 'I' for Inactive)
REMARK    1  A    between atoms: C_14  and  C_11 
REMARK    2  A    between atoms: N_30  and  C_11 
REMARK    3  A    between atoms: C_18  and  C_15 
REMARK    4  A    between atoms: N_26  and  C_16 
REMARK    5  A    between atoms: N_31  and  C_17 
ROOT
HETATM    1  C   UNK N   1      26.604  29.188  -4.561  0.00  0.00     0.103 C 
HETATM    2  C   UNK N   1      26.016  28.595  -3.287  0.00  0.00     0.085 C 
HETATM    3  C   UNK N   1      27.353  28.167  -5.393  0.00  0.00     0.041 C 
HETATM    4  C   UNK N   1      26.629  26.425  -3.961  0.00  0.00     0.682 C 
HETATM    5  N   UNK N   1      26.034  27.325  -3.040  0.00  0.00    -0.205 N 
ATOM      6  HN  UNK N   1      25.617  26.969  -2.180  1.00  0.00     0.183 HD
HETATM    7  N   UNK N   1      26.434  25.146  -3.873  0.00  0.00    -0.192 N 
ATOM      8  HN  UNK N   1      25.983  24.771  -3.039  1.00  0.00     0.184 HD
HETATM    9  N   UNK N   1      27.338  26.938  -5.061  0.00  0.00    -0.194 N 
ATOM     10  HN  UNK N   1      27.876  26.283  -5.628  1.00  0.00     0.184 HD
ENDROOT
BRANCH   3  11
HETATM   11  C   UNK N   1      27.894  28.458  -6.731  0.00  0.00    -0.012 A 
HETATM   12  C   UNK N   1      28.755  29.562  -6.897  0.00  0.00     0.013 A 
HETATM   13  C   UNK N   1      29.465  29.738  -8.081  0.00  0.00     0.002 A 
HETATM   14  C   UNK N   1      29.364  28.783  -9.088  0.00  0.00     0.009 A 
HETATM   15  C   UNK N   1      28.503  27.685  -8.936  0.00  0.00    -0.037 A 
HETATM   16  C   UNK N   1      27.767  27.528  -7.761  0.00  0.00     0.022 A 
BRANCH  15  17
HETATM   17  C   UNK N   1      28.465  26.597  -9.953  0.00  0.00     0.188 C 
BRANCH  17  18
HETATM   18  N   UNK N   1      27.157  26.477 -10.566  0.00  0.00    -0.283 N 
HETATM   19  C   UNK N   1      26.748  27.080 -11.687  0.00  0.00     0.201 A 
HETATM   20  N   UNK N   1      25.458  26.771 -11.923  0.00  0.00    -0.346 N 
HETATM   21  C   UNK N   1      25.110  25.964 -10.894  0.00  0.00     0.198 A 
ATOM     22  HN  UNK N   1      24.875  27.075 -12.703  1.00  0.00     0.167 HD
HETATM   23  N   UNK N   1      26.151  25.789 -10.061  0.00  0.00    -0.293 N 
ATOM     24  HN  UNK N   1      26.162  25.233  -9.206  1.00  0.00     0.188 HD
ENDBRANCH  17  18
ENDBRANCH  15  17
ENDBRANCH   3  11
BRANCH   7  25
HETATM   25  C   UNK N   1      26.835  24.241  -4.917  0.00  0.00     0.051 A 
HETATM   26  C   UNK N   1      28.155  23.741  -4.984  0.00  0.00     0.030 A 
HETATM   27  C   UNK N   1      28.541  22.833  -5.961  0.00  0.00     0.005 A 
HETATM   28  C   UNK N   1      27.615  22.413  -6.905  0.00  0.00     0.036 A 
HETATM   29  C   UNK N   1      26.304  22.917  -6.890  0.00  0.00     0.105 A 
HETATM   30  C   UNK N   1      25.921  23.840  -5.894  0.00  0.00     0.066 A 
BRANCH  29  31
HETATM   31  N   UNK N   1      25.373  22.482  -7.870  0.00  0.00    -0.116 N 
HETATM   32  O   UNK N   1      24.812  23.275  -8.562  0.00  0.00    -0.532 OA
HETATM   33  O   UNK N   1      25.150  21.316  -8.011  0.00  0.00    -0.532 OA
ENDBRANCH  29  31
ENDBRANCH   7  25
TORSDOF 5
ENDMDL
MODEL 8
REMARK VINA RESULT:      -7.0     11.859     13.171
REMARK  5 active torsions:
REMARK  status: ('A' for Active; 'I' for Inactive)
REMARK    1  A    between atoms: C_14  and  C_11 
REMARK    2  A    between atoms: N_30  and  C_11 
REMARK    3  A    between atoms: C_18  and  C_15 
REMARK    4  A    between atoms: N_26  and  C_16 
REMARK    5  A    between atoms: N_31  and  C_17 
ROOT
HETATM    1  C   UNK N   1      21.534  12.883   0.821  0.00  0.00     0.103 C 
HETATM    2  C   UNK N   1      20.077  13.104   0.437  0.00  0.00     0.085 C 
HETATM    3  C   UNK N   1      22.208  14.144   1.320  0.00  0.00     0.041 C 
HETATM    4  C   UNK N   1      20.141  15.300   1.283  0.00  0.00     0.682 C 
HETATM    5  N   UNK N   1      19.460  14.219   0.667  0.00  0.00    -0.205 N 
ATOM      6  HN  UNK N   1      18.480  14.320   0.405  1.00  0.00     0.183 HD
HETATM    7  N   UNK N   1      19.495  16.318   1.758  0.00  0.00    -0.192 N 
ATOM      8  HN  UNK N   1      18.504  16.420   1.542  1.00  0.00     0.184 HD
HETATM    9  N   UNK N   1      21.528  15.207   1.494  0.00  0.00    -0.194 N 
ATOM     10  HN  UNK N   1      22.020  16.044   1.805  1.00  0.00     0.184 HD
ENDROOT
BRANCH   3  11
HETATM   11  C   UNK N   1      23.571  14.163   1.879  0.00  0.00    -0.012 A 
HETATM   12  C   UNK N   1      24.441  13.090   1.600  0.00  0.00     0.013 A 
HETATM   13  C   UNK N   1      25.796  13.173   1.911  0.00  0.00     0.002 A 
HETATM   14  C   UNK N   1      26.302  14.350   2.452  0.00  0.00     0.009 A 
HETATM   15  C   UNK N   1      25.443  15.421   2.742  0.00  0.00    -0.037 A 
HETATM   16  C   UNK N   1      24.079  15.324   2.459  0.00  0.00     0.022 A 
BRANCH  15  17
HETATM   17  C   UNK N   1      25.981  16.727   3.217  0.00  0.00     0.188 C 
BRANCH  17  18
HETATM   18  N   UNK N   1      26.489  16.640   4.572  0.00  0.00    -0.283 N 
HETATM   19  C   UNK N   1      25.772  16.397   5.674  0.00  0.00     0.201 A 
HETATM   20  N   UNK N   1      26.575  16.438   6.755  0.00  0.00    -0.346 N 
HETATM   21  C   UNK N   1      27.801  16.721   6.255  0.00  0.00     0.198 A 
ATOM     22  HN  UNK N   1      26.319  16.288   7.731  1.00  0.00     0.167 HD
HETATM   23  N   UNK N   1      27.745  16.849   4.918  0.00  0.00    -0.293 N 
ATOM     24  HN  UNK N   1      28.521  17.066   4.292  1.00  0.00     0.188 HD
ENDBRANCH  17  18
ENDBRANCH  15  17
ENDBRANCH   3  11
BRANCH   7  25
HETATM   25  C   UNK N   1      20.135  17.309   2.582  0.00  0.00     0.051 A 
HETATM   26  C   UNK N   1      20.430  17.052   3.940  0.00  0.00     0.030 A 
HETATM   27  C   UNK N   1      21.088  17.984   4.731  0.00  0.00     0.005 A 
HETATM   28  C   UNK N   1      21.456  19.204   4.183  0.00  0.00     0.036 A 
HETATM   29  C   UNK N   1      21.148  19.508   2.848  0.00  0.00     0.105 A 
HETATM   30  C   UNK N   1      20.478  18.555   2.051  0.00  0.00     0.066 A 
BRANCH  29  31
HETATM   31  N   UNK N   1      21.525  20.765   2.307  0.00  0.00    -0.116 N 
HETATM   32  O   UNK N   1      22.514  21.312   2.688  0.00  0.00    -0.532 OA
HETATM   33  O   UNK N   1      20.856  21.281   1.461  0.00  0.00    -0.532 OA
ENDBRANCH  29  31
ENDBRANCH   7  25
TORSDOF 5
ENDMDL
MODEL 9
REMARK VINA RESULT:      -7.0      2.992      7.315
REMARK  5 active torsions:
REMARK  status: ('A' for Active; 'I' for Inactive)
REMARK    1  A    between atoms: C_14  and  C_11 
REMARK    2  A    between atoms: N_30  and  C_11 
REMARK    3  A    between atoms: C_18  and  C_15 
REMARK    4  A    between atoms: N_26  and  C_16 
REMARK    5  A    between atoms: N_31  and  C_17 
ROOT
HETATM    1  C   UNK N   1      29.343  26.523  -8.215  0.00  0.00     0.103 C 
HETATM    2  C   UNK N   1      30.834  26.523  -8.531  0.00  0.00     0.085 C 
HETATM    3  C   UNK N   1      28.892  25.261  -7.508  0.00  0.00     0.041 C 
HETATM    4  C   UNK N   1      31.138  24.535  -7.308  0.00  0.00     0.682 C 
HETATM    5  N   UNK N   1      31.635  25.604  -8.096  0.00  0.00    -0.205 N 
ATOM      6  HN  UNK N   1      32.628  25.650  -8.321  1.00  0.00     0.183 HD
HETATM    7  N   UNK N   1      31.939  23.757  -6.648  0.00  0.00    -0.192 N 
ATOM      8  HN  UNK N   1      32.941  23.812  -6.828  1.00  0.00     0.184 HD
HETATM    9  N   UNK N   1      29.750  24.395  -7.137  0.00  0.00    -0.194 N 
ATOM     10  HN  UNK N   1      29.407  23.545  -6.690  1.00  0.00     0.184 HD
ENDROOT
BRANCH   3  11
HETATM   11  C   UNK N   1      27.531  25.077  -6.975  0.00  0.00    -0.012 A 
HETATM   12  C   UNK N   1      27.119  23.789  -6.578  0.00  0.00     0.013 A 
HETATM   13  C   UNK N   1      25.938  23.609  -5.864  0.00  0.00     0.002 A 
HETATM   14  C   UNK N   1      25.188  24.720  -5.491  0.00  0.00     0.009 A 
HETATM   15  C   UNK N   1      25.585  26.006  -5.889  0.00  0.00    -0.037 A 
HETATM   16  C   UNK N   1      26.753  26.181  -6.634  0.00  0.00     0.022 A 
BRANCH  15  17
HETATM   17  C   UNK N   1      24.859  27.214  -5.407  0.00  0.00     0.188 C 
BRANCH  17  18
HETATM   18  N   UNK N   1      25.612  27.928  -4.395  0.00  0.00    -0.283 N 
HETATM   19  C   UNK N   1      26.073  27.423  -3.246  0.00  0.00     0.201 A 
HETATM   20  N   UNK N   1      26.684  28.393  -2.538  0.00  0.00    -0.346 N 
HETATM   21  C   UNK N   1      26.563  29.500  -3.306  0.00  0.00     0.198 A 
ATOM     22  HN  UNK N   1      27.137  28.312  -1.627  1.00  0.00     0.167 HD
HETATM   23  N   UNK N   1      25.902  29.215  -4.442  0.00  0.00    -0.293 N 
ATOM     24  HN  UNK N   1      25.670  29.864  -5.193  1.00  0.00     0.188 HD
ENDBRANCH  17  18
ENDBRANCH  15  17
ENDBRANCH   3  11
BRANCH   7  25
HETATM   25  C   UNK N   1      31.455  22.819  -5.671  0.00  0.00     0.051 A 
HETATM   26  C   UNK N   1      31.550  21.425  -5.884  0.00  0.00     0.030 A 
HETATM   27  C   UNK N   1      31.127  20.512  -4.928  0.00  0.00     0.005 A 
HETATM   28  C   UNK N   1      30.585  20.973  -3.738  0.00  0.00     0.036 A 
HETATM   29  C   UNK N   1      30.443  22.351  -3.506  0.00  0.00     0.105 A 
HETATM   30  C   UNK N   1      30.875  23.272  -4.484  0.00  0.00     0.066 A 
BRANCH  29  31
HETATM   31  N   UNK N   1      29.878  22.803  -2.285  0.00  0.00    -0.116 N 
HETATM   32  O   UNK N   1      28.700  22.962  -2.188  0.00  0.00    -0.532 OA
HETATM   33  O   UNK N   1      30.580  23.022  -1.342  0.00  0.00    -0.532 OA
ENDBRANCH  29  31
ENDBRANCH   7  25
TORSDOF 5
ENDMDL
