MODEL 1
REMARK VINA RESULT:      -9.1      0.000      0.000
REMARK  0 active torsions:
REMARK  status: ('A' for Active; 'I' for Inactive)
ROOT
HETATM    1  C   UNK N   1      32.224  21.130  -3.928  0.00  0.00     0.003 A 
HETATM    2  C   UNK N   1      31.582  22.008  -3.075  0.00  0.00     0.012 A 
HETATM    3  C   UNK N   1      31.633  20.775  -5.129  0.00  0.00     0.030 A 
HETATM    4  C   UNK N   1      25.363  26.471  -6.747  0.00  0.00    -0.021 C 
HETATM    5  C   UNK N   1      25.694  27.536  -5.741  0.00  0.00     0.049 C 
HETATM    6  C   UNK N   1      29.755  23.431  -2.520  0.00  0.00     0.015 A 
HETATM    7  C   UNK N   1      28.583  24.089  -2.845  0.00  0.00     0.037 A 
HETATM    8  C   UNK N   1      26.744  22.343  -9.994  0.00  0.00     0.078 C 
HETATM    9  C   UNK N   1      29.568  19.210  -8.561  0.00  0.00     0.054 A 
HETATM   10  C   UNK N   1      28.223  22.239 -10.332  0.00  0.00     0.120 C 
HETATM   11  C   UNK N   1      30.347  19.500  -7.273  0.00  0.00     0.135 A 
HETATM   12  C   UNK N   1      27.675  25.620  -6.681  0.00  0.00     0.069 C 
HETATM   13  C   UNK N   1      28.550  22.949  -4.990  0.00  0.00     0.051 A 
HETATM   14  C   UNK N   1      26.778  27.655  -3.561  0.00  0.00     0.067 C 
HETATM   15  C   UNK N   1      26.158  24.295 -11.542  0.00  0.00     0.114 A 
HETATM   16  C   UNK N   1      25.754  24.400  -7.945  0.00  0.00     0.163 C 
HETATM   17  C   UNK N   1      25.456  25.705 -10.063  0.00  0.00     0.183 A 
HETATM   18  C   UNK N   1      26.257  25.572  -7.173  0.00  0.00    -0.063 C 
HETATM   19  C   UNK N   1      30.365  22.573  -3.434  0.00  0.00    -0.024 A 
HETATM   20  C   UNK N   1      27.001  27.303  -4.967  0.00  0.00     0.126 C 
HETATM   21  C   UNK N   1      26.266  23.727 -10.293  0.00  0.00     0.029 A 
HETATM   22  C   UNK N   1      27.992  23.887  -4.086  0.00  0.00     0.070 A 
HETATM   23  C   UNK N   1      29.756  22.276  -4.691  0.00  0.00     0.004 A 
HETATM   24  C   UNK N   1      28.593  20.372  -8.762  0.00  0.00     0.171 A 
HETATM   25  C   UNK N   1      30.408  21.319  -5.564  0.00  0.00     0.048 A 
HETATM   26  C   UNK N   1      27.663  25.913  -5.187  0.00  0.00     0.150 C 
HETATM   27  C   UNK N   1      28.975  21.302  -7.651  0.00  0.00     0.246 A 
HETATM   28  N   UNK N   1      26.588  27.971  -2.463  0.00  0.00    -0.197 NA
HETATM   29  N   UNK N   1      25.652  25.539 -11.390  0.00  0.00    -0.360 N 
ATOM     30  HN  UNK N   1      25.455  26.216 -12.127  1.00  0.00     0.166 HD
HETATM   31  N   UNK N   1      28.768  20.896 -10.125  0.00  0.00    -0.409 N 
HETATM   32  N   UNK N   1      25.837  24.610  -9.381  0.00  0.00    -0.341 N 
HETATM   33  N   UNK N   1      29.894  20.790  -6.812  0.00  0.00    -0.315 N 
HETATM   34  O   UNK N   1      28.474  22.403  -7.514  0.00  0.00    -0.271 OA
HETATM   35  O   UNK N   1      27.108  24.816  -4.525  0.00  0.00    -0.344 OA
HETATM   36  H   UNK N   1      29.230  20.367 -10.864  0.00  0.00     0.154 HD
ENDROOT
TORSDOF 0
ENDMDL
MODEL 2
REMARK VINA RESULT:      -8.8     13.173     16.068
REMARK  0 active torsions:
REMARK  status: ('A' for Active; 'I' for Inactive)
ROOT
HETATM    1  C   UNK N   1      28.934  12.975   1.357  0.00  0.00     0.003 A 
HETATM    2  C   UNK N   1      28.268  14.095   1.818  0.00  0.00     0.012 A 
HETATM    3  C   UNK N   1      30.263  12.775   1.691  0.00  0.00     0.030 A 
HETATM    4  C   UNK N   1      32.119  17.979   8.312  0.00  0.00    -0.021 C 
HETATM    5  C   UNK N   1      30.738  18.398   8.727  0.00  0.00     0.049 C 
HETATM    6  C   UNK N   1      28.193  16.124   3.063  0.00  0.00     0.015 A 
HETATM    7  C   UNK N   1      28.745  17.025   3.956  0.00  0.00     0.037 A 
HETATM    8  C   UNK N   1      35.587  14.484   6.022  0.00  0.00     0.078 C 
HETATM    9  C   UNK N   1      34.517  12.431   2.216  0.00  0.00     0.054 A 
HETATM   10  C   UNK N   1      35.083  13.056   5.878  0.00  0.00     0.120 C 
HETATM   11  C   UNK N   1      33.056  12.512   1.759  0.00  0.00     0.135 A 
HETATM   12  C   UNK N   1      31.230  15.963   7.209  0.00  0.00     0.069 C 
HETATM   13  C   UNK N   1      30.806  15.739   3.964  0.00  0.00     0.051 A 
HETATM   14  C   UNK N   1      28.563  18.676   7.661  0.00  0.00     0.067 C 
HETATM   15  C   UNK N   1      36.089  14.437   8.531  0.00  0.00     0.114 A 
HETATM   16  C   UNK N   1      33.717  16.707   7.005  0.00  0.00     0.163 C 
HETATM   17  C   UNK N   1      34.766  16.019   9.174  0.00  0.00     0.183 A 
HETATM   18  C   UNK N   1      32.358  16.873   7.598  0.00  0.00    -0.063 C 
HETATM   19  C   UNK N   1      28.911  15.001   2.652  0.00  0.00    -0.024 A 
HETATM   20  C   UNK N   1      29.600  17.687   7.976  0.00  0.00     0.126 C 
HETATM   21  C   UNK N   1      35.413  14.928   7.438  0.00  0.00     0.029 A 
HETATM   22  C   UNK N   1      30.032  16.824   4.441  0.00  0.00     0.070 A 
HETATM   23  C   UNK N   1      30.262  14.794   3.065  0.00  0.00     0.004 A 
HETATM   24  C   UNK N   1      34.642  13.308   3.464  0.00  0.00     0.171 A 
HETATM   25  C   UNK N   1      30.973  13.643   2.543  0.00  0.00     0.048 A 
HETATM   26  C   UNK N   1      30.045  16.812   6.770  0.00  0.00     0.150 C 
HETATM   27  C   UNK N   1      33.222  13.721   3.703  0.00  0.00     0.246 A 
HETATM   28  N   UNK N   1      27.743  19.466   7.453  0.00  0.00    -0.197 NA
HETATM   29  N   UNK N   1      35.675  15.124   9.619  0.00  0.00    -0.360 N 
ATOM     30  HN  UNK N   1      35.987  14.995  10.581  1.00  0.00     0.166 HD
HETATM   31  N   UNK N   1      35.268  12.514   4.530  0.00  0.00    -0.409 N 
HETATM   32  N   UNK N   1      34.588  15.902   7.845  0.00  0.00    -0.341 N 
HETATM   33  N   UNK N   1      32.375  13.327   2.736  0.00  0.00    -0.315 N 
HETATM   34  O   UNK N   1      32.883  14.375   4.672  0.00  0.00    -0.271 OA
HETATM   35  O   UNK N   1      30.384  17.465   5.583  0.00  0.00    -0.344 OA
HETATM   36  H   UNK N   1      35.788  11.656   4.347  0.00  0.00     0.154 HD
ENDROOT
TORSDOF 0
ENDMDL
MODEL 3
REMARK VINA RESULT:      -8.3     12.764     16.678
REMARK  0 active torsions:
REMARK  status: ('A' for Active; 'I' for Inactive)
ROOT
HETATM    1  C   UNK N   1      26.311  19.002   4.280  0.00  0.00     0.003 A 
HETATM    2  C   UNK N   1      26.265  17.907   3.437  0.00  0.00     0.012 A 
HETATM    3  C   UNK N   1      27.115  18.973   5.408  0.00  0.00     0.030 A 
HETATM    4  C   UNK N   1      32.689  12.457   4.493  0.00  0.00    -0.021 C 
HETATM    5  C   UNK N   1      32.506  12.143   3.036  0.00  0.00     0.049 C 
HETATM    6  C   UNK N   1      26.942  15.710   2.818  0.00  0.00     0.015 A 
HETATM    7  C   UNK N   1      27.755  14.600   2.965  0.00  0.00     0.037 A 
HETATM    8  C   UNK N   1      32.529  15.857   8.724  0.00  0.00     0.078 C 
HETATM    9  C   UNK N   1      29.122  18.687   9.200  0.00  0.00     0.054 A 
HETATM   10  C   UNK N   1      32.532  17.339   8.377  0.00  0.00     0.120 C 
HETATM   11  C   UNK N   1      28.188  18.872   7.999  0.00  0.00     0.135 A 
HETATM   12  C   UNK N   1      31.809  14.735   4.163  0.00  0.00     0.069 C 
HETATM   13  C   UNK N   1      28.743  15.599   4.947  0.00  0.00     0.051 A 
HETATM   14  C   UNK N   1      30.728  12.334   1.379  0.00  0.00     0.067 C 
HETATM   15  C   UNK N   1      35.007  15.383   8.291  0.00  0.00     0.114 A 
HETATM   16  C   UNK N   1      32.312  13.740   6.516  0.00  0.00     0.163 C 
HETATM   17  C   UNK N   1      34.803  13.885   6.747  0.00  0.00     0.183 A 
HETATM   18  C   UNK N   1      32.355  13.636   5.028  0.00  0.00    -0.063 C 
HETATM   19  C   UNK N   1      27.053  16.792   3.690  0.00  0.00    -0.024 A 
HETATM   20  C   UNK N   1      31.583  13.113   2.282  0.00  0.00     0.126 C 
HETATM   21  C   UNK N   1      33.670  15.186   8.029  0.00  0.00     0.029 A 
HETATM   22  C   UNK N   1      28.682  14.548   3.999  0.00  0.00     0.070 A 
HETATM   23  C   UNK N   1      27.938  16.752   4.811  0.00  0.00     0.004 A 
HETATM   24  C   UNK N   1      30.118  17.588   8.823  0.00  0.00     0.171 A 
HETATM   25  C   UNK N   1      27.950  17.882   5.720  0.00  0.00     0.048 A 
HETATM   26  C   UNK N   1      30.820  14.132   3.174  0.00  0.00     0.150 C 
HETATM   27  C   UNK N   1      29.764  17.317   7.393  0.00  0.00     0.246 A 
HETATM   28  N   UNK N   1      30.087  11.703   0.650  0.00  0.00    -0.197 NA
HETATM   29  N   UNK N   1      35.713  14.564   7.479  0.00  0.00    -0.360 N 
ATOM     30  HN  UNK N   1      36.728  14.476   7.430  1.00  0.00     0.166 HD
HETATM   31  N   UNK N   1      31.479  18.091   9.062  0.00  0.00    -0.409 N 
HETATM   32  N   UNK N   1      33.552  14.263   7.066  0.00  0.00    -0.341 N 
HETATM   33  N   UNK N   1      28.673  17.982   6.972  0.00  0.00    -0.315 N 
HETATM   34  O   UNK N   1      30.394  16.543   6.695  0.00  0.00    -0.271 OA
HETATM   35  O   UNK N   1      29.709  13.671   3.884  0.00  0.00    -0.344 OA
HETATM   36  H   UNK N   1      31.673  18.897   9.655  0.00  0.00     0.154 HD
ENDROOT
TORSDOF 0
ENDMDL
MODEL 4
REMARK VINA RESULT:      -8.2     13.387     15.601
REMARK  0 active torsions:
REMARK  status: ('A' for Active; 'I' for Inactive)
ROOT
HETATM    1  C   UNK N   1      34.449  16.189   8.411  0.00  0.00     0.003 A 
HETATM    2  C   UNK N   1      34.915  15.688   7.209  0.00  0.00     0.012 A 
HETATM    3  C   UNK N   1      33.149  16.658   8.506  0.00  0.00     0.030 A 
HETATM    4  C   UNK N   1      28.790  13.724   1.668  0.00  0.00    -0.021 C 
HETATM    5  C   UNK N   1      29.748  12.687   1.157  0.00  0.00     0.049 C 
HETATM    6  C   UNK N   1      34.612  15.123   4.917  0.00  0.00     0.015 A 
HETATM    7  C   UNK N   1      33.812  14.947   3.801  0.00  0.00     0.037 A 
HETATM    8  C   UNK N   1      26.682  16.762   5.646  0.00  0.00     0.078 C 
HETATM    9  C   UNK N   1      29.344  18.654   8.674  0.00  0.00     0.054 A 
HETATM   10  C   UNK N   1      26.937  16.262   7.060  0.00  0.00     0.120 C 
HETATM   11  C   UNK N   1      30.800  18.177   8.729  0.00  0.00     0.135 A 
HETATM   12  C   UNK N   1      29.798  13.620   3.914  0.00  0.00     0.069 C 
HETATM   13  C   UNK N   1      31.923  15.857   5.028  0.00  0.00     0.051 A 
HETATM   14  C   UNK N   1      32.157  12.312   1.193  0.00  0.00     0.067 C 
HETATM   15  C   UNK N   1      24.862  15.083   4.996  0.00  0.00     0.114 A 
HETATM   16  C   UNK N   1      28.015  15.395   3.246  0.00  0.00     0.163 C 
HETATM   17  C   UNK N   1      25.836  14.160   3.304  0.00  0.00     0.183 A 
HETATM   18  C   UNK N   1      28.814  14.176   2.927  0.00  0.00    -0.063 C 
HETATM   19  C   UNK N   1      34.075  15.613   6.106  0.00  0.00    -0.024 A 
HETATM   20  C   UNK N   1      30.975  12.452   2.051  0.00  0.00     0.126 C 
HETATM   21  C   UNK N   1      26.103  15.652   4.828  0.00  0.00     0.029 A 
HETATM   22  C   UNK N   1      32.463  15.274   3.855  0.00  0.00     0.070 A 
HETATM   23  C   UNK N   1      32.713  16.032   6.186  0.00  0.00     0.004 A 
HETATM   24  C   UNK N   1      28.688  17.947   7.486  0.00  0.00     0.171 A 
HETATM   25  C   UNK N   1      32.239  16.600   7.433  0.00  0.00     0.048 A 
HETATM   26  C   UNK N   1      31.146  13.460   3.224  0.00  0.00     0.150 C 
HETATM   27  C   UNK N   1      29.775  17.023   7.029  0.00  0.00     0.246 A 
HETATM   28  N   UNK N   1      33.070  12.172   0.494  0.00  0.00    -0.197 NA
HETATM   29  N   UNK N   1      24.701  14.145   4.037  0.00  0.00    -0.360 N 
ATOM     30  HN  UNK N   1      23.888  13.546   3.894  1.00  0.00     0.166 HD
HETATM   31  N   UNK N   1      27.452  17.303   7.953  0.00  0.00    -0.409 N 
HETATM   32  N   UNK N   1      26.705  15.069   3.783  0.00  0.00    -0.341 N 
HETATM   33  N   UNK N   1      30.940  17.198   7.678  0.00  0.00    -0.315 N 
HETATM   34  O   UNK N   1      29.616  16.213   6.134  0.00  0.00    -0.271 OA
HETATM   35  O   UNK N   1      31.643  14.730   2.923  0.00  0.00    -0.344 OA
HETATM   36  H   UNK N   1      26.992  17.559   8.825  0.00  0.00     0.154 HD
ENDROOT
TORSDOF 0
ENDMDL
MODEL 5
REMARK VINA RESULT:      -8.2     12.403     14.514
REMARK  0 active torsions:
REMARK  status: ('A' for Active; 'I' for Inactive)
ROOT
HETATM    1  C   UNK N   1      22.901  12.461  -0.096  0.00  0.00     0.003 A 
HETATM    2  C   UNK N   1      24.104  11.833   0.166  0.00  0.00     0.012 A 
HETATM    3  C   UNK N   1      22.510  13.551   0.665  0.00  0.00     0.030 A 
HETATM    4  C   UNK N   1      29.457  16.438   4.881  0.00  0.00    -0.021 C 
HETATM    5  C   UNK N   1      30.545  15.702   4.152  0.00  0.00     0.049 C 
HETATM    6  C   UNK N   1      26.133  11.621   1.393  0.00  0.00     0.015 A 
HETATM    7  C   UNK N   1      27.054  12.089   2.314  0.00  0.00     0.037 A 
HETATM    8  C   UNK N   1      24.505  18.650   5.141  0.00  0.00     0.078 C 
HETATM    9  C   UNK N   1      21.007  16.534   3.372  0.00  0.00     0.054 A 
HETATM   10  C   UNK N   1      23.849  18.954   3.802  0.00  0.00     0.120 C 
HETATM   11  C   UNK N   1      21.296  15.347   2.447  0.00  0.00     0.135 A 
HETATM   12  C   UNK N   1      27.929  16.175   2.965  0.00  0.00     0.069 C 
HETATM   13  C   UNK N   1      25.552  13.916   2.869  0.00  0.00     0.051 A 
HETATM   14  C   UNK N   1      30.770  13.605   2.928  0.00  0.00     0.067 C 
HETATM   15  C   UNK N   1      26.156  20.605   5.184  0.00  0.00     0.114 A 
HETATM   16  C   UNK N   1      27.165  17.128   5.264  0.00  0.00     0.163 C 
HETATM   17  C   UNK N   1      28.004  19.489   5.284  0.00  0.00     0.183 A 
HETATM   18  C   UNK N   1      28.244  16.645   4.355  0.00  0.00    -0.063 C 
HETATM   19  C   UNK N   1      24.946  12.313   1.160  0.00  0.00    -0.024 A 
HETATM   20  C   UNK N   1      30.068  14.893   2.935  0.00  0.00     0.126 C 
HETATM   21  C   UNK N   1      25.870  19.259   5.171  0.00  0.00     0.029 A 
HETATM   22  C   UNK N   1      26.793  13.252   3.028  0.00  0.00     0.070 A 
HETATM   23  C   UNK N   1      24.601  13.470   1.924  0.00  0.00     0.004 A 
HETATM   24  C   UNK N   1      22.352  16.998   3.935  0.00  0.00     0.171 A 
HETATM   25  C   UNK N   1      23.318  14.099   1.680  0.00  0.00     0.048 A 
HETATM   26  C   UNK N   1      28.525  14.788   2.771  0.00  0.00     0.150 C 
HETATM   27  C   UNK N   1      23.321  16.129   3.194  0.00  0.00     0.246 A 
HETATM   28  N   UNK N   1      31.360  12.609   2.925  0.00  0.00    -0.197 NA
HETATM   29  N   UNK N   1      27.500  20.742   5.251  0.00  0.00    -0.360 N 
ATOM     30  HN  UNK N   1      28.026  21.615   5.275  1.00  0.00     0.166 HD
HETATM   31  N   UNK N   1      22.480  18.444   3.703  0.00  0.00    -0.409 N 
HETATM   32  N   UNK N   1      27.019  18.574   5.225  0.00  0.00    -0.341 N 
HETATM   33  N   UNK N   1      22.731  15.194   2.428  0.00  0.00    -0.315 N 
HETATM   34  O   UNK N   1      24.528  16.248   3.304  0.00  0.00    -0.271 OA
HETATM   35  O   UNK N   1      27.843  13.892   3.598  0.00  0.00    -0.344 OA
HETATM   36  H   UNK N   1      21.682  19.042   3.491  0.00  0.00     0.154 HD
ENDROOT
TORSDOF 0
ENDMDL
MODEL 6
REMARK VINA RESULT:      -8.0     12.590     14.679
REMARK  0 active torsions:
REMARK  status: ('A' for Active; 'I' for Inactive)
ROOT
HETATM    1  C   UNK N   1      26.798  20.548   5.253  0.00  0.00     0.003 A 
HETATM    2  C   UNK N   1      25.554  20.144   4.805  0.00  0.00     0.012 A 
HETATM    3  C   UNK N   1      27.780  19.606   5.510  0.00  0.00     0.030 A 
HETATM    4  C   UNK N   1      25.384  12.224   1.751  0.00  0.00    -0.021 C 
HETATM    5  C   UNK N   1      24.271  12.714   0.869  0.00  0.00     0.049 C 
HETATM    6  C   UNK N   1      24.014  18.454   4.143  0.00  0.00     0.015 A 
HETATM    7  C   UNK N   1      23.710  17.144   3.814  0.00  0.00     0.037 A 
HETATM    8  C   UNK N   1      30.004  12.968   4.506  0.00  0.00     0.078 C 
HETATM    9  C   UNK N   1      30.630  16.689   6.873  0.00  0.00     0.054 A 
HETATM   10  C   UNK N   1      30.832  14.174   4.088  0.00  0.00     0.120 C 
HETATM   11  C   UNK N   1      29.653  17.846   6.637  0.00  0.00     0.135 A 
HETATM   12  C   UNK N   1      26.357  14.485   1.863  0.00  0.00     0.069 C 
HETATM   13  C   UNK N   1      25.961  16.477   4.439  0.00  0.00     0.051 A 
HETATM   14  C   UNK N   1      22.653  14.537   0.886  0.00  0.00     0.067 C 
HETATM   15  C   UNK N   1      30.590  11.434   2.542  0.00  0.00     0.114 A 
HETATM   16  C   UNK N   1      27.217  12.501   3.313  0.00  0.00     0.163 C 
HETATM   17  C   UNK N   1      28.606  11.124   1.747  0.00  0.00     0.183 A 
HETATM   18  C   UNK N   1      26.338  13.030   2.231  0.00  0.00    -0.063 C 
HETATM   19  C   UNK N   1      25.295  18.800   4.569  0.00  0.00    -0.024 A 
HETATM   20  C   UNK N   1      24.089  14.240   0.855  0.00  0.00     0.126 C 
HETATM   21  C   UNK N   1      29.687  12.146   3.298  0.00  0.00     0.029 A 
HETATM   22  C   UNK N   1      24.682  16.157   3.922  0.00  0.00     0.070 A 
HETATM   23  C   UNK N   1      26.303  17.808   4.766  0.00  0.00     0.004 A 
HETATM   24  C   UNK N   1      30.128  15.506   6.042  0.00  0.00     0.171 A 
HETATM   25  C   UNK N   1      27.592  18.229   5.281  0.00  0.00     0.048 A 
HETATM   26  C   UNK N   1      24.932  15.019   1.905  0.00  0.00     0.150 C 
HETATM   27  C   UNK N   1      28.980  16.111   5.293  0.00  0.00     0.246 A 
HETATM   28  N   UNK N   1      21.514  14.747   0.878  0.00  0.00    -0.197 NA
HETATM   29  N   UNK N   1      29.904  10.797   1.567  0.00  0.00    -0.360 N 
ATOM     30  HN  UNK N   1      30.289  10.190   0.843  1.00  0.00     0.166 HD
HETATM   31  N   UNK N   1      31.240  15.010   5.219  0.00  0.00    -0.409 N 
HETATM   32  N   UNK N   1      28.461  11.956   2.794  0.00  0.00    -0.341 N 
HETATM   33  N   UNK N   1      28.695  17.371   5.668  0.00  0.00    -0.315 N 
HETATM   34  O   UNK N   1      28.352  15.501   4.447  0.00  0.00    -0.271 OA
HETATM   35  O   UNK N   1      24.492  15.006   3.231  0.00  0.00    -0.344 OA
HETATM   36  H   UNK N   1      32.215  15.230   5.418  0.00  0.00     0.154 HD
ENDROOT
TORSDOF 0
ENDMDL
MODEL 7
REMARK VINA RESULT:      -8.0     13.045     15.913
REMARK  0 active torsions:
REMARK  status: ('A' for Active; 'I' for Inactive)
ROOT
HETATM    1  C   UNK N   1      30.323  18.890   8.946  0.00  0.00     0.003 A 
HETATM    2  C   UNK N   1      29.136  18.510   8.347  0.00  0.00     0.012 A 
HETATM    3  C   UNK N   1      31.470  18.140   8.743  0.00  0.00     0.030 A 
HETATM    4  C   UNK N   1      30.093  13.021   1.941  0.00  0.00    -0.021 C 
HETATM    5  C   UNK N   1      28.846  13.642   1.379  0.00  0.00     0.049 C 
HETATM    6  C   UNK N   1      27.862  17.058   6.955  0.00  0.00     0.015 A 
HETATM    7  C   UNK N   1      27.764  16.017   6.048  0.00  0.00     0.037 A 
HETATM    8  C   UNK N   1      34.720  13.272   4.773  0.00  0.00     0.078 C 
HETATM    9  C   UNK N   1      34.879  15.524   8.613  0.00  0.00     0.054 A 
HETATM   10  C   UNK N   1      35.290  14.667   4.977  0.00  0.00     0.120 C 
HETATM   11  C   UNK N   1      33.702  16.451   8.935  0.00  0.00     0.135 A 
HETATM   12  C   UNK N   1      30.667  15.114   3.109  0.00  0.00     0.069 C 
HETATM   13  C   UNK N   1      30.139  15.577   6.313  0.00  0.00     0.051 A 
HETATM   14  C   UNK N   1      26.943  14.907   2.230  0.00  0.00     0.067 C 
HETATM   15  C   UNK N   1      35.403  12.959   2.326  0.00  0.00     0.114 A 
HETATM   16  C   UNK N   1      31.969  12.888   3.471  0.00  0.00     0.163 C 
HETATM   17  C   UNK N   1      33.445  12.681   1.457  0.00  0.00     0.183 A 
HETATM   18  C   UNK N   1      30.928  13.679   2.752  0.00  0.00    -0.063 C 
HETATM   19  C   UNK N   1      29.094  17.405   7.507  0.00  0.00    -0.024 A 
HETATM   20  C   UNK N   1      28.403  14.936   2.079  0.00  0.00     0.126 C 
HETATM   21  C   UNK N   1      34.454  13.056   3.318  0.00  0.00     0.029 A 
HETATM   22  C   UNK N   1      28.897  15.296   5.692  0.00  0.00     0.070 A 
HETATM   23  C   UNK N   1      30.271  16.645   7.228  0.00  0.00     0.004 A 
HETATM   24  C   UNK N   1      34.524  14.787   7.320  0.00  0.00     0.171 A 
HETATM   25  C   UNK N   1      31.505  17.017   7.894  0.00  0.00     0.048 A 
HETATM   26  C   UNK N   1      29.179  15.287   3.380  0.00  0.00     0.150 C 
HETATM   27  C   UNK N   1      33.233  15.439   6.929  0.00  0.00     0.246 A 
HETATM   28  N   UNK N   1      25.788  14.877   2.308  0.00  0.00    -0.197 NA
HETATM   29  N   UNK N   1      34.762  12.727   1.159  0.00  0.00    -0.360 N 
ATOM     30  HN  UNK N   1      35.187  12.608   0.239  1.00  0.00     0.166 HD
HETATM   31  N   UNK N   1      35.637  14.948   6.372  0.00  0.00    -0.409 N 
HETATM   32  N   UNK N   1      33.242  12.891   2.770  0.00  0.00    -0.341 N 
HETATM   33  N   UNK N   1      32.767  16.304   7.846  0.00  0.00    -0.315 N 
HETATM   34  O   UNK N   1      32.656  15.181   5.888  0.00  0.00    -0.271 OA
HETATM   35  O   UNK N   1      28.855  14.581   4.541  0.00  0.00    -0.344 OA
HETATM   36  H   UNK N   1      36.572  15.231   6.662  0.00  0.00     0.154 HD
ENDROOT
TORSDOF 0
ENDMDL
MODEL 8
REMARK VINA RESULT:      -8.0     23.305     27.405
REMARK  0 active torsions:
REMARK  status: ('A' for Active; 'I' for Inactive)
ROOT
HETATM    1  C   UNK N   1      35.894  11.641  20.009  0.00  0.00     0.003 A 
HETATM    2  C   UNK N   1      35.333  12.533  19.115  0.00  0.00     0.012 A 
HETATM    3  C   UNK N   1      36.376  10.422  19.559  0.00  0.00     0.030 A 
HETATM    4  C   UNK N   1      37.210  10.936  10.991  0.00  0.00    -0.021 C 
HETATM    5  C   UNK N   1      37.071  12.418  10.790  0.00  0.00     0.049 C 
HETATM    6  C   UNK N   1      34.687  13.166  16.913  0.00  0.00     0.015 A 
HETATM    7  C   UNK N   1      34.679  12.971  15.543  0.00  0.00     0.037 A 
HETATM    8  C   UNK N   1      38.497   6.601  13.998  0.00  0.00     0.078 C 
HETATM    9  C   UNK N   1      37.332   6.425  18.294  0.00  0.00     0.054 A 
HETATM   10  C   UNK N   1      39.402   6.873  15.190  0.00  0.00     0.120 C 
HETATM   11  C   UNK N   1      36.843   7.724  18.945  0.00  0.00     0.135 A 
HETATM   12  C   UNK N   1      37.863  11.265  13.344  0.00  0.00     0.069 C 
HETATM   13  C   UNK N   1      35.794  10.835  15.853  0.00  0.00     0.051 A 
HETATM   14  C   UNK N   1      35.967  14.275  11.920  0.00  0.00     0.067 C 
HETATM   15  C   UNK N   1      40.272   6.740  12.160  0.00  0.00     0.114 A 
HETATM   16  C   UNK N   1      37.385   8.918  12.324  0.00  0.00     0.163 C 
HETATM   17  C   UNK N   1      39.443   8.367  11.005  0.00  0.00     0.183 A 
HETATM   18  C   UNK N   1      37.553  10.392  12.163  0.00  0.00    -0.063 C 
HETATM   19  C   UNK N   1      35.289  12.236  17.760  0.00  0.00    -0.024 A 
HETATM   20  C   UNK N   1      36.988  13.235  12.089  0.00  0.00     0.126 C 
HETATM   21  C   UNK N   1      39.117   7.177  12.766  0.00  0.00     0.029 A 
HETATM   22  C   UNK N   1      35.260  11.832  14.999  0.00  0.00     0.070 A 
HETATM   23  C   UNK N   1      35.831  11.016  17.253  0.00  0.00     0.004 A 
HETATM   24  C   UNK N   1      37.546   6.725  16.809  0.00  0.00     0.171 A 
HETATM   25  C   UNK N   1      36.376  10.060  18.198  0.00  0.00     0.048 A 
HETATM   26  C   UNK N   1      36.847  12.399  13.392  0.00  0.00     0.150 C 
HETATM   27  C   UNK N   1      37.290   8.200  16.744  0.00  0.00     0.246 A 
HETATM   28  N   UNK N   1      35.181  15.108  11.752  0.00  0.00    -0.197 NA
HETATM   29  N   UNK N   1      40.473   7.494  11.056  0.00  0.00    -0.360 N 
ATOM     30  HN  UNK N   1      41.245   7.418  10.394  1.00  0.00     0.166 HD
HETATM   31  N   UNK N   1      38.901   6.292  16.437  0.00  0.00    -0.409 N 
HETATM   32  N   UNK N   1      38.613   8.191  12.050  0.00  0.00    -0.341 N 
HETATM   33  N   UNK N   1      36.853   8.723  17.903  0.00  0.00    -0.315 N 
HETATM   34  O   UNK N   1      37.441   8.849  15.724  0.00  0.00    -0.271 OA
HETATM   35  O   UNK N   1      35.593  11.858  13.686  0.00  0.00    -0.344 OA
HETATM   36  H   UNK N   1      39.446   5.641  17.001  0.00  0.00     0.154 HD
ENDROOT
TORSDOF 0
ENDMDL
MODEL 9
REMARK VINA RESULT:      -7.9      2.404      3.612
REMARK  0 active torsions:
REMARK  status: ('A' for Active; 'I' for Inactive)
ROOT
HETATM    1  C   UNK N   1      35.157  20.725  -4.304  0.00  0.00     0.003 A 
HETATM    2  C   UNK N   1      34.195  21.212  -3.438  0.00  0.00     0.012 A 
HETATM    3  C   UNK N   1      34.779  20.172  -5.517  0.00  0.00     0.030 A 
HETATM    4  C   UNK N   1      26.635  22.550  -7.063  0.00  0.00    -0.021 C 
HETATM    5  C   UNK N   1      26.465  23.630  -6.033  0.00  0.00     0.049 C 
HETATM    6  C   UNK N   1      31.930  21.670  -2.867  0.00  0.00     0.015 A 
HETATM    7  C   UNK N   1      30.586  21.750  -3.187  0.00  0.00     0.037 A 
HETATM    8  C   UNK N   1      29.687  19.525 -10.383  0.00  0.00     0.078 C 
HETATM    9  C   UNK N   1      33.608  17.930  -8.994  0.00  0.00     0.054 A 
HETATM   10  C   UNK N   1      31.060  20.092 -10.712  0.00  0.00     0.120 C 
HETATM   11  C   UNK N   1      34.183  18.507  -7.695  0.00  0.00     0.135 A 
HETATM   12  C   UNK N   1      29.085  22.805  -6.997  0.00  0.00     0.069 C 
HETATM   13  C   UNK N   1      31.054  20.759  -5.355  0.00  0.00     0.051 A 
HETATM   14  C   UNK N   1      27.391  24.169  -3.843  0.00  0.00     0.067 C 
HETATM   15  C   UNK N   1      28.296  21.051 -11.894  0.00  0.00     0.114 A 
HETATM   16  C   UNK N   1      27.897  20.890  -8.299  0.00  0.00     0.163 C 
HETATM   17  C   UNK N   1      27.048  21.975 -10.392  0.00  0.00     0.183 A 
HETATM   18  C   UNK N   1      27.833  22.147  -7.500  0.00  0.00    -0.063 C 
HETATM   19  C   UNK N   1      32.853  21.189  -3.794  0.00  0.00    -0.024 A 
HETATM   20  C   UNK N   1      27.743  23.981  -5.255  0.00  0.00     0.126 C 
HETATM   21  C   UNK N   1      28.647  20.562 -10.657  0.00  0.00     0.029 A 
HETATM   22  C   UNK N   1      30.142  21.335  -4.436  0.00  0.00     0.070 A 
HETATM   23  C   UNK N   1      32.434  20.681  -5.061  0.00  0.00     0.004 A 
HETATM   24  C   UNK N   1      32.220  18.547  -9.178  0.00  0.00     0.171 A 
HETATM   25  C   UNK N   1      33.440  20.129  -5.949  0.00  0.00     0.048 A 
HETATM   26  C   UNK N   1      28.950  23.031  -5.498  0.00  0.00     0.150 C 
HETATM   27  C   UNK N   1      32.155  19.525  -8.046  0.00  0.00     0.246 A 
HETATM   28  N   UNK N   1      27.084  24.344  -2.740  0.00  0.00    -0.197 NA
HETATM   29  N   UNK N   1      27.293  21.940 -11.721  0.00  0.00    -0.360 N 
ATOM     30  HN  UNK N   1      26.816  22.477 -12.445  1.00  0.00     0.166 HD
HETATM   31  N   UNK N   1      32.142  19.122 -10.529  0.00  0.00    -0.409 N 
HETATM   32  N   UNK N   1      27.875  21.146  -9.730  0.00  0.00    -0.341 N 
HETATM   33  N   UNK N   1      33.208  19.454  -7.211  0.00  0.00    -0.315 N 
HETATM   34  O   UNK N   1      31.220  20.289  -7.889  0.00  0.00    -0.271 OA
HETATM   35  O   UNK N   1      28.937  21.787  -4.862  0.00  0.00    -0.344 OA
HETATM   36  H   UNK N   1      32.788  18.868 -11.275  0.00  0.00     0.154 HD
ENDROOT
TORSDOF 0
ENDMDL
