MODEL 1
REMARK VINA RESULT:      -7.8      0.000      0.000
REMARK  9 active torsions:
REMARK  status: ('A' for Active; 'I' for Inactive)
REMARK    1  A    between atoms: C_16  and  C_14 
REMARK    2  A    between atoms: C_19  and  C_14 
REMARK    3  A    between atoms: C_17  and  C_15 
REMARK    4  A    between atoms: N_25  and  C_15 
REMARK    5  A    between atoms: C_18  and  N_23 
REMARK    6  A    between atoms: C_22  and  C_19 
REMARK    7  A    between atoms: C_19  and  N_24 
REMARK    8  A    between atoms: C_20  and  C_21 
REMARK    9  A    between atoms: O_28  and  C_21 
REMARK       I    between atoms: N_27  and  C_22 
ROOT
HETATM    1  C   UNK N   1      34.622  10.864  10.810  0.00  0.00     0.022 C 
HETATM    2  C   UNK N   1      34.243  12.113  10.028  0.00  0.00     0.035 C 
HETATM    3  C   UNK N   1      34.928  11.356  12.219  0.00  0.00     0.127 C 
HETATM    4  C   UNK N   1      35.005  13.223  10.722  0.00  0.00     0.161 C 
HETATM    5  C   UNK N   1      35.582  13.568  13.129  0.00  0.00     0.243 C 
HETATM    6  N   UNK N   1      35.124  12.769  12.099  0.00  0.00    -0.338 N 
HETATM    7  O   UNK N   1      35.650  14.774  12.962  0.00  0.00    -0.271 OA
ENDROOT
BRANCH   4   8
HETATM    8  C   UNK N   1      34.418  14.585  10.458  0.00  0.00     0.135 C 
HETATM    9  N   UNK N   1      35.011  15.439   9.695  0.00  0.00    -0.372 N 
ATOM     10  HN  UNK N   1      35.907  15.190   9.278  1.00  0.00     0.161 HD
BRANCH   9  11
HETATM   11  C   UNK N   1      34.444  16.747   9.412  0.00  0.00     0.126 C 
BRANCH  11  12
HETATM   12  C   UNK N   1      33.532  16.687   8.184  0.00  0.00     0.003 C 
HETATM   13  C   UNK N   1      32.115  17.170   8.514  0.00  0.00     0.008 C 
HETATM   14  C   UNK N   1      31.239  17.378   7.258  0.00  0.00     0.025 C 
HETATM   15  C   UNK N   1      31.909  16.903   5.961  0.00  0.00     0.074 C 
HETATM   16  C   UNK N   1      33.275  17.571   5.796  0.00  0.00     0.025 C 
HETATM   17  C   UNK N   1      34.121  17.561   7.074  0.00  0.00     0.008 C 
BRANCH  15  18
HETATM   18  N   UNK N   1      31.078  17.239   4.822  0.00  0.00    -0.426 N 
HETATM   19  H   UNK N   1      30.781  16.512   4.171  0.00  0.00     0.150 HD
HETATM   20  H   UNK N   1      30.789  18.206   4.671  0.00  0.00     0.150 HD
ENDBRANCH  15  18
ENDBRANCH  11  12
ENDBRANCH   9  11
BRANCH   8  21
HETATM   21  O   UNK N   1      33.250  14.902  11.060  0.00  0.00    -0.348 OA
HETATM   22  H   UNK N   1      32.360  15.173  10.944  0.00  0.00     0.219 HD
ENDBRANCH   8  21
ENDBRANCH   4   8
BRANCH   5  23
HETATM   23  C   UNK N   1      36.140  13.014  14.459  0.00  0.00     0.173 C 
BRANCH  23  24
HETATM   24  C   UNK N   1      35.260  11.985  15.209  0.00  0.00     0.073 C 
BRANCH  24  25
HETATM   25  C   UNK N   1      35.273  12.190  16.711  0.00  0.00    -0.056 A 
HETATM   26  C   UNK N   1      35.171  13.475  17.266  0.00  0.00     0.007 A 
HETATM   27  C   UNK N   1      35.172  13.658  18.651  0.00  0.00     0.001 A 
HETATM   28  C   UNK N   1      35.277  12.554  19.499  0.00  0.00     0.000 A 
HETATM   29  C   UNK N   1      35.388  11.269  18.958  0.00  0.00     0.001 A 
HETATM   30  C   UNK N   1      35.387  11.087  17.567  0.00  0.00     0.007 A 
ENDBRANCH  24  25
ENDBRANCH  23  24
BRANCH  23  31
HETATM   31  N   UNK N   1      37.582  12.718  14.428  0.00  0.00    -0.413 N 
HETATM   32  C   UNK N   1      37.877  11.291  14.335  0.00  0.00     0.140 C 
HETATM   33  H   UNK N   1      38.303  13.439  14.467  0.00  0.00     0.153 HD
ENDBRANCH  23  31
ENDBRANCH   5  23
TORSDOF 9
ENDMDL
MODEL 2
REMARK VINA RESULT:      -7.7      1.307      1.932
REMARK  9 active torsions:
REMARK  status: ('A' for Active; 'I' for Inactive)
REMARK    1  A    between atoms: C_16  and  C_14 
REMARK    2  A    between atoms: C_19  and  C_14 
REMARK    3  A    between atoms: C_17  and  C_15 
REMARK    4  A    between atoms: N_25  and  C_15 
REMARK    5  A    between atoms: C_18  and  N_23 
REMARK    6  A    between atoms: C_22  and  C_19 
REMARK    7  A    between atoms: C_19  and  N_24 
REMARK    8  A    between atoms: C_20  and  C_21 
REMARK    9  A    between atoms: O_28  and  C_21 
REMARK       I    between atoms: N_27  and  C_22 
ROOT
HETATM    1  C   UNK N   1      34.359  11.177   9.833  0.00  0.00     0.022 C 
HETATM    2  C   UNK N   1      33.719  12.438   9.274  0.00  0.00     0.035 C 
HETATM    3  C   UNK N   1      34.950  11.592  11.173  0.00  0.00     0.127 C 
HETATM    4  C   UNK N   1      34.542  13.561   9.873  0.00  0.00     0.161 C 
HETATM    5  C   UNK N   1      35.640  13.784  12.107  0.00  0.00     0.243 C 
HETATM    6  N   UNK N   1      35.012  13.023  11.140  0.00  0.00    -0.338 N 
HETATM    7  O   UNK N   1      35.581  14.999  12.039  0.00  0.00    -0.271 OA
ENDROOT
BRANCH   4   8
HETATM    8  C   UNK N   1      33.814  14.880   9.874  0.00  0.00     0.135 C 
HETATM    9  N   UNK N   1      34.046  15.779   8.979  0.00  0.00    -0.372 N 
ATOM     10  HN  UNK N   1      34.753  15.596   8.267  1.00  0.00     0.161 HD
BRANCH   9  11
HETATM   11  C   UNK N   1      33.333  17.046   8.953  0.00  0.00     0.126 C 
BRANCH  11  12
HETATM   12  C   UNK N   1      32.753  17.311   7.562  0.00  0.00     0.003 C 
HETATM   13  C   UNK N   1      33.852  17.358   6.495  0.00  0.00     0.008 C 
HETATM   14  C   UNK N   1      33.296  17.357   5.053  0.00  0.00     0.025 C 
HETATM   15  C   UNK N   1      31.768  17.478   4.989  0.00  0.00     0.074 C 
HETATM   16  C   UNK N   1      31.114  16.381   5.830  0.00  0.00     0.025 C 
HETATM   17  C   UNK N   1      31.752  16.207   7.213  0.00  0.00     0.008 C 
BRANCH  15  18
HETATM   18  N   UNK N   1      31.318  17.351   3.617  0.00  0.00    -0.426 N 
HETATM   19  H   UNK N   1      31.062  16.437   3.243  0.00  0.00     0.150 HD
HETATM   20  H   UNK N   1      31.256  18.179   3.023  0.00  0.00     0.150 HD
ENDBRANCH  15  18
ENDBRANCH  11  12
ENDBRANCH   9  11
BRANCH   8  21
HETATM   21  O   UNK N   1      32.914  15.109  10.856  0.00  0.00    -0.348 OA
HETATM   22  H   UNK N   1      32.158  15.594  11.124  0.00  0.00     0.219 HD
ENDBRANCH   8  21
ENDBRANCH   4   8
BRANCH   5  23
HETATM   23  C   UNK N   1      36.532  13.188  13.220  0.00  0.00     0.173 C 
BRANCH  23  24
HETATM   24  C   UNK N   1      35.819  12.726  14.513  0.00  0.00     0.073 C 
BRANCH  24  25
HETATM   25  C   UNK N   1      36.062  13.661  15.681  0.00  0.00    -0.056 A 
HETATM   26  C   UNK N   1      37.014  14.689  15.598  0.00  0.00     0.007 A 
HETATM   27  C   UNK N   1      37.227  15.555  16.674  0.00  0.00     0.001 A 
HETATM   28  C   UNK N   1      36.489  15.400  17.848  0.00  0.00     0.000 A 
HETATM   29  C   UNK N   1      35.543  14.373  17.946  0.00  0.00     0.001 A 
HETATM   30  C   UNK N   1      35.331  13.505  16.866  0.00  0.00     0.007 A 
ENDBRANCH  24  25
ENDBRANCH  23  24
BRANCH  23  31
HETATM   31  N   UNK N   1      37.596  12.298  12.724  0.00  0.00    -0.413 N 
HETATM   32  C   UNK N   1      37.948  11.240  13.667  0.00  0.00     0.140 C 
HETATM   33  H   UNK N   1      38.041  12.410  11.813  0.00  0.00     0.153 HD
ENDBRANCH  23  31
ENDBRANCH   5  23
TORSDOF 9
ENDMDL
MODEL 3
REMARK VINA RESULT:      -7.6      1.419      1.997
REMARK  9 active torsions:
REMARK  status: ('A' for Active; 'I' for Inactive)
REMARK    1  A    between atoms: C_16  and  C_14 
REMARK    2  A    between atoms: C_19  and  C_14 
REMARK    3  A    between atoms: C_17  and  C_15 
REMARK    4  A    between atoms: N_25  and  C_15 
REMARK    5  A    between atoms: C_18  and  N_23 
REMARK    6  A    between atoms: C_22  and  C_19 
REMARK    7  A    between atoms: C_19  and  N_24 
REMARK    8  A    between atoms: C_20  and  C_21 
REMARK    9  A    between atoms: O_28  and  C_21 
REMARK       I    between atoms: N_27  and  C_22 
ROOT
HETATM    1  C   UNK N   1      36.524  11.635   9.169  0.00  0.00     0.022 C 
HETATM    2  C   UNK N   1      36.531  13.124   8.862  0.00  0.00     0.035 C 
HETATM    3  C   UNK N   1      35.999  11.526  10.595  0.00  0.00     0.127 C 
HETATM    4  C   UNK N   1      36.728  13.775  10.216  0.00  0.00     0.161 C 
HETATM    5  C   UNK N   1      35.912  13.127  12.488  0.00  0.00     0.243 C 
HETATM    6  N   UNK N   1      36.129  12.838  11.154  0.00  0.00    -0.338 N 
HETATM    7  O   UNK N   1      35.973  14.285  12.864  0.00  0.00    -0.271 OA
ENDROOT
BRANCH   4   8
HETATM    8  C   UNK N   1      36.278  15.212  10.243  0.00  0.00     0.135 C 
HETATM    9  N   UNK N   1      35.199  15.592   9.647  0.00  0.00    -0.372 N 
ATOM     10  HN  UNK N   1      34.651  14.904   9.131  1.00  0.00     0.161 HD
BRANCH   9  11
HETATM   11  C   UNK N   1      34.739  16.971   9.686  0.00  0.00     0.126 C 
BRANCH  11  12
HETATM   12  C   UNK N   1      33.626  17.199   8.661  0.00  0.00     0.003 C 
HETATM   13  C   UNK N   1      34.194  17.413   7.253  0.00  0.00     0.008 C 
HETATM   14  C   UNK N   1      33.110  17.381   6.152  0.00  0.00     0.025 C 
HETATM   15  C   UNK N   1      31.681  17.310   6.705  0.00  0.00     0.074 C 
HETATM   16  C   UNK N   1      31.538  16.116   7.651  0.00  0.00     0.025 C 
HETATM   17  C   UNK N   1      32.691  15.987   8.653  0.00  0.00     0.008 C 
BRANCH  15  18
HETATM   18  N   UNK N   1      30.735  17.165   5.616  0.00  0.00    -0.426 N 
HETATM   19  H   UNK N   1      30.419  17.985   5.099  0.00  0.00     0.150 HD
HETATM   20  H   UNK N   1      30.385  16.239   5.367  0.00  0.00     0.150 HD
ENDBRANCH  15  18
ENDBRANCH  11  12
ENDBRANCH   9  11
BRANCH   8  21
HETATM   21  O   UNK N   1      37.048  16.108  10.899  0.00  0.00    -0.348 OA
HETATM   22  H   UNK N   1      37.068  16.883  11.425  0.00  0.00     0.219 HD
ENDBRANCH   8  21
ENDBRANCH   4   8
BRANCH   5  23
HETATM   23  C   UNK N   1      35.715  12.047  13.576  0.00  0.00     0.173 C 
BRANCH  23  24
HETATM   24  C   UNK N   1      36.771  11.995  14.706  0.00  0.00     0.073 C 
BRANCH  24  25
HETATM   25  C   UNK N   1      36.177  12.266  16.074  0.00  0.00    -0.056 A 
HETATM   26  C   UNK N   1      35.841  13.569  16.471  0.00  0.00     0.007 A 
HETATM   27  C   UNK N   1      35.283  13.812  17.729  0.00  0.00     0.001 A 
HETATM   28  C   UNK N   1      35.058  12.751  18.607  0.00  0.00     0.000 A 
HETATM   29  C   UNK N   1      35.396  11.448  18.226  0.00  0.00     0.001 A 
HETATM   30  C   UNK N   1      35.956  11.206  16.963  0.00  0.00     0.007 A 
ENDBRANCH  24  25
ENDBRANCH  23  24
BRANCH  23  31
HETATM   31  N   UNK N   1      34.315  11.872  14.000  0.00  0.00    -0.413 N 
HETATM   32  C   UNK N   1      33.844  10.495  13.877  0.00  0.00     0.140 C 
HETATM   33  H   UNK N   1      33.735  12.636  14.345  0.00  0.00     0.153 HD
ENDBRANCH  23  31
ENDBRANCH   5  23
TORSDOF 9
ENDMDL
MODEL 4
REMARK VINA RESULT:      -7.2      2.576      9.048
REMARK  9 active torsions:
REMARK  status: ('A' for Active; 'I' for Inactive)
REMARK    1  A    between atoms: C_16  and  C_14 
REMARK    2  A    between atoms: C_19  and  C_14 
REMARK    3  A    between atoms: C_17  and  C_15 
REMARK    4  A    between atoms: N_25  and  C_15 
REMARK    5  A    between atoms: C_18  and  N_23 
REMARK    6  A    between atoms: C_22  and  C_19 
REMARK    7  A    between atoms: C_19  and  N_24 
REMARK    8  A    between atoms: C_20  and  C_21 
REMARK    9  A    between atoms: O_28  and  C_21 
REMARK       I    between atoms: N_27  and  C_22 
ROOT
HETATM    1  C   UNK N   1      35.501  13.457   6.250  0.00  0.00     0.022 C 
HETATM    2  C   UNK N   1      35.093  12.303   7.152  0.00  0.00     0.035 C 
HETATM    3  C   UNK N   1      35.175  14.716   7.045  0.00  0.00     0.127 C 
HETATM    4  C   UNK N   1      33.972  12.877   7.995  0.00  0.00     0.161 C 
HETATM    5  C   UNK N   1      33.618  15.171   8.922  0.00  0.00     0.243 C 
HETATM    6  N   UNK N   1      34.278  14.296   8.080  0.00  0.00    -0.338 N 
HETATM    7  O   UNK N   1      32.931  14.724   9.823  0.00  0.00    -0.271 OA
ENDROOT
BRANCH   4   8
HETATM    8  C   UNK N   1      33.751  12.108   9.272  0.00  0.00     0.135 C 
HETATM    9  N   UNK N   1      34.714  11.882  10.100  0.00  0.00    -0.372 N 
ATOM     10  HN  UNK N   1      35.650  12.218   9.872  1.00  0.00     0.161 HD
BRANCH   9  11
HETATM   11  C   UNK N   1      34.510  11.164  11.346  0.00  0.00     0.126 C 
BRANCH  11  12
HETATM   12  C   UNK N   1      35.091  11.948  12.525  0.00  0.00     0.003 C 
HETATM   13  C   UNK N   1      36.312  11.240  13.123  0.00  0.00     0.008 C 
HETATM   14  C   UNK N   1      37.086  12.117  14.132  0.00  0.00     0.025 C 
HETATM   15  C   UNK N   1      36.385  13.444  14.451  0.00  0.00     0.074 C 
HETATM   16  C   UNK N   1      36.097  14.214  13.161  0.00  0.00     0.025 C 
HETATM   17  C   UNK N   1      35.497  13.346  12.050  0.00  0.00     0.008 C 
BRANCH  15  18
HETATM   18  N   UNK N   1      37.226  14.256  15.308  0.00  0.00    -0.426 N 
HETATM   19  H   UNK N   1      37.333  14.020  16.294  0.00  0.00     0.150 HD
HETATM   20  H   UNK N   1      37.712  15.066  14.923  0.00  0.00     0.150 HD
ENDBRANCH  15  18
ENDBRANCH  11  12
ENDBRANCH   9  11
BRANCH   8  21
HETATM   21  O   UNK N   1      32.509  11.639   9.525  0.00  0.00    -0.348 OA
HETATM   22  H   UNK N   1      31.588  11.801   9.472  0.00  0.00     0.219 HD
ENDBRANCH   8  21
ENDBRANCH   4   8
BRANCH   5  23
HETATM   23  C   UNK N   1      33.595  16.702   8.717  0.00  0.00     0.173 C 
BRANCH  23  24
HETATM   24  C   UNK N   1      32.268  17.319   8.216  0.00  0.00     0.073 C 
BRANCH  24  25
HETATM   25  C   UNK N   1      32.156  17.316   6.704  0.00  0.00    -0.056 A 
HETATM   26  C   UNK N   1      33.279  17.548   5.896  0.00  0.00     0.007 A 
HETATM   27  C   UNK N   1      33.172  17.533   4.502  0.00  0.00     0.001 A 
HETATM   28  C   UNK N   1      31.936  17.289   3.902  0.00  0.00     0.000 A 
HETATM   29  C   UNK N   1      30.807  17.065   4.697  0.00  0.00     0.001 A 
HETATM   30  C   UNK N   1      30.916  17.080   6.095  0.00  0.00     0.007 A 
ENDBRANCH  24  25
ENDBRANCH  23  24
BRANCH  23  31
HETATM   31  N   UNK N   1      34.294  17.459   9.770  0.00  0.00    -0.413 N 
HETATM   32  C   UNK N   1      35.379  16.707  10.396  0.00  0.00     0.140 C 
HETATM   33  H   UNK N   1      34.044  18.411  10.036  0.00  0.00     0.153 HD
ENDBRANCH  23  31
ENDBRANCH   5  23
TORSDOF 9
ENDMDL
MODEL 5
REMARK VINA RESULT:      -7.1     17.980     22.428
REMARK  9 active torsions:
REMARK  status: ('A' for Active; 'I' for Inactive)
REMARK    1  A    between atoms: C_16  and  C_14 
REMARK    2  A    between atoms: C_19  and  C_14 
REMARK    3  A    between atoms: C_17  and  C_15 
REMARK    4  A    between atoms: N_25  and  C_15 
REMARK    5  A    between atoms: C_18  and  N_23 
REMARK    6  A    between atoms: C_22  and  C_19 
REMARK    7  A    between atoms: C_19  and  N_24 
REMARK    8  A    between atoms: C_20  and  C_21 
REMARK    9  A    between atoms: O_28  and  C_21 
REMARK       I    between atoms: N_27  and  C_22 
ROOT
HETATM    1  C   UNK N   1      27.449  24.207  -3.193  0.00  0.00     0.022 C 
HETATM    2  C   UNK N   1      28.780  23.565  -3.554  0.00  0.00     0.035 C 
HETATM    3  C   UNK N   1      26.589  24.067  -4.443  0.00  0.00     0.127 C 
HETATM    4  C   UNK N   1      28.884  23.759  -5.053  0.00  0.00     0.161 C 
HETATM    5  C   UNK N   1      27.137  23.741  -6.840  0.00  0.00     0.243 C 
HETATM    6  N   UNK N   1      27.503  23.780  -5.508  0.00  0.00    -0.338 N 
HETATM    7  O   UNK N   1      27.963  23.415  -7.674  0.00  0.00    -0.271 OA
ENDROOT
BRANCH   4   8
HETATM    8  C   UNK N   1      29.844  22.794  -5.699  0.00  0.00     0.135 C 
HETATM    9  N   UNK N   1      29.992  21.592  -5.257  0.00  0.00    -0.372 N 
ATOM     10  HN  UNK N   1      29.460  21.297  -4.439  1.00  0.00     0.161 HD
BRANCH   9  11
HETATM   11  C   UNK N   1      30.896  20.643  -5.887  0.00  0.00     0.126 C 
BRANCH  11  12
HETATM   12  C   UNK N   1      32.335  20.878  -5.424  0.00  0.00     0.003 C 
HETATM   13  C   UNK N   1      32.454  20.798  -3.898  0.00  0.00     0.008 C 
HETATM   14  C   UNK N   1      33.919  20.763  -3.406  0.00  0.00     0.025 C 
HETATM   15  C   UNK N   1      34.944  20.983  -4.527  0.00  0.00     0.074 C 
HETATM   16  C   UNK N   1      34.719  19.975  -5.655  0.00  0.00     0.025 C 
HETATM   17  C   UNK N   1      33.249  19.827  -6.061  0.00  0.00     0.008 C 
BRANCH  15  18
HETATM   18  N   UNK N   1      36.288  20.819  -4.009  0.00  0.00    -0.426 N 
HETATM   19  H   UNK N   1      36.827  21.633  -3.714  0.00  0.00     0.150 HD
HETATM   20  H   UNK N   1      36.695  19.886  -3.939  0.00  0.00     0.150 HD
ENDBRANCH  15  18
ENDBRANCH  11  12
ENDBRANCH   9  11
BRANCH   8  21
HETATM   21  O   UNK N   1      30.566  23.228  -6.756  0.00  0.00    -0.348 OA
HETATM   22  H   UNK N   1      31.396  23.544  -7.058  0.00  0.00     0.219 HD
ENDBRANCH   8  21
ENDBRANCH   4   8
BRANCH   5  23
HETATM   23  C   UNK N   1      25.760  24.209  -7.363  0.00  0.00     0.173 C 
BRANCH  23  24
HETATM   24  C   UNK N   1      25.677  25.652  -7.913  0.00  0.00     0.073 C 
BRANCH  24  25
HETATM   25  C   UNK N   1      25.933  26.700  -6.848  0.00  0.00    -0.056 A 
HETATM   26  C   UNK N   1      25.026  26.898  -5.796  0.00  0.00     0.007 A 
HETATM   27  C   UNK N   1      25.272  27.857  -4.810  0.00  0.00     0.001 A 
HETATM   28  C   UNK N   1      26.431  28.633  -4.868  0.00  0.00     0.000 A 
HETATM   29  C   UNK N   1      27.340  28.450  -5.917  0.00  0.00     0.001 A 
HETATM   30  C   UNK N   1      27.091  27.488  -6.906  0.00  0.00     0.007 A 
ENDBRANCH  24  25
ENDBRANCH  23  24
BRANCH  23  31
HETATM   31  N   UNK N   1      25.034  23.187  -8.137  0.00  0.00    -0.413 N 
HETATM   32  C   UNK N   1      24.893  21.918  -7.427  0.00  0.00     0.140 C 
HETATM   33  H   UNK N   1      24.667  23.350  -9.075  0.00  0.00     0.153 HD
ENDBRANCH  23  31
ENDBRANCH   5  23
TORSDOF 9
ENDMDL
MODEL 6
REMARK VINA RESULT:      -7.1     18.830     22.653
REMARK  9 active torsions:
REMARK  status: ('A' for Active; 'I' for Inactive)
REMARK    1  A    between atoms: C_16  and  C_14 
REMARK    2  A    between atoms: C_19  and  C_14 
REMARK    3  A    between atoms: C_17  and  C_15 
REMARK    4  A    between atoms: N_25  and  C_15 
REMARK    5  A    between atoms: C_18  and  N_23 
REMARK    6  A    between atoms: C_22  and  C_19 
REMARK    7  A    between atoms: C_19  and  N_24 
REMARK    8  A    between atoms: C_20  and  C_21 
REMARK    9  A    between atoms: O_28  and  C_21 
REMARK       I    between atoms: N_27  and  C_22 
ROOT
HETATM    1  C   UNK N   1      25.698  26.184  -9.596  0.00  0.00     0.022 C 
HETATM    2  C   UNK N   1      25.629  24.713  -9.976  0.00  0.00     0.035 C 
HETATM    3  C   UNK N   1      26.120  26.197  -8.133  0.00  0.00     0.127 C 
HETATM    4  C   UNK N   1      25.294  24.015  -8.673  0.00  0.00     0.161 C 
HETATM    5  C   UNK N   1      25.973  24.510  -6.320  0.00  0.00     0.243 C 
HETATM    6  N   UNK N   1      25.874  24.871  -7.650  0.00  0.00    -0.338 N 
HETATM    7  O   UNK N   1      25.818  23.343  -6.007  0.00  0.00    -0.271 OA
ENDROOT
BRANCH   4   8
HETATM    8  C   UNK N   1      25.659  22.554  -8.685  0.00  0.00     0.135 C 
HETATM    9  N   UNK N   1      26.885  22.164  -8.775  0.00  0.00    -0.372 N 
ATOM     10  HN  UNK N   1      27.620  22.866  -8.859  1.00  0.00     0.161 HD
BRANCH   9  11
HETATM   11  C   UNK N   1      27.252  20.758  -8.762  0.00  0.00     0.126 C 
BRANCH  11  12
HETATM   12  C   UNK N   1      28.377  20.502  -7.757  0.00  0.00     0.003 C 
HETATM   13  C   UNK N   1      29.627  19.942  -8.445  0.00  0.00     0.008 C 
HETATM   14  C   UNK N   1      30.867  19.919  -7.521  0.00  0.00     0.025 C 
HETATM   15  C   UNK N   1      30.553  20.301  -6.069  0.00  0.00     0.074 C 
HETATM   16  C   UNK N   1      29.855  21.662  -6.019  0.00  0.00     0.025 C 
HETATM   17  C   UNK N   1      28.730  21.813  -7.049  0.00  0.00     0.008 C 
BRANCH  15  18
HETATM   18  N   UNK N   1      31.778  20.371  -5.299  0.00  0.00    -0.426 N 
HETATM   19  H   UNK N   1      32.656  20.039  -5.699  0.00  0.00     0.150 HD
HETATM   20  H   UNK N   1      31.763  20.754  -4.353  0.00  0.00     0.150 HD
ENDBRANCH  15  18
ENDBRANCH  11  12
ENDBRANCH   9  11
BRANCH   8  21
HETATM   21  O   UNK N   1      24.657  21.648  -8.616  0.00  0.00    -0.348 OA
HETATM   22  H   UNK N   1      24.044  21.204  -8.064  0.00  0.00     0.219 HD
ENDBRANCH   8  21
ENDBRANCH   4   8
BRANCH   5  23
HETATM   23  C   UNK N   1      26.150  25.526  -5.168  0.00  0.00     0.173 C 
BRANCH  23  24
HETATM   24  C   UNK N   1      27.595  25.978  -4.852  0.00  0.00     0.073 C 
BRANCH  24  25
HETATM   25  C   UNK N   1      28.338  24.990  -3.975  0.00  0.00    -0.056 A 
HETATM   26  C   UNK N   1      27.645  24.114  -3.126  0.00  0.00     0.007 A 
HETATM   27  C   UNK N   1      28.334  23.197  -2.328  0.00  0.00     0.001 A 
HETATM   28  C   UNK N   1      29.729  23.149  -2.369  0.00  0.00     0.000 A 
HETATM   29  C   UNK N   1      30.432  24.024  -3.205  0.00  0.00     0.001 A 
HETATM   30  C   UNK N   1      29.738  24.943  -4.005  0.00  0.00     0.007 A 
ENDBRANCH  24  25
ENDBRANCH  23  24
BRANCH  23  31
HETATM   31  N   UNK N   1      25.129  26.587  -5.143  0.00  0.00    -0.413 N 
HETATM   32  C   UNK N   1      25.504  27.729  -4.313  0.00  0.00     0.140 C 
HETATM   33  H   UNK N   1      24.248  26.530  -5.655  0.00  0.00     0.153 HD
ENDBRANCH  23  31
ENDBRANCH   5  23
TORSDOF 9
ENDMDL
MODEL 7
REMARK VINA RESULT:      -7.0      2.699      4.085
REMARK  9 active torsions:
REMARK  status: ('A' for Active; 'I' for Inactive)
REMARK    1  A    between atoms: C_16  and  C_14 
REMARK    2  A    between atoms: C_19  and  C_14 
REMARK    3  A    between atoms: C_17  and  C_15 
REMARK    4  A    between atoms: N_25  and  C_15 
REMARK    5  A    between atoms: C_18  and  N_23 
REMARK    6  A    between atoms: C_22  and  C_19 
REMARK    7  A    between atoms: C_19  and  N_24 
REMARK    8  A    between atoms: C_20  and  C_21 
REMARK    9  A    between atoms: O_28  and  C_21 
REMARK       I    between atoms: N_27  and  C_22 
ROOT
HETATM    1  C   UNK N   1      36.072  14.938  12.714  0.00  0.00     0.022 C 
HETATM    2  C   UNK N   1      35.405  15.842  11.689  0.00  0.00     0.035 C 
HETATM    3  C   UNK N   1      36.034  13.545  12.098  0.00  0.00     0.127 C 
HETATM    4  C   UNK N   1      34.437  14.926  10.968  0.00  0.00     0.161 C 
HETATM    5  C   UNK N   1      34.607  12.509  10.353  0.00  0.00     0.243 C 
HETATM    6  N   UNK N   1      35.058  13.612  11.052  0.00  0.00    -0.338 N 
HETATM    7  O   UNK N   1      33.829  12.667   9.429  0.00  0.00    -0.271 OA
ENDROOT
BRANCH   4   8
HETATM    8  C   UNK N   1      34.038  15.450   9.613  0.00  0.00     0.135 C 
HETATM    9  N   UNK N   1      32.831  15.831   9.366  0.00  0.00    -0.372 N 
ATOM     10  HN  UNK N   1      32.129  15.756  10.102  1.00  0.00     0.161 HD
BRANCH   9  11
HETATM   11  C   UNK N   1      32.438  16.363   8.072  0.00  0.00     0.126 C 
BRANCH  11  12
HETATM   12  C   UNK N   1      31.198  17.249   8.205  0.00  0.00     0.003 C 
HETATM   13  C   UNK N   1      30.306  17.157   6.962  0.00  0.00     0.008 C 
HETATM   14  C   UNK N   1      28.924  17.820   7.158  0.00  0.00     0.025 C 
HETATM   15  C   UNK N   1      28.792  18.574   8.488  0.00  0.00     0.074 C 
HETATM   16  C   UNK N   1      29.128  17.647   9.657  0.00  0.00     0.025 C 
HETATM   17  C   UNK N   1      30.398  16.818   9.437  0.00  0.00     0.008 C 
BRANCH  15  18
HETATM   18  N   UNK N   1      27.437  19.063   8.648  0.00  0.00    -0.426 N 
HETATM   19  H   UNK N   1      27.236  20.058   8.547  0.00  0.00     0.150 HD
HETATM   20  H   UNK N   1      26.683  18.411   8.863  0.00  0.00     0.150 HD
ENDBRANCH  15  18
ENDBRANCH  11  12
ENDBRANCH   9  11
BRANCH   8  21
HETATM   21  O   UNK N   1      34.981  15.498   8.646  0.00  0.00    -0.348 OA
HETATM   22  H   UNK N   1      35.541  15.007   8.077  0.00  0.00     0.219 HD
ENDBRANCH   8  21
ENDBRANCH   4   8
BRANCH   5  23
HETATM   23  C   UNK N   1      34.934  11.052  10.751  0.00  0.00     0.173 C 
BRANCH  23  24
HETATM   24  C   UNK N   1      33.876  10.305  11.597  0.00  0.00     0.073 C 
BRANCH  24  25
HETATM   25  C   UNK N   1      34.329  10.067  13.024  0.00  0.00    -0.056 A 
HETATM   26  C   UNK N   1      35.266   9.066  13.326  0.00  0.00     0.007 A 
HETATM   27  C   UNK N   1      35.689   8.858  14.642  0.00  0.00     0.001 A 
HETATM   28  C   UNK N   1      35.176   9.649  15.672  0.00  0.00     0.000 A 
HETATM   29  C   UNK N   1      34.236  10.643  15.384  0.00  0.00     0.001 A 
HETATM   30  C   UNK N   1      33.812  10.851  14.063  0.00  0.00     0.007 A 
ENDBRANCH  24  25
ENDBRANCH  23  24
BRANCH  23  31
HETATM   31  N   UNK N   1      35.565  10.265   9.678  0.00  0.00    -0.413 N 
HETATM   32  C   UNK N   1      36.685  10.953   9.041  0.00  0.00     0.140 C 
HETATM   33  H   UNK N   1      35.251   9.333   9.407  0.00  0.00     0.153 HD
ENDBRANCH  23  31
ENDBRANCH   5  23
TORSDOF 9
ENDMDL
MODEL 8
REMARK VINA RESULT:      -7.0      1.858      2.360
REMARK  9 active torsions:
REMARK  status: ('A' for Active; 'I' for Inactive)
REMARK    1  A    between atoms: C_16  and  C_14 
REMARK    2  A    between atoms: C_19  and  C_14 
REMARK    3  A    between atoms: C_17  and  C_15 
REMARK    4  A    between atoms: N_25  and  C_15 
REMARK    5  A    between atoms: C_18  and  N_23 
REMARK    6  A    between atoms: C_22  and  C_19 
REMARK    7  A    between atoms: C_19  and  N_24 
REMARK    8  A    between atoms: C_20  and  C_21 
REMARK    9  A    between atoms: O_28  and  C_21 
REMARK       I    between atoms: N_27  and  C_22 
ROOT
HETATM    1  C   UNK N   1      37.651  12.993   9.912  0.00  0.00     0.022 C 
HETATM    2  C   UNK N   1      36.954  14.076   9.103  0.00  0.00     0.035 C 
HETATM    3  C   UNK N   1      36.992  13.037  11.285  0.00  0.00     0.127 C 
HETATM    4  C   UNK N   1      36.524  15.090  10.144  0.00  0.00     0.161 C 
HETATM    5  C   UNK N   1      35.735  14.799  12.497  0.00  0.00     0.243 C 
HETATM    6  N   UNK N   1      36.321  14.301  11.349  0.00  0.00    -0.338 N 
HETATM    7  O   UNK N   1      35.120  15.850  12.443  0.00  0.00    -0.271 OA
ENDROOT
BRANCH   4   8
HETATM    8  C   UNK N   1      35.406  15.978   9.664  0.00  0.00     0.135 C 
HETATM    9  N   UNK N   1      34.449  15.522   8.929  0.00  0.00    -0.372 N 
ATOM     10  HN  UNK N   1      34.464  14.540   8.653  1.00  0.00     0.161 HD
BRANCH   9  11
HETATM   11  C   UNK N   1      33.351  16.362   8.481  0.00  0.00     0.126 C 
BRANCH  11  12
HETATM   12  C   UNK N   1      33.170  16.252   6.965  0.00  0.00     0.003 C 
HETATM   13  C   UNK N   1      33.261  17.625   6.288  0.00  0.00     0.008 C 
HETATM   14  C   UNK N   1      33.351  17.535   4.748  0.00  0.00     0.025 C 
HETATM   15  C   UNK N   1      33.163  16.111   4.208  0.00  0.00     0.074 C 
HETATM   16  C   UNK N   1      34.158  15.158   4.873  0.00  0.00     0.025 C 
HETATM   17  C   UNK N   1      34.250  15.331   6.393  0.00  0.00     0.008 C 
BRANCH  15  18
HETATM   18  N   UNK N   1      33.378  16.093   2.775  0.00  0.00    -0.426 N 
HETATM   19  H   UNK N   1      33.404  16.966   2.248  0.00  0.00     0.150 HD
HETATM   20  H   UNK N   1      33.504  15.203   2.291  0.00  0.00     0.150 HD
ENDBRANCH  15  18
ENDBRANCH  11  12
ENDBRANCH   9  11
BRANCH   8  21
HETATM   21  O   UNK N   1      35.438  17.284  10.011  0.00  0.00    -0.348 OA
HETATM   22  H   UNK N   1      35.605  17.907  10.692  0.00  0.00     0.219 HD
ENDBRANCH   8  21
ENDBRANCH   4   8
BRANCH   5  23
HETATM   23  C   UNK N   1      35.912  14.162  13.894  0.00  0.00     0.173 C 
BRANCH  23  24
HETATM   24  C   UNK N   1      35.294  12.760  14.105  0.00  0.00     0.073 C 
BRANCH  24  25
HETATM   25  C   UNK N   1      35.436  12.267  15.531  0.00  0.00    -0.056 A 
HETATM   26  C   UNK N   1      34.914  13.003  16.606  0.00  0.00     0.007 A 
HETATM   27  C   UNK N   1      35.038  12.538  17.918  0.00  0.00     0.001 A 
HETATM   28  C   UNK N   1      35.692  11.330  18.170  0.00  0.00     0.000 A 
HETATM   29  C   UNK N   1      36.225  10.593  17.107  0.00  0.00     0.001 A 
HETATM   30  C   UNK N   1      36.099  11.060  15.791  0.00  0.00     0.007 A 
ENDBRANCH  24  25
ENDBRANCH  23  24
BRANCH  23  31
HETATM   31  N   UNK N   1      37.248  14.366  14.480  0.00  0.00    -0.413 N 
HETATM   32  C   UNK N   1      37.293  15.464  15.443  0.00  0.00     0.140 C 
HETATM   33  H   UNK N   1      38.059  13.798  14.238  0.00  0.00     0.153 HD
ENDBRANCH  23  31
ENDBRANCH   5  23
TORSDOF 9
ENDMDL
MODEL 9
REMARK VINA RESULT:      -7.0     18.556     23.779
REMARK  9 active torsions:
REMARK  status: ('A' for Active; 'I' for Inactive)
REMARK    1  A    between atoms: C_16  and  C_14 
REMARK    2  A    between atoms: C_19  and  C_14 
REMARK    3  A    between atoms: C_17  and  C_15 
REMARK    4  A    between atoms: N_25  and  C_15 
REMARK    5  A    between atoms: C_18  and  N_23 
REMARK    6  A    between atoms: C_22  and  C_19 
REMARK    7  A    between atoms: C_19  and  N_24 
REMARK    8  A    between atoms: C_20  and  C_21 
REMARK    9  A    between atoms: O_28  and  C_21 
REMARK       I    between atoms: N_27  and  C_22 
ROOT
HETATM    1  C   UNK N   1      25.474  27.342  -4.819  0.00  0.00     0.022 C 
HETATM    2  C   UNK N   1      26.302  26.681  -3.728  0.00  0.00     0.035 C 
HETATM    3  C   UNK N   1      25.184  26.235  -5.824  0.00  0.00     0.127 C 
HETATM    4  C   UNK N   1      27.023  25.558  -4.447  0.00  0.00     0.161 C 
HETATM    5  C   UNK N   1      26.302  24.079  -6.328  0.00  0.00     0.243 C 
HETATM    6  N   UNK N   1      26.126  25.196  -5.534  0.00  0.00    -0.338 N 
HETATM    7  O   UNK N   1      27.074  23.207  -5.967  0.00  0.00    -0.271 OA
ENDROOT
BRANCH   4   8
HETATM    8  C   UNK N   1      27.498  24.478  -3.512  0.00  0.00     0.135 C 
HETATM    9  N   UNK N   1      28.751  24.206  -3.375  0.00  0.00    -0.372 N 
ATOM     10  HN  UNK N   1      29.432  24.724  -3.930  1.00  0.00     0.161 HD
BRANCH   9  11
HETATM   11  C   UNK N   1      29.225  23.183  -2.457  0.00  0.00     0.126 C 
BRANCH  11  12
HETATM   12  C   UNK N   1      30.550  22.592  -2.943  0.00  0.00     0.003 C 
HETATM   13  C   UNK N   1      30.341  21.244  -3.642  0.00  0.00     0.008 C 
HETATM   14  C   UNK N   1      31.604  20.741  -4.377  0.00  0.00     0.025 C 
HETATM   15  C   UNK N   1      32.845  21.606  -4.119  0.00  0.00     0.074 C 
HETATM   16  C   UNK N   1      32.553  23.067  -4.464  0.00  0.00     0.025 C 
HETATM   17  C   UNK N   1      31.214  23.571  -3.915  0.00  0.00     0.008 C 
BRANCH  15  18
HETATM   18  N   UNK N   1      33.951  21.141  -4.933  0.00  0.00    -0.426 N 
HETATM   19  H   UNK N   1      33.861  20.284  -5.478  0.00  0.00     0.150 HD
HETATM   20  H   UNK N   1      34.821  21.673  -4.960  0.00  0.00     0.150 HD
ENDBRANCH  15  18
ENDBRANCH  11  12
ENDBRANCH   9  11
BRANCH   8  21
HETATM   21  O   UNK N   1      26.568  23.780  -2.822  0.00  0.00    -0.348 OA
HETATM   22  H   UNK N   1      26.060  22.994  -2.773  0.00  0.00     0.219 HD
ENDBRANCH   8  21
ENDBRANCH   4   8
BRANCH   5  23
HETATM   23  C   UNK N   1      25.666  23.914  -7.727  0.00  0.00     0.173 C 
BRANCH  23  24
HETATM   24  C   UNK N   1      26.588  24.159  -8.945  0.00  0.00     0.073 C 
BRANCH  24  25
HETATM   25  C   UNK N   1      25.849  24.754 -10.127  0.00  0.00    -0.056 A 
HETATM   26  C   UNK N   1      25.125  25.949 -10.000  0.00  0.00     0.007 A 
HETATM   27  C   UNK N   1      24.454  26.500 -11.096  0.00  0.00     0.001 A 
HETATM   28  C   UNK N   1      24.499  25.856 -12.334  0.00  0.00     0.000 A 
HETATM   29  C   UNK N   1      25.211  24.660 -12.471  0.00  0.00     0.001 A 
HETATM   30  C   UNK N   1      25.883  24.109 -11.371  0.00  0.00     0.007 A 
ENDBRANCH  24  25
ENDBRANCH  23  24
BRANCH  23  31
HETATM   31  N   UNK N   1      24.751  22.766  -7.838  0.00  0.00    -0.413 N 
HETATM   32  C   UNK N   1      25.369  21.593  -8.452  0.00  0.00     0.140 C 
HETATM   33  H   UNK N   1      23.782  22.787  -7.520  0.00  0.00     0.153 HD
ENDBRANCH  23  31
ENDBRANCH   5  23
TORSDOF 9
ENDMDL
