MODEL 1
REMARK VINA RESULT:      -5.3      0.000      0.000
REMARK  4 active torsions:
REMARK  status: ('A' for Active; 'I' for Inactive)
REMARK    1  A    between atoms: C_3  and  C_2 
REMARK    2  A    between atoms: C_9  and  C_2 
REMARK    3  A    between atoms: C_10  and  C_3 
REMARK    4  A    between atoms: C_9  and  C_8 
ROOT
HETATM    1  C   UNK N   1      21.873  12.379   9.454  0.00  0.00     0.043 C 
ENDROOT
BRANCH   1   2
HETATM    2  C   UNK N   1      21.809  12.305  10.976  0.00  0.00     0.043 C 
BRANCH   2   3
HETATM    3  C   UNK N   1      23.167  12.077  11.602  0.00  0.00    -0.052 C 
HETATM    4  C   UNK N   1      23.223  11.871  12.918  0.00  0.00     0.020 C 
BRANCH   3   5
HETATM    5  C   UNK N   1      24.420  12.079  10.794  0.00  0.00     0.086 C 
HETATM    6  N   UNK N   1      25.263  13.043  10.879  0.00  0.00    -0.407 N 
HETATM    7  H   UNK N   1      26.125  13.029  10.313  0.00  0.00     0.155 HD
ATOM      8  HN  UNK N   1      25.080  13.826  11.509  1.00  0.00     0.155 HD
ENDBRANCH   3   5
ENDBRANCH   2   3
ENDBRANCH   1   2
BRANCH   1   9
HETATM    9  C   UNK N   1      21.604  13.712   8.835  0.00  0.00    -0.058 A 
HETATM   10  C   UNK N   1      22.318  14.190   7.724  0.00  0.00     0.010 A 
HETATM   11  C   UNK N   1      22.016  15.450   7.191  0.00  0.00     0.043 A 
HETATM   12  C   UNK N   1      21.006  16.230   7.765  0.00  0.00     0.116 A 
HETATM   13  C   UNK N   1      20.297  15.753   8.870  0.00  0.00     0.043 A 
HETATM   14  F   UNK N   1      20.711  17.448   7.253  0.00  0.00    -0.206 F 
HETATM   15  C   UNK N   1      20.598  14.498   9.400  0.00  0.00     0.010 A 
ENDBRANCH   1   9
TORSDOF 4
ENDMDL
MODEL 2
REMARK VINA RESULT:      -5.2     18.474     19.472
REMARK  4 active torsions:
REMARK  status: ('A' for Active; 'I' for Inactive)
REMARK    1  A    between atoms: C_3  and  C_2 
REMARK    2  A    between atoms: C_9  and  C_2 
REMARK    3  A    between atoms: C_10  and  C_3 
REMARK    4  A    between atoms: C_9  and  C_8 
ROOT
HETATM    1  C   UNK N   1      25.902  23.746  -5.217  0.00  0.00     0.043 C 
ENDROOT
BRANCH   1   2
HETATM    2  C   UNK N   1      26.566  23.380  -6.541  0.00  0.00     0.043 C 
BRANCH   2   3
HETATM    3  C   UNK N   1      25.573  22.883  -7.568  0.00  0.00    -0.052 C 
HETATM    4  C   UNK N   1      25.291  23.677  -8.601  0.00  0.00     0.020 C 
BRANCH   3   5
HETATM    5  C   UNK N   1      24.915  21.550  -7.451  0.00  0.00     0.086 C 
HETATM    6  N   UNK N   1      23.791  21.416  -6.845  0.00  0.00    -0.407 N 
HETATM    7  H   UNK N   1      23.350  20.487  -6.773  0.00  0.00     0.155 HD
ATOM      8  HN  UNK N   1      23.334  22.230  -6.433  1.00  0.00     0.155 HD
ENDBRANCH   3   5
ENDBRANCH   2   3
ENDBRANCH   1   2
BRANCH   1   9
HETATM    9  C   UNK N   1      25.820  25.201  -4.888  0.00  0.00    -0.058 A 
HETATM   10  C   UNK N   1      25.126  26.122  -5.689  0.00  0.00     0.010 A 
HETATM   11  C   UNK N   1      25.088  27.474  -5.325  0.00  0.00     0.043 A 
HETATM   12  C   UNK N   1      25.740  27.906  -4.164  0.00  0.00     0.116 A 
HETATM   13  C   UNK N   1      26.429  26.989  -3.368  0.00  0.00     0.043 A 
HETATM   14  F   UNK N   1      25.705  29.211  -3.808  0.00  0.00    -0.206 F 
HETATM   15  C   UNK N   1      26.468  25.642  -3.731  0.00  0.00     0.010 A 
ENDBRANCH   1   9
TORSDOF 4
ENDMDL
MODEL 3
REMARK VINA RESULT:      -5.0     15.253     16.409
REMARK  4 active torsions:
REMARK  status: ('A' for Active; 'I' for Inactive)
REMARK    1  A    between atoms: C_3  and  C_2 
REMARK    2  A    between atoms: C_9  and  C_2 
REMARK    3  A    between atoms: C_10  and  C_3 
REMARK    4  A    between atoms: C_9  and  C_8 
ROOT
HETATM    1  C   UNK N   1      35.230  13.195  15.939  0.00  0.00     0.043 C 
ENDROOT
BRANCH   1   2
HETATM    2  C   UNK N   1      36.581  13.563  15.333  0.00  0.00     0.043 C 
BRANCH   2   3
HETATM    3  C   UNK N   1      36.956  12.669  14.172  0.00  0.00    -0.052 C 
HETATM    4  C   UNK N   1      37.622  11.545  14.438  0.00  0.00     0.020 C 
BRANCH   3   5
HETATM    5  C   UNK N   1      36.605  13.012  12.764  0.00  0.00     0.086 C 
HETATM    6  N   UNK N   1      37.511  13.340  11.916  0.00  0.00    -0.407 N 
HETATM    7  H   UNK N   1      37.251  13.574  10.946  0.00  0.00     0.155 HD
ATOM      8  HN  UNK N   1      38.490  13.370  12.202  1.00  0.00     0.155 HD
ENDBRANCH   3   5
ENDBRANCH   2   3
ENDBRANCH   1   2
BRANCH   1   9
HETATM    9  C   UNK N   1      35.257  12.466  17.244  0.00  0.00    -0.058 A 
HETATM   10  C   UNK N   1      35.349  11.068  17.329  0.00  0.00     0.010 A 
HETATM   11  C   UNK N   1      35.370  10.445  18.584  0.00  0.00     0.043 A 
HETATM   12  C   UNK N   1      35.299  11.216  19.750  0.00  0.00     0.116 A 
HETATM   13  C   UNK N   1      35.207  12.607  19.663  0.00  0.00     0.043 A 
HETATM   14  F   UNK N   1      35.318  10.619  20.965  0.00  0.00    -0.206 F 
HETATM   15  C   UNK N   1      35.186  13.227  18.413  0.00  0.00     0.010 A 
ENDBRANCH   1   9
TORSDOF 4
ENDMDL
MODEL 4
REMARK VINA RESULT:      -4.9      3.216      5.455
REMARK  4 active torsions:
REMARK  status: ('A' for Active; 'I' for Inactive)
REMARK    1  A    between atoms: C_3  and  C_2 
REMARK    2  A    between atoms: C_9  and  C_2 
REMARK    3  A    between atoms: C_10  and  C_3 
REMARK    4  A    between atoms: C_9  and  C_8 
ROOT
HETATM    1  C   UNK N   1      22.282  12.531   8.081  0.00  0.00     0.043 C 
ENDROOT
BRANCH   1   2
HETATM    2  C   UNK N   1      21.095  13.410   7.697  0.00  0.00     0.043 C 
BRANCH   2   3
HETATM    3  C   UNK N   1      21.406  14.885   7.818  0.00  0.00    -0.052 C 
HETATM    4  C   UNK N   1      22.328  15.400   7.005  0.00  0.00     0.020 C 
BRANCH   3   5
HETATM    5  C   UNK N   1      20.714  15.760   8.809  0.00  0.00     0.086 C 
HETATM    6  N   UNK N   1      20.130  16.843   8.443  0.00  0.00    -0.407 N 
HETATM    7  H   UNK N   1      19.656  17.436   9.141  0.00  0.00     0.155 HD
ATOM      8  HN  UNK N   1      20.134  17.118   7.460  1.00  0.00     0.155 HD
ENDBRANCH   3   5
ENDBRANCH   2   3
ENDBRANCH   1   2
BRANCH   1   9
HETATM    9  C   UNK N   1      22.528  12.339   9.543  0.00  0.00    -0.058 A 
HETATM   10  C   UNK N   1      21.491  12.308  10.489  0.00  0.00     0.010 A 
HETATM   11  C   UNK N   1      21.789  12.124  11.845  0.00  0.00     0.043 A 
HETATM   12  C   UNK N   1      23.118  11.972  12.256  0.00  0.00     0.116 A 
HETATM   13  C   UNK N   1      24.149  12.003  11.313  0.00  0.00     0.043 A 
HETATM   14  F   UNK N   1      23.411  11.794  13.565  0.00  0.00    -0.206 F 
HETATM   15  C   UNK N   1      23.851  12.186   9.963  0.00  0.00     0.010 A 
ENDBRANCH   1   9
TORSDOF 4
ENDMDL
MODEL 5
REMARK VINA RESULT:      -4.9     15.047     16.081
REMARK  4 active torsions:
REMARK  status: ('A' for Active; 'I' for Inactive)
REMARK    1  A    between atoms: C_3  and  C_2 
REMARK    2  A    between atoms: C_9  and  C_2 
REMARK    3  A    between atoms: C_10  and  C_3 
REMARK    4  A    between atoms: C_9  and  C_8 
ROOT
HETATM    1  C   UNK N   1      35.885  11.524  14.951  0.00  0.00     0.043 C 
ENDROOT
BRANCH   1   2
HETATM    2  C   UNK N   1      37.181  12.040  14.331  0.00  0.00     0.043 C 
BRANCH   2   3
HETATM    3  C   UNK N   1      36.945  12.791  13.040  0.00  0.00    -0.052 C 
HETATM    4  C   UNK N   1      36.118  13.836  13.066  0.00  0.00     0.020 C 
BRANCH   3   5
HETATM    5  C   UNK N   1      37.607  12.396  11.763  0.00  0.00     0.086 C 
HETATM    6  N   UNK N   1      38.338  13.225  11.110  0.00  0.00    -0.407 N 
HETATM    7  H   UNK N   1      38.788  12.936  10.229  0.00  0.00     0.155 HD
ATOM      8  HN  UNK N   1      38.473  14.173  11.464  1.00  0.00     0.155 HD
ENDBRANCH   3   5
ENDBRANCH   2   3
ENDBRANCH   1   2
BRANCH   1   9
HETATM    9  C   UNK N   1      35.634  11.886  16.379  0.00  0.00    -0.058 A 
HETATM   10  C   UNK N   1      35.699  10.947  17.421  0.00  0.00     0.010 A 
HETATM   11  C   UNK N   1      35.453  11.351  18.740  0.00  0.00     0.043 A 
HETATM   12  C   UNK N   1      35.144  12.687  19.017  0.00  0.00     0.116 A 
HETATM   13  C   UNK N   1      35.081  13.620  17.979  0.00  0.00     0.043 A 
HETATM   14  F   UNK N   1      34.906  13.082  20.290  0.00  0.00    -0.206 F 
HETATM   15  C   UNK N   1      35.325  13.217  16.666  0.00  0.00     0.010 A 
ENDBRANCH   1   9
TORSDOF 4
ENDMDL
MODEL 6
REMARK VINA RESULT:      -4.9     13.386     15.039
REMARK  4 active torsions:
REMARK  status: ('A' for Active; 'I' for Inactive)
REMARK    1  A    between atoms: C_3  and  C_2 
REMARK    2  A    between atoms: C_9  and  C_2 
REMARK    3  A    between atoms: C_10  and  C_3 
REMARK    4  A    between atoms: C_9  and  C_8 
ROOT
HETATM    1  C   UNK N   1      34.785  10.048  17.066  0.00  0.00     0.043 C 
ENDROOT
BRANCH   1   2
HETATM    2  C   UNK N   1      35.884  10.948  17.624  0.00  0.00     0.043 C 
BRANCH   2   3
HETATM    3  C   UNK N   1      35.332  12.192  18.284  0.00  0.00    -0.052 C 
HETATM    4  C   UNK N   1      34.996  13.218  17.503  0.00  0.00     0.020 C 
BRANCH   3   5
HETATM    5  C   UNK N   1      35.161  12.293  19.762  0.00  0.00     0.086 C 
HETATM    6  N   UNK N   1      34.839  13.405  20.319  0.00  0.00    -0.407 N 
HETATM    7  H   UNK N   1      34.725  13.457  21.342  0.00  0.00     0.155 HD
ATOM      8  HN  UNK N   1      34.697  14.238  19.746  1.00  0.00     0.155 HD
ENDBRANCH   3   5
ENDBRANCH   2   3
ENDBRANCH   1   2
BRANCH   1   9
HETATM    9  C   UNK N   1      34.761   9.860  15.584  0.00  0.00    -0.058 A 
HETATM   10  C   UNK N   1      35.575   8.923  14.926  0.00  0.00     0.010 A 
HETATM   11  C   UNK N   1      35.505   8.795  13.533  0.00  0.00     0.043 A 
HETATM   12  C   UNK N   1      34.625   9.600  12.799  0.00  0.00     0.116 A 
HETATM   13  C   UNK N   1      33.817  10.531  13.455  0.00  0.00     0.043 A 
HETATM   14  F   UNK N   1      34.554   9.480  11.452  0.00  0.00    -0.206 F 
HETATM   15  C   UNK N   1      33.887  10.658  14.842  0.00  0.00     0.010 A 
ENDBRANCH   1   9
TORSDOF 4
ENDMDL
MODEL 7
REMARK VINA RESULT:      -4.9      9.540     10.947
REMARK  4 active torsions:
REMARK  status: ('A' for Active; 'I' for Inactive)
REMARK    1  A    between atoms: C_3  and  C_2 
REMARK    2  A    between atoms: C_9  and  C_2 
REMARK    3  A    between atoms: C_10  and  C_3 
REMARK    4  A    between atoms: C_9  and  C_8 
ROOT
HETATM    1  C   UNK N   1      29.980  16.684   5.781  0.00  0.00     0.043 C 
ENDROOT
BRANCH   1   2
HETATM    2  C   UNK N   1      28.757  17.028   6.625  0.00  0.00     0.043 C 
BRANCH   2   3
HETATM    3  C   UNK N   1      28.266  18.438   6.386  0.00  0.00    -0.052 C 
HETATM    4  C   UNK N   1      28.147  18.853   5.125  0.00  0.00     0.020 C 
BRANCH   3   5
HETATM    5  C   UNK N   1      27.919  19.356   7.509  0.00  0.00     0.086 C 
HETATM    6  N   UNK N   1      27.642  18.900   8.677  0.00  0.00    -0.407 N 
HETATM    7  H   UNK N   1      27.405  19.548   9.442  0.00  0.00     0.155 HD
ATOM      8  HN  UNK N   1      27.658  17.893   8.848  1.00  0.00     0.155 HD
ENDBRANCH   3   5
ENDBRANCH   2   3
ENDBRANCH   1   2
BRANCH   1   9
HETATM    9  C   UNK N   1      31.308  17.106   6.321  0.00  0.00    -0.058 A 
HETATM   10  C   UNK N   1      32.454  17.215   5.516  0.00  0.00     0.010 A 
HETATM   11  C   UNK N   1      33.670  17.616   6.085  0.00  0.00     0.043 A 
HETATM   12  C   UNK N   1      33.741  17.908   7.452  0.00  0.00     0.116 A 
HETATM   13  C   UNK N   1      32.601  17.799   8.250  0.00  0.00     0.043 A 
HETATM   14  F   UNK N   1      34.914  18.296   8.006  0.00  0.00    -0.206 F 
HETATM   15  C   UNK N   1      31.390  17.399   7.684  0.00  0.00     0.010 A 
ENDBRANCH   1   9
TORSDOF 4
ENDMDL
MODEL 8
REMARK VINA RESULT:      -4.8      8.431      9.075
REMARK  4 active torsions:
REMARK  status: ('A' for Active; 'I' for Inactive)
REMARK    1  A    between atoms: C_3  and  C_2 
REMARK    2  A    between atoms: C_9  and  C_2 
REMARK    3  A    between atoms: C_10  and  C_3 
REMARK    4  A    between atoms: C_9  and  C_8 
ROOT
HETATM    1  C   UNK N   1      28.438  18.593   7.753  0.00  0.00     0.043 C 
ENDROOT
BRANCH   1   2
HETATM    2  C   UNK N   1      29.110  17.234   7.580  0.00  0.00     0.043 C 
BRANCH   2   3
HETATM    3  C   UNK N   1      30.615  17.342   7.481  0.00  0.00    -0.052 C 
HETATM    4  C   UNK N   1      31.199  16.936   6.354  0.00  0.00     0.020 C 
BRANCH   3   5
HETATM    5  C   UNK N   1      31.444  17.882   8.597  0.00  0.00     0.086 C 
HETATM    6  N   UNK N   1      32.564  17.340   8.914  0.00  0.00    -0.407 N 
HETATM    7  H   UNK N   1      33.125  17.726   9.688  0.00  0.00     0.155 HD
ATOM      8  HN  UNK N   1      32.900  16.525   8.398  1.00  0.00     0.155 HD
ENDBRANCH   3   5
ENDBRANCH   2   3
ENDBRANCH   1   2
BRANCH   1   9
HETATM    9  C   UNK N   1      27.904  19.239   6.516  0.00  0.00    -0.058 A 
HETATM   10  C   UNK N   1      27.404  20.551   6.501  0.00  0.00     0.010 A 
HETATM   11  C   UNK N   1      26.918  21.099   5.307  0.00  0.00     0.043 A 
HETATM   12  C   UNK N   1      26.930  20.339   4.132  0.00  0.00     0.116 A 
HETATM   13  C   UNK N   1      27.428  19.034   4.148  0.00  0.00     0.043 A 
HETATM   14  F   UNK N   1      26.461  20.864   2.975  0.00  0.00    -0.206 F 
HETATM   15  C   UNK N   1      27.912  18.489   5.337  0.00  0.00     0.010 A 
ENDBRANCH   1   9
TORSDOF 4
ENDMDL
MODEL 9
REMARK VINA RESULT:      -4.8     18.901     20.606
REMARK  4 active torsions:
REMARK  status: ('A' for Active; 'I' for Inactive)
REMARK    1  A    between atoms: C_3  and  C_2 
REMARK    2  A    between atoms: C_9  and  C_2 
REMARK    3  A    between atoms: C_10  and  C_3 
REMARK    4  A    between atoms: C_9  and  C_8 
ROOT
HETATM    1  C   UNK N   1      25.942  26.025  -7.825  0.00  0.00     0.043 C 
ENDROOT
BRANCH   1   2
HETATM    2  C   UNK N   1      26.758  24.738  -7.748  0.00  0.00     0.043 C 
BRANCH   2   3
HETATM    3  C   UNK N   1      25.933  23.556  -7.290  0.00  0.00    -0.052 C 
HETATM    4  C   UNK N   1      25.863  23.312  -5.981  0.00  0.00     0.020 C 
BRANCH   3   5
HETATM    5  C   UNK N   1      25.210  22.676  -8.252  0.00  0.00     0.086 C 
HETATM    6  N   UNK N   1      24.267  21.897  -7.860  0.00  0.00    -0.407 N 
HETATM    7  H   UNK N   1      23.778  21.295  -8.538  0.00  0.00     0.155 HD
ATOM      8  HN  UNK N   1      24.003  21.874  -6.874  1.00  0.00     0.155 HD
ENDBRANCH   3   5
ENDBRANCH   2   3
ENDBRANCH   1   2
BRANCH   1   9
HETATM    9  C   UNK N   1      26.076  26.974  -6.679  0.00  0.00    -0.058 A 
HETATM   10  C   UNK N   1      27.136  27.889  -6.572  0.00  0.00     0.010 A 
HETATM   11  C   UNK N   1      27.204  28.752  -5.471  0.00  0.00     0.043 A 
HETATM   12  C   UNK N   1      26.217  28.702  -4.480  0.00  0.00     0.116 A 
HETATM   13  C   UNK N   1      25.164  27.791  -4.587  0.00  0.00     0.043 A 
HETATM   14  F   UNK N   1      26.279  29.534  -3.414  0.00  0.00    -0.206 F 
HETATM   15  C   UNK N   1      25.097  26.932  -5.684  0.00  0.00     0.010 A 
ENDBRANCH   1   9
TORSDOF 4
ENDMDL
