MODEL 1
REMARK VINA RESULT:      -4.4      0.000      0.000
REMARK  2 active torsions:
REMARK  status: ('A' for Active; 'I' for Inactive)
REMARK    1  A    between atoms: C_5  and  C_7 
REMARK    2  A    between atoms: C_7  and  O_8 
ROOT
HETATM    1  N   UNK N   1      33.216  15.066  10.027  0.00  0.00    -0.417 N 
HETATM    2  C   UNK N   1      34.165  14.917  11.137  0.00  0.00     0.118 A 
HETATM    3  C   UNK N   1      35.329  15.898  11.251  0.00  0.00     0.047 A 
HETATM    4  C   UNK N   1      35.418  16.953  10.209  0.00  0.00    -0.010 A 
HETATM    5  C   UNK N   1      34.547  17.071   9.210  0.00  0.00     0.029 A 
HETATM    6  C   UNK N   1      33.385  16.140   9.044  0.00  0.00     0.159 A 
HETATM    7  H   UNK N   1      32.434  14.417   9.939  0.00  0.00     0.153 HD
ENDROOT
BRANCH   5   8
HETATM    8  C   UNK N   1      34.715  18.153   8.218  0.00  0.00     0.173 C 
HETATM    9  O   UNK N   1      34.320  18.016   7.072  0.00  0.00    -0.646 OA
BRANCH   8  10
HETATM   10  O   UNK N   1      35.313  19.306   8.581  0.00  0.00    -0.773 OA
HETATM   11  H   UNK N   1      34.962  20.126   8.295  0.00  0.00     0.167 HD
ENDBRANCH   8  10
ENDBRANCH   5   8
TORSDOF 2
ENDMDL
MODEL 2
REMARK VINA RESULT:      -4.4      2.717      3.994
REMARK  2 active torsions:
REMARK  status: ('A' for Active; 'I' for Inactive)
REMARK    1  A    between atoms: C_5  and  C_7 
REMARK    2  A    between atoms: C_7  and  O_8 
ROOT
HETATM    1  N   UNK N   1      31.024  17.234   7.000  0.00  0.00    -0.417 N 
HETATM    2  C   UNK N   1      31.408  17.076   5.591  0.00  0.00     0.118 A 
HETATM    3  C   UNK N   1      32.868  17.284   5.196  0.00  0.00     0.047 A 
HETATM    4  C   UNK N   1      33.812  17.637   6.287  0.00  0.00    -0.010 A 
HETATM    5  C   UNK N   1      33.444  17.775   7.558  0.00  0.00     0.029 A 
HETATM    6  C   UNK N   1      32.028  17.584   8.009  0.00  0.00     0.159 A 
HETATM    7  H   UNK N   1      30.052  17.098   7.278  0.00  0.00     0.153 HD
ENDROOT
BRANCH   5   8
HETATM    8  C   UNK N   1      34.454  18.128   8.577  0.00  0.00     0.173 C 
HETATM    9  O   UNK N   1      35.219  19.062   8.400  0.00  0.00    -0.646 OA
BRANCH   8  10
HETATM   10  O   UNK N   1      34.533  17.411   9.716  0.00  0.00    -0.773 OA
HETATM   11  H   UNK N   1      34.704  17.842  10.530  0.00  0.00     0.167 HD
ENDBRANCH   8  10
ENDBRANCH   5   8
TORSDOF 2
ENDMDL
MODEL 3
REMARK VINA RESULT:      -4.2     14.548     15.273
REMARK  2 active torsions:
REMARK  status: ('A' for Active; 'I' for Inactive)
REMARK    1  A    between atoms: C_5  and  C_7 
REMARK    2  A    between atoms: C_7  and  O_8 
ROOT
HETATM    1  N   UNK N   1      19.395  17.378   3.092  0.00  0.00    -0.417 N 
HETATM    2  C   UNK N   1      20.120  17.010   4.315  0.00  0.00     0.118 A 
HETATM    3  C   UNK N   1      21.290  17.879   4.770  0.00  0.00     0.047 A 
HETATM    4  C   UNK N   1      21.616  19.056   3.924  0.00  0.00    -0.010 A 
HETATM    5  C   UNK N   1      20.946  19.373   2.819  0.00  0.00     0.029 A 
HETATM    6  C   UNK N   1      19.790  18.561   2.321  0.00  0.00     0.159 A 
HETATM    7  H   UNK N   1      18.611  16.806   2.777  0.00  0.00     0.153 HD
ENDROOT
BRANCH   5   8
HETATM    8  C   UNK N   1      21.343  20.564   2.040  0.00  0.00     0.173 C 
HETATM    9  O   UNK N   1      21.346  20.540   0.820  0.00  0.00    -0.646 OA
BRANCH   8  10
HETATM   10  O   UNK N   1      21.705  21.693   2.683  0.00  0.00    -0.773 OA
HETATM   11  H   UNK N   1      21.073  22.366   2.840  0.00  0.00     0.167 HD
ENDBRANCH   8  10
ENDBRANCH   5   8
TORSDOF 2
ENDMDL
MODEL 4
REMARK VINA RESULT:      -4.2     12.368     13.291
REMARK  2 active torsions:
REMARK  status: ('A' for Active; 'I' for Inactive)
REMARK    1  A    between atoms: C_5  and  C_7 
REMARK    2  A    between atoms: C_7  and  O_8 
ROOT
HETATM    1  N   UNK N   1      24.299  12.850  10.458  0.00  0.00    -0.417 N 
HETATM    2  C   UNK N   1      24.064  12.074  11.682  0.00  0.00     0.118 A 
HETATM    3  C   UNK N   1      22.627  11.763  12.096  0.00  0.00     0.047 A 
HETATM    4  C   UNK N   1      21.552  12.280  11.211  0.00  0.00    -0.010 A 
HETATM    5  C   UNK N   1      21.785  12.982  10.105  0.00  0.00     0.029 A 
HETATM    6  C   UNK N   1      23.172  13.319   9.647  0.00  0.00     0.159 A 
HETATM    7  H   UNK N   1      25.254  13.064  10.170  0.00  0.00     0.153 HD
ENDROOT
BRANCH   5   8
HETATM    8  C   UNK N   1      20.650  13.456   9.287  0.00  0.00     0.173 C 
HETATM    9  O   UNK N   1      20.681  13.373   8.070  0.00  0.00    -0.646 OA
BRANCH   8  10
HETATM   10  O   UNK N   1      19.567  13.987   9.889  0.00  0.00    -0.773 OA
HETATM   11  H   UNK N   1      18.904  14.405   9.377  0.00  0.00     0.167 HD
ENDBRANCH   8  10
ENDBRANCH   5   8
TORSDOF 2
ENDMDL
MODEL 5
REMARK VINA RESULT:      -4.1      7.910      9.034
REMARK  2 active torsions:
REMARK  status: ('A' for Active; 'I' for Inactive)
REMARK    1  A    between atoms: C_5  and  C_7 
REMARK    2  A    between atoms: C_7  and  O_8 
ROOT
HETATM    1  N   UNK N   1      35.214  13.528  19.345  0.00  0.00    -0.417 N 
HETATM    2  C   UNK N   1      35.351  12.121  19.745  0.00  0.00     0.118 A 
HETATM    3  C   UNK N   1      35.499  11.056  18.662  0.00  0.00     0.047 A 
HETATM    4  C   UNK N   1      35.494  11.530  17.254  0.00  0.00    -0.010 A 
HETATM    5  C   UNK N   1      35.369  12.809  16.911  0.00  0.00     0.029 A 
HETATM    6  C   UNK N   1      35.220  13.901  17.927  0.00  0.00     0.159 A 
HETATM    7  H   UNK N   1      35.115  14.250  20.058  0.00  0.00     0.153 HD
ENDROOT
BRANCH   5   8
HETATM    8  C   UNK N   1      35.375  13.188  15.483  0.00  0.00     0.173 C 
HETATM    9  O   UNK N   1      34.419  12.938  14.768  0.00  0.00    -0.646 OA
BRANCH   8  10
HETATM   10  O   UNK N   1      36.448  13.816  14.963  0.00  0.00    -0.773 OA
HETATM   11  H   UNK N   1      37.126  14.130  15.527  0.00  0.00     0.167 HD
ENDBRANCH   8  10
ENDBRANCH   5   8
TORSDOF 2
ENDMDL
MODEL 6
REMARK VINA RESULT:      -4.1      2.802      3.994
REMARK  2 active torsions:
REMARK  status: ('A' for Active; 'I' for Inactive)
REMARK    1  A    between atoms: C_5  and  C_7 
REMARK    2  A    between atoms: C_7  and  O_8 
ROOT
HETATM    1  N   UNK N   1      34.589  15.051   5.880  0.00  0.00    -0.417 N 
HETATM    2  C   UNK N   1      33.768  15.644   4.817  0.00  0.00     0.118 A 
HETATM    3  C   UNK N   1      33.215  17.054   5.010  0.00  0.00     0.047 A 
HETATM    4  C   UNK N   1      33.555  17.736   6.285  0.00  0.00    -0.010 A 
HETATM    5  C   UNK N   1      34.302  17.181   7.237  0.00  0.00     0.029 A 
HETATM    6  C   UNK N   1      34.872  15.801   7.107  0.00  0.00     0.159 A 
HETATM    7  H   UNK N   1      34.964  14.109   5.764  0.00  0.00     0.153 HD
ENDROOT
BRANCH   5   8
HETATM    8  C   UNK N   1      34.589  17.936   8.474  0.00  0.00     0.173 C 
HETATM    9  O   UNK N   1      35.144  19.021   8.428  0.00  0.00    -0.646 OA
BRANCH   8  10
HETATM   10  O   UNK N   1      34.234  17.421   9.669  0.00  0.00    -0.773 OA
HETATM   11  H   UNK N   1      33.397  17.015   9.774  0.00  0.00     0.167 HD
ENDBRANCH   8  10
ENDBRANCH   5   8
TORSDOF 2
ENDMDL
MODEL 7
REMARK VINA RESULT:      -4.1     11.873     12.885
REMARK  2 active torsions:
REMARK  status: ('A' for Active; 'I' for Inactive)
REMARK    1  A    between atoms: C_5  and  C_7 
REMARK    2  A    between atoms: C_7  and  O_8 
ROOT
HETATM    1  N   UNK N   1      21.832  12.575   9.082  0.00  0.00    -0.417 N 
HETATM    2  C   UNK N   1      23.099  12.724   8.356  0.00  0.00     0.118 A 
HETATM    3  C   UNK N   1      24.412  12.573   9.121  0.00  0.00     0.047 A 
HETATM    4  C   UNK N   1      24.308  12.280  10.573  0.00  0.00    -0.010 A 
HETATM    5  C   UNK N   1      23.149  12.149  11.214  0.00  0.00     0.029 A 
HETATM    6  C   UNK N   1      21.828  12.286  10.519  0.00  0.00     0.159 A 
HETATM    7  H   UNK N   1      20.948  12.674   8.583  0.00  0.00     0.153 HD
ENDROOT
BRANCH   5   8
HETATM    8  C   UNK N   1      23.143  11.857  12.662  0.00  0.00     0.173 C 
HETATM    9  O   UNK N   1      24.048  12.248  13.382  0.00  0.00    -0.646 OA
BRANCH   8  10
HETATM   10  O   UNK N   1      22.126  11.152  13.198  0.00  0.00    -0.773 OA
HETATM   11  H   UNK N   1      21.904  10.312  12.848  0.00  0.00     0.167 HD
ENDBRANCH   8  10
ENDBRANCH   5   8
TORSDOF 2
ENDMDL
MODEL 8
REMARK VINA RESULT:      -4.0     10.002     10.936
REMARK  2 active torsions:
REMARK  status: ('A' for Active; 'I' for Inactive)
REMARK    1  A    between atoms: C_5  and  C_7 
REMARK    2  A    between atoms: C_7  and  O_8 
ROOT
HETATM    1  N   UNK N   1      25.901  18.438   5.676  0.00  0.00    -0.417 N 
HETATM    2  C   UNK N   1      27.289  18.910   5.765  0.00  0.00     0.118 A 
HETATM    3  C   UNK N   1      27.769  19.981   4.788  0.00  0.00     0.047 A 
HETATM    4  C   UNK N   1      26.777  20.477   3.801  0.00  0.00    -0.010 A 
HETATM    5  C   UNK N   1      25.523  20.037   3.737  0.00  0.00     0.029 A 
HETATM    6  C   UNK N   1      24.992  18.988   4.666  0.00  0.00     0.159 A 
HETATM    7  H   UNK N   1      25.567  17.723   6.322  0.00  0.00     0.153 HD
ENDROOT
BRANCH   5   8
HETATM    8  C   UNK N   1      24.605  20.590   2.720  0.00  0.00     0.173 C 
HETATM    9  O   UNK N   1      24.890  20.549   1.534  0.00  0.00    -0.646 OA
BRANCH   8  10
HETATM   10  O   UNK N   1      23.439  21.147   3.104  0.00  0.00    -0.773 OA
HETATM   11  H   UNK N   1      22.999  20.832   3.869  0.00  0.00     0.167 HD
ENDBRANCH   8  10
ENDBRANCH   5   8
TORSDOF 2
ENDMDL
MODEL 9
REMARK VINA RESULT:      -4.0     19.815     20.532
REMARK  2 active torsions:
REMARK  status: ('A' for Active; 'I' for Inactive)
REMARK    1  A    between atoms: C_5  and  C_7 
REMARK    2  A    between atoms: C_7  and  O_8 
ROOT
HETATM    1  N   UNK N   1      27.587  27.847  -7.225  0.00  0.00    -0.417 N 
HETATM    2  C   UNK N   1      26.742  26.770  -7.756  0.00  0.00     0.118 A 
HETATM    3  C   UNK N   1      25.556  26.285  -6.926  0.00  0.00     0.047 A 
HETATM    4  C   UNK N   1      25.340  26.952  -5.616  0.00  0.00    -0.010 A 
HETATM    5  C   UNK N   1      26.118  27.927  -5.153  0.00  0.00     0.029 A 
HETATM    6  C   UNK N   1      27.296  28.446  -5.920  0.00  0.00     0.159 A 
HETATM    7  H   UNK N   1      28.383  28.180  -7.770  0.00  0.00     0.153 HD
ENDROOT
BRANCH   5   8
HETATM    8  C   UNK N   1      25.826  28.532  -3.837  0.00  0.00     0.173 C 
HETATM    9  O   UNK N   1      25.490  27.839  -2.892  0.00  0.00    -0.646 OA
BRANCH   8  10
HETATM   10  O   UNK N   1      25.933  29.867  -3.677  0.00  0.00    -0.773 OA
HETATM   11  H   UNK N   1      25.756  30.440  -4.396  0.00  0.00     0.167 HD
ENDBRANCH   8  10
ENDBRANCH   5   8
TORSDOF 2
ENDMDL
