MODEL 1
REMARK VINA RESULT:      -3.9      0.000      0.000
REMARK  5 active torsions:
REMARK  status: ('A' for Active; 'I' for Inactive)
REMARK    1  A    between atoms: C_1  and  N_2 
REMARK    2  A    between atoms: C_1  and  C_3 
REMARK       I    between atoms: N_2  and  C_4 
REMARK    3  A    between atoms: C_3  and  C_5 
REMARK       I    between atoms: C_4  and  N_6 
REMARK    4  A    between atoms: C_5  and  C_9 
REMARK    5  A    between atoms: C_9  and  N_10 
ROOT
HETATM    1  N   UNK N   1      20.259  19.142   1.460  0.00  0.00    -0.227 N 
HETATM    2  C   UNK N   1      20.576  20.525   1.451  0.00  0.00     0.665 C 
HETATM    3  N   UNK N   1      20.454  21.268   0.259  0.00  0.00    -0.235 N 
HETATM    4  N   UNK N   1      20.975  21.109   2.524  0.00  0.00    -0.235 N 
ATOM      5  HN  UNK N   1      21.201  22.104   2.509  1.00  0.00     0.174 HD
HETATM    6  H   UNK N   1      19.955  18.706   0.631  0.00  0.00     0.177 HD
HETATM    7  H   UNK N   1      20.674  22.227   0.252  0.00  0.00     0.174 HD
HETATM    8  H   UNK N   1      20.148  20.827  -0.567  0.00  0.00     0.174 HD
HETATM    9  H   UNK N   1      21.063  20.597   3.360  0.00  0.00     0.174 HD
ENDROOT
BRANCH   1  10
HETATM   10  C   UNK N   1      20.380  18.371   2.668  0.00  0.00     0.138 C 
BRANCH  10  11
HETATM   11  C   UNK N   1      20.424  16.888   2.372  0.00  0.00     0.022 C 
BRANCH  11  12
HETATM   12  C   UNK N   1      20.241  16.741   0.876  0.00  0.00     0.021 C 
BRANCH  12  13
HETATM   13  C   UNK N   1      19.394  15.536   0.541  0.00  0.00     0.111 C 
BRANCH  13  14
HETATM   14  N   UNK N   1      18.276  15.964  -0.280  0.00  0.00    -0.430 N 
HETATM   15  H   UNK N   1      17.551  16.561   0.117  0.00  0.00     0.149 HD
HETATM   16  H   UNK N   1      18.217  15.668  -1.255  0.00  0.00     0.149 HD
ENDBRANCH  13  14
ENDBRANCH  12  13
ENDBRANCH  11  12
ENDBRANCH  10  11
ENDBRANCH   1  10
TORSDOF 5
ENDMDL
MODEL 2
REMARK VINA RESULT:      -3.9     12.733     13.902
REMARK  5 active torsions:
REMARK  status: ('A' for Active; 'I' for Inactive)
REMARK    1  A    between atoms: C_1  and  N_2 
REMARK    2  A    between atoms: C_1  and  C_3 
REMARK       I    between atoms: N_2  and  C_4 
REMARK    3  A    between atoms: C_3  and  C_5 
REMARK       I    between atoms: C_4  and  N_6 
REMARK    4  A    between atoms: C_5  and  C_9 
REMARK    5  A    between atoms: C_9  and  N_10 
ROOT
HETATM    1  N   UNK N   1      29.725  17.233   8.264  0.00  0.00    -0.227 N 
HETATM    2  C   UNK N   1      29.125  18.152   9.163  0.00  0.00     0.665 C 
HETATM    3  N   UNK N   1      27.805  18.594   8.943  0.00  0.00    -0.235 N 
HETATM    4  N   UNK N   1      29.778  18.588  10.181  0.00  0.00    -0.235 N 
ATOM      5  HN  UNK N   1      29.340  19.249  10.823  1.00  0.00     0.174 HD
HETATM    6  H   UNK N   1      29.214  16.907   7.487  0.00  0.00     0.177 HD
HETATM    7  H   UNK N   1      27.388  19.231   9.566  0.00  0.00     0.174 HD
HETATM    8  H   UNK N   1      27.298  18.263   8.165  0.00  0.00     0.174 HD
HETATM    9  H   UNK N   1      30.700  18.284  10.341  0.00  0.00     0.174 HD
ENDROOT
BRANCH   1  10
HETATM   10  C   UNK N   1      31.071  16.774   8.474  0.00  0.00     0.138 C 
BRANCH  10  11
HETATM   11  C   UNK N   1      32.009  17.314   7.418  0.00  0.00     0.022 C 
BRANCH  11  12
HETATM   12  C   UNK N   1      33.066  18.116   8.149  0.00  0.00     0.021 C 
BRANCH  12  13
HETATM   13  C   UNK N   1      34.288  17.278   8.443  0.00  0.00     0.111 C 
BRANCH  13  14
HETATM   14  N   UNK N   1      34.434  17.154   9.882  0.00  0.00    -0.430 N 
HETATM   15  H   UNK N   1      34.145  17.919  10.491  0.00  0.00     0.149 HD
HETATM   16  H   UNK N   1      34.825  16.301  10.282  0.00  0.00     0.149 HD
ENDBRANCH  13  14
ENDBRANCH  12  13
ENDBRANCH  11  12
ENDBRANCH  10  11
ENDBRANCH   1  10
TORSDOF 5
ENDMDL
MODEL 3
REMARK VINA RESULT:      -3.7     13.007     14.096
REMARK  5 active torsions:
REMARK  status: ('A' for Active; 'I' for Inactive)
REMARK    1  A    between atoms: C_1  and  N_2 
REMARK    2  A    between atoms: C_1  and  C_3 
REMARK       I    between atoms: N_2  and  C_4 
REMARK    3  A    between atoms: C_3  and  C_5 
REMARK       I    between atoms: C_4  and  N_6 
REMARK    4  A    between atoms: C_5  and  C_9 
REMARK    5  A    between atoms: C_9  and  N_10 
ROOT
HETATM    1  N   UNK N   1      32.818  16.970   9.096  0.00  0.00    -0.227 N 
HETATM    2  C   UNK N   1      34.139  17.481   9.012  0.00  0.00     0.665 C 
HETATM    3  N   UNK N   1      35.080  17.167  10.013  0.00  0.00    -0.235 N 
HETATM    4  N   UNK N   1      34.485  18.231   8.028  0.00  0.00    -0.235 N 
ATOM      5  HN  UNK N   1      35.438  18.595   7.975  1.00  0.00     0.174 HD
HETATM    6  H   UNK N   1      32.564  16.396   9.856  0.00  0.00     0.177 HD
HETATM    7  H   UNK N   1      35.997  17.522   9.956  0.00  0.00     0.174 HD
HETATM    8  H   UNK N   1      34.821  16.592  10.770  0.00  0.00     0.174 HD
HETATM    9  H   UNK N   1      33.834  18.455   7.325  0.00  0.00     0.174 HD
ENDROOT
BRANCH   1  10
HETATM   10  C   UNK N   1      31.846  17.282   8.083  0.00  0.00     0.138 C 
BRANCH  10  11
HETATM   11  C   UNK N   1      30.662  18.022   8.665  0.00  0.00     0.022 C 
BRANCH  11  12
HETATM   12  C   UNK N   1      29.506  17.803   7.712  0.00  0.00     0.021 C 
BRANCH  12  13
HETATM   13  C   UNK N   1      28.419  18.831   7.919  0.00  0.00     0.111 C 
BRANCH  13  14
HETATM   14  N   UNK N   1      27.652  18.470   9.097  0.00  0.00    -0.430 N 
HETATM   15  H   UNK N   1      27.065  19.166   9.557  0.00  0.00     0.149 HD
HETATM   16  H   UNK N   1      27.700  17.519   9.464  0.00  0.00     0.149 HD
ENDBRANCH  13  14
ENDBRANCH  12  13
ENDBRANCH  11  12
ENDBRANCH  10  11
ENDBRANCH   1  10
TORSDOF 5
ENDMDL
MODEL 4
REMARK VINA RESULT:      -3.7     22.334     23.356
REMARK  5 active torsions:
REMARK  status: ('A' for Active; 'I' for Inactive)
REMARK    1  A    between atoms: C_1  and  N_2 
REMARK    2  A    between atoms: C_1  and  C_3 
REMARK       I    between atoms: N_2  and  C_4 
REMARK    3  A    between atoms: C_3  and  C_5 
REMARK       I    between atoms: C_4  and  N_6 
REMARK    4  A    between atoms: C_5  and  C_9 
REMARK    5  A    between atoms: C_9  and  N_10 
ROOT
HETATM    1  N   UNK N   1      43.870  20.949   3.546  0.00  0.00    -0.227 N 
HETATM    2  C   UNK N   1      44.377  22.167   4.068  0.00  0.00     0.665 C 
HETATM    3  N   UNK N   1      45.766  22.338   4.234  0.00  0.00    -0.235 N 
HETATM    4  N   UNK N   1      43.577  23.119   4.393  0.00  0.00    -0.235 N 
ATOM      5  HN  UNK N   1      43.950  23.992   4.767  1.00  0.00     0.174 HD
HETATM    6  H   UNK N   1      44.493  20.226   3.302  0.00  0.00     0.177 HD
HETATM    7  H   UNK N   1      46.119  23.183   4.596  0.00  0.00     0.174 HD
HETATM    8  H   UNK N   1      46.385  21.612   3.987  0.00  0.00     0.174 HD
HETATM    9  H   UNK N   1      42.606  23.007   4.280  0.00  0.00     0.174 HD
ENDROOT
BRANCH   1  10
HETATM   10  C   UNK N   1      42.455  20.758   3.372  0.00  0.00     0.138 C 
BRANCH  10  11
HETATM   11  C   UNK N   1      42.119  20.406   1.941  0.00  0.00     0.022 C 
BRANCH  11  12
HETATM   12  C   UNK N   1      41.999  21.717   1.191  0.00  0.00     0.021 C 
BRANCH  12  13
HETATM   13  C   UNK N   1      40.911  22.588   1.775  0.00  0.00     0.111 C 
BRANCH  13  14
HETATM   14  N   UNK N   1      41.400  23.951   1.862  0.00  0.00    -0.430 N 
HETATM   15  H   UNK N   1      41.263  24.489   2.718  0.00  0.00     0.149 HD
HETATM   16  H   UNK N   1      41.881  24.371   1.066  0.00  0.00     0.149 HD
ENDBRANCH  13  14
ENDBRANCH  12  13
ENDBRANCH  11  12
ENDBRANCH  10  11
ENDBRANCH   1  10
TORSDOF 5
ENDMDL
MODEL 5
REMARK VINA RESULT:      -3.7     21.130     22.220
REMARK  5 active torsions:
REMARK  status: ('A' for Active; 'I' for Inactive)
REMARK    1  A    between atoms: C_1  and  N_2 
REMARK    2  A    between atoms: C_1  and  C_3 
REMARK       I    between atoms: N_2  and  C_4 
REMARK    3  A    between atoms: C_3  and  C_5 
REMARK       I    between atoms: C_4  and  N_6 
REMARK    4  A    between atoms: C_5  and  C_9 
REMARK    5  A    between atoms: C_9  and  N_10 
ROOT
HETATM    1  N   UNK N   1      35.429  13.097  14.615  0.00  0.00    -0.227 N 
HETATM    2  C   UNK N   1      35.783  13.961  13.547  0.00  0.00     0.665 C 
HETATM    3  N   UNK N   1      35.139  13.836  12.299  0.00  0.00    -0.235 N 
HETATM    4  N   UNK N   1      36.688  14.858  13.707  0.00  0.00    -0.235 N 
ATOM      5  HN  UNK N   1      36.937  15.476  12.933  1.00  0.00     0.174 HD
HETATM    6  H   UNK N   1      34.734  12.413  14.480  0.00  0.00     0.177 HD
HETATM    7  H   UNK N   1      35.383  14.435  11.556  0.00  0.00     0.174 HD
HETATM    8  H   UNK N   1      34.443  13.151  12.169  0.00  0.00     0.174 HD
HETATM    9  H   UNK N   1      37.142  14.951  14.575  0.00  0.00     0.174 HD
ENDROOT
BRANCH   1  10
HETATM   10  C   UNK N   1      36.078  13.210  15.894  0.00  0.00     0.138 C 
BRANCH  10  11
HETATM   11  C   UNK N   1      35.326  12.448  16.962  0.00  0.00     0.022 C 
BRANCH  11  12
HETATM   12  C   UNK N   1      35.138  13.403  18.122  0.00  0.00     0.021 C 
BRANCH  12  13
HETATM   13  C   UNK N   1      35.258  12.690  19.448  0.00  0.00     0.111 C 
BRANCH  13  14
HETATM   14  N   UNK N   1      34.672  13.524  20.482  0.00  0.00    -0.430 N 
HETATM   15  H   UNK N   1      35.242  14.224  20.957  0.00  0.00     0.149 HD
HETATM   16  H   UNK N   1      33.689  13.410  20.732  0.00  0.00     0.149 HD
ENDBRANCH  13  14
ENDBRANCH  12  13
ENDBRANCH  11  12
ENDBRANCH  10  11
ENDBRANCH   1  10
TORSDOF 5
ENDMDL
MODEL 6
REMARK VINA RESULT:      -3.7     10.341     11.457
REMARK  5 active torsions:
REMARK  status: ('A' for Active; 'I' for Inactive)
REMARK    1  A    between atoms: C_1  and  N_2 
REMARK    2  A    between atoms: C_1  and  C_3 
REMARK       I    between atoms: N_2  and  C_4 
REMARK    3  A    between atoms: C_3  and  C_5 
REMARK       I    between atoms: C_4  and  N_6 
REMARK    4  A    between atoms: C_5  and  C_9 
REMARK    5  A    between atoms: C_9  and  N_10 
ROOT
HETATM    1  N   UNK N   1      22.679  11.588  10.858  0.00  0.00    -0.227 N 
HETATM    2  C   UNK N   1      23.690  12.018  11.757  0.00  0.00     0.665 C 
HETATM    3  N   UNK N   1      23.432  12.049  13.143  0.00  0.00    -0.235 N 
HETATM    4  N   UNK N   1      24.841  12.381  11.317  0.00  0.00    -0.235 N 
ATOM      5  HN  UNK N   1      25.563  12.689  11.970  1.00  0.00     0.174 HD
HETATM    6  H   UNK N   1      21.801  11.313  11.208  0.00  0.00     0.177 HD
HETATM    7  H   UNK N   1      24.133  12.348  13.767  0.00  0.00     0.174 HD
HETATM    8  H   UNK N   1      22.552  11.772  13.487  0.00  0.00     0.174 HD
HETATM    9  H   UNK N   1      25.028  12.361  10.351  0.00  0.00     0.174 HD
ENDROOT
BRANCH   1  10
HETATM   10  C   UNK N   1      22.926  11.551   9.442  0.00  0.00     0.138 C 
BRANCH  10  11
HETATM   11  C   UNK N   1      21.867  12.315   8.678  0.00  0.00     0.022 C 
BRANCH  11  12
HETATM   12  C   UNK N   1      22.091  13.782   8.981  0.00  0.00     0.021 C 
BRANCH  12  13
HETATM   13  C   UNK N   1      20.836  14.432   9.515  0.00  0.00     0.111 C 
BRANCH  13  14
HETATM   14  N   UNK N   1      20.689  15.738   8.900  0.00  0.00    -0.430 N 
HETATM   15  H   UNK N   1      20.505  15.812   7.899  0.00  0.00     0.149 HD
HETATM   16  H   UNK N   1      20.769  16.581   9.468  0.00  0.00     0.149 HD
ENDBRANCH  13  14
ENDBRANCH  12  13
ENDBRANCH  11  12
ENDBRANCH  10  11
ENDBRANCH   1  10
TORSDOF 5
ENDMDL
MODEL 7
REMARK VINA RESULT:      -3.6      3.273      5.213
REMARK  5 active torsions:
REMARK  status: ('A' for Active; 'I' for Inactive)
REMARK    1  A    between atoms: C_1  and  N_2 
REMARK    2  A    between atoms: C_1  and  C_3 
REMARK       I    between atoms: N_2  and  C_4 
REMARK    3  A    between atoms: C_3  and  C_5 
REMARK       I    between atoms: C_4  and  N_6 
REMARK    4  A    between atoms: C_5  and  C_9 
REMARK    5  A    between atoms: C_9  and  N_10 
ROOT
HETATM    1  N   UNK N   1      21.856  20.364   2.353  0.00  0.00    -0.227 N 
HETATM    2  C   UNK N   1      20.753  20.107   1.499  0.00  0.00     0.665 C 
HETATM    3  N   UNK N   1      20.498  20.956   0.402  0.00  0.00    -0.235 N 
HETATM    4  N   UNK N   1      19.980  19.103   1.717  0.00  0.00    -0.235 N 
ATOM      5  HN  UNK N   1      19.189  18.925   1.099  1.00  0.00     0.174 HD
HETATM    6  H   UNK N   1      22.441  21.137   2.175  0.00  0.00     0.177 HD
HETATM    7  H   UNK N   1      19.732  20.778  -0.191  0.00  0.00     0.174 HD
HETATM    8  H   UNK N   1      21.086  21.726   0.229  0.00  0.00     0.174 HD
HETATM    9  H   UNK N   1      20.152  18.506   2.481  0.00  0.00     0.174 HD
ENDROOT
BRANCH   1  10
HETATM   10  C   UNK N   1      22.129  19.509   3.476  0.00  0.00     0.138 C 
BRANCH  10  11
HETATM   11  C   UNK N   1      23.616  19.351   3.700  0.00  0.00     0.022 C 
BRANCH  11  12
HETATM   12  C   UNK N   1      24.286  20.494   2.966  0.00  0.00     0.021 C 
BRANCH  12  13
HETATM   13  C   UNK N   1      25.791  20.408   3.070  0.00  0.00     0.111 C 
BRANCH  13  14
HETATM   14  N   UNK N   1      26.165  20.440   4.472  0.00  0.00    -0.430 N 
HETATM   15  H   UNK N   1      26.485  19.589   4.934  0.00  0.00     0.149 HD
HETATM   16  H   UNK N   1      26.107  21.314   4.995  0.00  0.00     0.149 HD
ENDBRANCH  13  14
ENDBRANCH  12  13
ENDBRANCH  11  12
ENDBRANCH  10  11
ENDBRANCH   1  10
TORSDOF 5
ENDMDL
MODEL 8
REMARK VINA RESULT:      -3.6      9.684     10.812
REMARK  5 active torsions:
REMARK  status: ('A' for Active; 'I' for Inactive)
REMARK    1  A    between atoms: C_1  and  N_2 
REMARK    2  A    between atoms: C_1  and  C_3 
REMARK       I    between atoms: N_2  and  C_4 
REMARK    3  A    between atoms: C_3  and  C_5 
REMARK       I    between atoms: C_4  and  N_6 
REMARK    4  A    between atoms: C_5  and  C_9 
REMARK    5  A    between atoms: C_9  and  N_10 
ROOT
HETATM    1  N   UNK N   1      23.040  13.303  10.195  0.00  0.00    -0.227 N 
HETATM    2  C   UNK N   1      23.558  12.273  11.022  0.00  0.00     0.665 C 
HETATM    3  N   UNK N   1      24.950  12.165  11.223  0.00  0.00    -0.235 N 
HETATM    4  N   UNK N   1      22.768  11.435  11.592  0.00  0.00    -0.235 N 
ATOM      5  HN  UNK N   1      23.149  10.698  12.186  1.00  0.00     0.174 HD
HETATM    6  H   UNK N   1      23.656  13.938   9.763  0.00  0.00     0.177 HD
HETATM    7  H   UNK N   1      25.311  11.451  11.797  0.00  0.00     0.174 HD
HETATM    8  H   UNK N   1      25.561  12.805  10.789  0.00  0.00     0.174 HD
HETATM    9  H   UNK N   1      21.796  11.505  11.457  0.00  0.00     0.174 HD
ENDROOT
BRANCH   1  10
HETATM   10  C   UNK N   1      21.623  13.425   9.979  0.00  0.00     0.138 C 
BRANCH  10  11
HETATM   11  C   UNK N   1      21.305  14.569   9.043  0.00  0.00     0.022 C 
BRANCH  11  12
HETATM   12  C   UNK N   1      19.875  14.977   9.330  0.00  0.00     0.021 C 
BRANCH  12  13
HETATM   13  C   UNK N   1      19.557  16.328   8.734  0.00  0.00     0.111 C 
BRANCH  13  14
HETATM   14  N   UNK N   1      18.249  16.749   9.203  0.00  0.00    -0.430 N 
HETATM   15  H   UNK N   1      17.816  17.590   8.820  0.00  0.00     0.149 HD
HETATM   16  H   UNK N   1      17.763  16.203   9.914  0.00  0.00     0.149 HD
ENDBRANCH  13  14
ENDBRANCH  12  13
ENDBRANCH  11  12
ENDBRANCH  10  11
ENDBRANCH   1  10
TORSDOF 5
ENDMDL
MODEL 9
REMARK VINA RESULT:      -3.6      9.393     10.756
REMARK  5 active torsions:
REMARK  status: ('A' for Active; 'I' for Inactive)
REMARK    1  A    between atoms: C_1  and  N_2 
REMARK    2  A    between atoms: C_1  and  C_3 
REMARK       I    between atoms: N_2  and  C_4 
REMARK    3  A    between atoms: C_3  and  C_5 
REMARK       I    between atoms: C_4  and  N_6 
REMARK    4  A    between atoms: C_5  and  C_9 
REMARK    5  A    between atoms: C_9  and  N_10 
ROOT
HETATM    1  N   UNK N   1      27.024  19.932   7.823  0.00  0.00    -0.227 N 
HETATM    2  C   UNK N   1      26.309  21.129   7.558  0.00  0.00     0.665 C 
HETATM    3  N   UNK N   1      25.446  21.665   8.535  0.00  0.00    -0.235 N 
HETATM    4  N   UNK N   1      26.442  21.730   6.430  0.00  0.00    -0.235 N 
ATOM      5  HN  UNK N   1      25.925  22.591   6.247  1.00  0.00     0.174 HD
HETATM    6  H   UNK N   1      26.913  19.480   8.691  0.00  0.00     0.177 HD
HETATM    7  H   UNK N   1      24.949  22.495   8.351  0.00  0.00     0.174 HD
HETATM    8  H   UNK N   1      25.339  21.209   9.401  0.00  0.00     0.174 HD
HETATM    9  H   UNK N   1      27.043  21.362   5.743  0.00  0.00     0.174 HD
ENDROOT
BRANCH   1  10
HETATM   10  C   UNK N   1      27.907  19.372   6.836  0.00  0.00     0.138 C 
BRANCH  10  11
HETATM   11  C   UNK N   1      28.734  18.245   7.413  0.00  0.00     0.022 C 
BRANCH  11  12
HETATM   12  C   UNK N   1      28.320  18.106   8.863  0.00  0.00     0.021 C 
BRANCH  12  13
HETATM   13  C   UNK N   1      29.507  18.236   9.789  0.00  0.00     0.111 C 
BRANCH  13  14
HETATM   14  N   UNK N   1      29.671  16.991  10.517  0.00  0.00    -0.430 N 
HETATM   15  H   UNK N   1      29.024  16.218  10.357  0.00  0.00     0.149 HD
HETATM   16  H   UNK N   1      30.433  16.889  11.188  0.00  0.00     0.149 HD
ENDBRANCH  13  14
ENDBRANCH  12  13
ENDBRANCH  11  12
ENDBRANCH  10  11
ENDBRANCH   1  10
TORSDOF 5
ENDMDL
