MODEL 1
REMARK VINA RESULT:      -6.5      0.000      0.000
REMARK  7 active torsions:
REMARK  status: ('A' for Active; 'I' for Inactive)
REMARK    1  A    between atoms: O_1  and  C_14 
REMARK    2  A    between atoms: O_2  and  C_16 
REMARK    3  A    between atoms: C_5  and  C_6 
REMARK    4  A    between atoms: C_5  and  C_9 
REMARK    5  A    between atoms: C_7  and  C_8 
REMARK    6  A    between atoms: C_7  and  C_11 
REMARK    7  A    between atoms: C_11  and  C_17 
ROOT
HETATM    1  O   UNK N   1      23.733  21.332   2.670  0.00  0.00    -0.285 OA
HETATM    2  O   UNK N   1      22.540  16.518   4.477  0.00  0.00    -0.285 OA
HETATM    3  C   UNK N   1      24.546  19.310   3.588  0.00  0.00     0.008 A 
HETATM    4  C   UNK N   1      24.212  18.083   4.043  0.00  0.00     0.002 A 
HETATM    5  C   UNK N   1      23.462  20.216   3.088  0.00  0.00     0.215 A 
HETATM    6  C   UNK N   1      22.801  17.635   4.052  0.00  0.00     0.214 A 
HETATM    7  C   UNK N   1      22.038  19.774   3.083  0.00  0.00     0.156 A 
HETATM    8  C   UNK N   1      21.711  18.530   3.545  0.00  0.00     0.156 A 
HETATM    9  C   UNK N   1      25.266  17.140   4.552  0.00  0.00     0.053 C 
ENDROOT
BRANCH   3  10
HETATM   10  C   UNK N   1      26.022  19.689   3.601  0.00  0.00     0.071 C 
BRANCH  10  11
HETATM   11  C   UNK N   1      26.498  20.742   4.555  0.00  0.00    -0.020 C 
HETATM   12  C   UNK N   1      27.328  20.446   5.569  0.00  0.00    -0.087 C 
HETATM   13  C   UNK N   1      27.788  21.537   6.472  0.00  0.00     0.043 C 
BRANCH  12  14
HETATM   14  C   UNK N   1      27.873  19.062   5.786  0.00  0.00     0.037 C 
BRANCH  14  15
HETATM   15  C   UNK N   1      28.133  18.794   7.262  0.00  0.00     0.031 C 
BRANCH  15  16
HETATM   16  C   UNK N   1      29.323  17.890   7.424  0.00  0.00    -0.024 C 
HETATM   17  C   UNK N   1      30.056  17.825   8.545  0.00  0.00    -0.091 C 
HETATM   18  C   UNK N   1      29.731  18.648   9.749  0.00  0.00     0.042 C 
HETATM   19  C   UNK N   1      31.222  16.900   8.596  0.00  0.00     0.042 C 
ENDBRANCH  15  16
ENDBRANCH  14  15
ENDBRANCH  12  14
ENDBRANCH  10  11
ENDBRANCH   3  10
BRANCH   7  20
HETATM   20  O   UNK N   1      21.112  20.658   2.599  0.00  0.00    -0.350 OA
HETATM   21  C   UNK N   1      20.680  20.771   1.296  0.00  0.00     0.210 C 
ENDBRANCH   7  20
BRANCH   8  22
HETATM   22  O   UNK N   1      20.407  18.128   3.534  0.00  0.00    -0.350 OA
HETATM   23  C   UNK N   1      19.808  17.376   2.549  0.00  0.00     0.210 C 
ENDBRANCH   8  22
TORSDOF 7
ENDMDL
MODEL 2
REMARK VINA RESULT:      -6.3      3.752      6.605
REMARK  7 active torsions:
REMARK  status: ('A' for Active; 'I' for Inactive)
REMARK    1  A    between atoms: O_1  and  C_14 
REMARK    2  A    between atoms: O_2  and  C_16 
REMARK    3  A    between atoms: C_5  and  C_6 
REMARK    4  A    between atoms: C_5  and  C_9 
REMARK    5  A    between atoms: C_7  and  C_8 
REMARK    6  A    between atoms: C_7  and  C_11 
REMARK    7  A    between atoms: C_11  and  C_17 
ROOT
HETATM    1  O   UNK N   1      28.907  19.088   8.055  0.00  0.00    -0.285 OA
HETATM    2  O   UNK N   1      28.424  15.830   3.930  0.00  0.00    -0.285 OA
HETATM    3  C   UNK N   1      29.673  17.118   6.995  0.00  0.00     0.008 A 
HETATM    4  C   UNK N   1      29.528  16.302   5.927  0.00  0.00     0.002 A 
HETATM    5  C   UNK N   1      28.800  18.331   7.101  0.00  0.00     0.215 A 
HETATM    6  C   UNK N   1      28.526  16.596   4.878  0.00  0.00     0.214 A 
HETATM    7  C   UNK N   1      27.792  18.644   6.047  0.00  0.00     0.156 A 
HETATM    8  C   UNK N   1      27.655  17.812   4.971  0.00  0.00     0.156 A 
HETATM    9  C   UNK N   1      30.384  15.076   5.777  0.00  0.00     0.053 C 
ENDROOT
BRANCH   3  10
HETATM   10  C   UNK N   1      30.736  16.751   8.023  0.00  0.00     0.071 C 
BRANCH  10  11
HETATM   11  C   UNK N   1      31.850  17.716   8.298  0.00  0.00    -0.020 C 
HETATM   12  C   UNK N   1      33.109  17.466   7.901  0.00  0.00    -0.087 C 
HETATM   13  C   UNK N   1      34.170  18.471   8.181  0.00  0.00     0.043 C 
BRANCH  12  14
HETATM   14  C   UNK N   1      33.477  16.237   7.118  0.00  0.00     0.037 C 
BRANCH  14  15
HETATM   15  C   UNK N   1      34.147  16.600   5.800  0.00  0.00     0.031 C 
BRANCH  15  16
HETATM   16  C   UNK N   1      33.131  17.126   4.827  0.00  0.00    -0.024 C 
HETATM   17  C   UNK N   1      32.885  16.563   3.635  0.00  0.00    -0.091 C 
HETATM   18  C   UNK N   1      33.605  15.335   3.179  0.00  0.00     0.042 C 
HETATM   19  C   UNK N   1      31.860  17.172   2.742  0.00  0.00     0.042 C 
ENDBRANCH  15  16
ENDBRANCH  14  15
ENDBRANCH  12  14
ENDBRANCH  10  11
ENDBRANCH   3  10
BRANCH   7  20
HETATM   20  O   UNK N   1      27.044  19.777   6.216  0.00  0.00    -0.350 OA
HETATM   21  C   UNK N   1      27.331  21.035   5.733  0.00  0.00     0.210 C 
ENDBRANCH   7  20
BRANCH   8  22
HETATM   22  O   UNK N   1      26.734  18.104   4.007  0.00  0.00    -0.350 OA
HETATM   23  C   UNK N   1      25.434  17.653   3.977  0.00  0.00     0.210 C 
ENDBRANCH   8  22
TORSDOF 7
ENDMDL
MODEL 3
REMARK VINA RESULT:      -6.2     10.754     13.830
REMARK  7 active torsions:
REMARK  status: ('A' for Active; 'I' for Inactive)
REMARK    1  A    between atoms: O_1  and  C_14 
REMARK    2  A    between atoms: O_2  and  C_16 
REMARK    3  A    between atoms: C_5  and  C_6 
REMARK    4  A    between atoms: C_5  and  C_9 
REMARK    5  A    between atoms: C_7  and  C_8 
REMARK    6  A    between atoms: C_7  and  C_11 
REMARK    7  A    between atoms: C_11  and  C_17 
ROOT
HETATM    1  O   UNK N   1      28.906  24.462  -6.328  0.00  0.00    -0.285 OA
HETATM    2  O   UNK N   1      31.375  22.443  -2.122  0.00  0.00    -0.285 OA
HETATM    3  C   UNK N   1      28.726  23.787  -4.068  0.00  0.00     0.008 A 
HETATM    4  C   UNK N   1      29.385  23.269  -3.008  0.00  0.00     0.002 A 
HETATM    5  C   UNK N   1      29.473  23.996  -5.350  0.00  0.00     0.215 A 
HETATM    6  C   UNK N   1      30.818  22.913  -3.104  0.00  0.00     0.214 A 
HETATM    7  C   UNK N   1      30.920  23.650  -5.458  0.00  0.00     0.156 A 
HETATM    8  C   UNK N   1      31.576  23.128  -4.379  0.00  0.00     0.156 A 
HETATM    9  C   UNK N   1      28.676  23.044  -1.701  0.00  0.00     0.053 C 
ENDROOT
BRANCH   3  10
HETATM   10  C   UNK N   1      27.255  24.139  -3.882  0.00  0.00     0.071 C 
BRANCH  10  11
HETATM   11  C   UNK N   1      26.886  25.517  -3.424  0.00  0.00    -0.020 C 
HETATM   12  C   UNK N   1      26.067  26.300  -4.145  0.00  0.00    -0.087 C 
HETATM   13  C   UNK N   1      25.715  27.652  -3.629  0.00  0.00     0.043 C 
BRANCH  12  14
HETATM   14  C   UNK N   1      25.430  25.837  -5.425  0.00  0.00     0.037 C 
BRANCH  14  15
HETATM   15  C   UNK N   1      25.404  26.947  -6.466  0.00  0.00     0.031 C 
BRANCH  15  16
HETATM   16  C   UNK N   1      26.572  26.809  -7.402  0.00  0.00    -0.024 C 
HETATM   17  C   UNK N   1      27.616  27.651  -7.413  0.00  0.00    -0.091 C 
HETATM   18  C   UNK N   1      27.709  28.804  -6.466  0.00  0.00     0.042 C 
HETATM   19  C   UNK N   1      28.718  27.428  -8.389  0.00  0.00     0.042 C 
ENDBRANCH  15  16
ENDBRANCH  14  15
ENDBRANCH  12  14
ENDBRANCH  10  11
ENDBRANCH   3  10
BRANCH   7  20
HETATM   20  O   UNK N   1      31.528  23.883  -6.662  0.00  0.00    -0.350 OA
HETATM   21  C   UNK N   1      31.618  23.012  -7.724  0.00  0.00     0.210 C 
ENDBRANCH   7  20
BRANCH   8  22
HETATM   22  O   UNK N   1      32.901  22.816  -4.481  0.00  0.00    -0.350 OA
HETATM   23  C   UNK N   1      33.410  21.572  -4.779  0.00  0.00     0.210 C 
ENDBRANCH   8  22
TORSDOF 7
ENDMDL
MODEL 4
REMARK VINA RESULT:      -6.2     10.815     13.787
REMARK  7 active torsions:
REMARK  status: ('A' for Active; 'I' for Inactive)
REMARK    1  A    between atoms: O_1  and  C_14 
REMARK    2  A    between atoms: O_2  and  C_16 
REMARK    3  A    between atoms: C_5  and  C_6 
REMARK    4  A    between atoms: C_5  and  C_9 
REMARK    5  A    between atoms: C_7  and  C_8 
REMARK    6  A    between atoms: C_7  and  C_11 
REMARK    7  A    between atoms: C_11  and  C_17 
ROOT
HETATM    1  O   UNK N   1      29.256  21.983  -7.272  0.00  0.00    -0.285 OA
HETATM    2  O   UNK N   1      30.295  23.843  -2.442  0.00  0.00    -0.285 OA
HETATM    3  C   UNK N   1      28.439  23.162  -5.392  0.00  0.00     0.008 A 
HETATM    4  C   UNK N   1      28.733  23.627  -4.158  0.00  0.00     0.002 A 
HETATM    5  C   UNK N   1      29.492  22.417  -6.154  0.00  0.00     0.215 A 
HETATM    6  C   UNK N   1      30.071  23.409  -3.564  0.00  0.00     0.214 A 
HETATM    7  C   UNK N   1      30.847  22.198  -5.571  0.00  0.00     0.156 A 
HETATM    8  C   UNK N   1      31.134  22.674  -4.322  0.00  0.00     0.156 A 
HETATM    9  C   UNK N   1      27.708  24.382  -3.358  0.00  0.00     0.053 C 
ENDROOT
BRANCH   3  10
HETATM   10  C   UNK N   1      27.043  23.441  -5.936  0.00  0.00     0.071 C 
BRANCH  10  11
HETATM   11  C   UNK N   1      26.881  24.401  -7.075  0.00  0.00    -0.020 C 
HETATM   12  C   UNK N   1      26.026  25.435  -7.005  0.00  0.00    -0.087 C 
HETATM   13  C   UNK N   1      25.924  26.371  -8.158  0.00  0.00     0.043 C 
BRANCH  12  14
HETATM   14  C   UNK N   1      25.217  25.728  -5.773  0.00  0.00     0.037 C 
BRANCH  14  15
HETATM   15  C   UNK N   1      24.822  27.197  -5.705  0.00  0.00     0.031 C 
BRANCH  15  16
HETATM   16  C   UNK N   1      25.394  27.832  -4.469  0.00  0.00    -0.024 C 
HETATM   17  C   UNK N   1      26.518  28.564  -4.465  0.00  0.00    -0.091 C 
HETATM   18  C   UNK N   1      27.295  28.824  -5.715  0.00  0.00     0.042 C 
HETATM   19  C   UNK N   1      27.003  29.142  -3.181  0.00  0.00     0.042 C 
ENDBRANCH  15  16
ENDBRANCH  14  15
ENDBRANCH  12  14
ENDBRANCH  10  11
ENDBRANCH   3  10
BRANCH   7  20
HETATM   20  O   UNK N   1      31.753  21.518  -6.338  0.00  0.00    -0.350 OA
HETATM   21  C   UNK N   1      31.946  20.155  -6.374  0.00  0.00     0.210 C 
ENDBRANCH   7  20
BRANCH   8  22
HETATM   22  O   UNK N   1      32.377  22.474  -3.794  0.00  0.00    -0.350 OA
HETATM   23  C   UNK N   1      32.741  21.426  -2.978  0.00  0.00     0.210 C 
ENDBRANCH   8  22
TORSDOF 7
ENDMDL
MODEL 5
REMARK VINA RESULT:      -6.1      4.850      8.932
REMARK  7 active torsions:
REMARK  status: ('A' for Active; 'I' for Inactive)
REMARK    1  A    between atoms: O_1  and  C_14 
REMARK    2  A    between atoms: O_2  and  C_16 
REMARK    3  A    between atoms: C_5  and  C_6 
REMARK    4  A    between atoms: C_5  and  C_9 
REMARK    5  A    between atoms: C_7  and  C_8 
REMARK    6  A    between atoms: C_7  and  C_11 
REMARK    7  A    between atoms: C_11  and  C_17 
ROOT
HETATM    1  O   UNK N   1      30.440  17.666   8.376  0.00  0.00    -0.285 OA
HETATM    2  O   UNK N   1      32.472  16.642   3.613  0.00  0.00    -0.285 OA
HETATM    3  C   UNK N   1      30.005  17.304   6.080  0.00  0.00     0.008 A 
HETATM    4  C   UNK N   1      30.553  17.040   4.873  0.00  0.00     0.002 A 
HETATM    5  C   UNK N   1      30.906  17.428   7.271  0.00  0.00     0.215 A 
HETATM    6  C   UNK N   1      32.017  16.875   4.723  0.00  0.00     0.214 A 
HETATM    7  C   UNK N   1      32.381  17.255   7.136  0.00  0.00     0.156 A 
HETATM    8  C   UNK N   1      32.924  16.987   5.911  0.00  0.00     0.156 A 
HETATM    9  C   UNK N   1      29.688  16.905   3.651  0.00  0.00     0.053 C 
ENDROOT
BRANCH   3  10
HETATM   10  C   UNK N   1      28.490  17.446   6.150  0.00  0.00     0.071 C 
BRANCH  10  11
HETATM   11  C   UNK N   1      27.899  18.685   6.752  0.00  0.00    -0.020 C 
HETATM   12  C   UNK N   1      27.685  19.789   6.016  0.00  0.00    -0.087 C 
HETATM   13  C   UNK N   1      27.073  20.983   6.660  0.00  0.00     0.043 C 
BRANCH  12  14
HETATM   14  C   UNK N   1      27.975  19.842   4.542  0.00  0.00     0.037 C 
BRANCH  14  15
HETATM   15  C   UNK N   1      26.691  19.846   3.724  0.00  0.00     0.031 C 
BRANCH  15  16
HETATM   16  C   UNK N   1      26.262  18.438   3.423  0.00  0.00    -0.024 C 
HETATM   17  C   UNK N   1      25.177  17.863   3.962  0.00  0.00    -0.091 C 
HETATM   18  C   UNK N   1      24.283  18.598   4.909  0.00  0.00     0.042 C 
HETATM   19  C   UNK N   1      24.846  16.456   3.603  0.00  0.00     0.042 C 
ENDBRANCH  15  16
ENDBRANCH  14  15
ENDBRANCH  12  14
ENDBRANCH  10  11
ENDBRANCH   3  10
BRANCH   7  20
HETATM   20  O   UNK N   1      33.129  17.373   8.275  0.00  0.00    -0.350 OA
HETATM   21  C   UNK N   1      33.516  16.354   9.118  0.00  0.00     0.210 C 
ENDBRANCH   7  20
BRANCH   8  22
HETATM   22  O   UNK N   1      34.274  16.827   5.792  0.00  0.00    -0.350 OA
HETATM   23  C   UNK N   1      34.942  15.623   5.806  0.00  0.00     0.210 C 
ENDBRANCH   8  22
TORSDOF 7
ENDMDL
MODEL 6
REMARK VINA RESULT:      -6.1      4.741      8.699
REMARK  7 active torsions:
REMARK  status: ('A' for Active; 'I' for Inactive)
REMARK    1  A    between atoms: O_1  and  C_14 
REMARK    2  A    between atoms: O_2  and  C_16 
REMARK    3  A    between atoms: C_5  and  C_6 
REMARK    4  A    between atoms: C_5  and  C_9 
REMARK    5  A    between atoms: C_7  and  C_8 
REMARK    6  A    between atoms: C_7  and  C_11 
REMARK    7  A    between atoms: C_11  and  C_17 
ROOT
HETATM    1  O   UNK N   1      30.081  17.246   4.098  0.00  0.00    -0.285 OA
HETATM    2  O   UNK N   1      32.704  17.384   8.676  0.00  0.00    -0.285 OA
HETATM    3  C   UNK N   1      29.942  17.479   6.447  0.00  0.00     0.008 A 
HETATM    4  C   UNK N   1      30.639  17.511   7.604  0.00  0.00     0.002 A 
HETATM    5  C   UNK N   1      30.684  17.280   5.161  0.00  0.00     0.215 A 
HETATM    6  C   UNK N   1      32.112  17.353   7.607  0.00  0.00     0.214 A 
HETATM    7  C   UNK N   1      32.168  17.129   5.149  0.00  0.00     0.156 A 
HETATM    8  C   UNK N   1      32.863  17.164   6.324  0.00  0.00     0.156 A 
HETATM    9  C   UNK N   1      29.937  17.711   8.918  0.00  0.00     0.053 C 
ENDROOT
BRANCH   3  10
HETATM   10  C   UNK N   1      28.431  17.662   6.529  0.00  0.00     0.071 C 
BRANCH  10  11
HETATM   11  C   UNK N   1      27.878  18.997   6.924  0.00  0.00    -0.020 C 
HETATM   12  C   UNK N   1      27.710  19.981   6.025  0.00  0.00    -0.087 C 
HETATM   13  C   UNK N   1      27.132  21.280   6.470  0.00  0.00     0.043 C 
BRANCH  12  14
HETATM   14  C   UNK N   1      28.016  19.798   4.565  0.00  0.00     0.037 C 
BRANCH  14  15
HETATM   15  C   UNK N   1      26.743  19.758   3.732  0.00  0.00     0.031 C 
BRANCH  15  16
HETATM   16  C   UNK N   1      26.311  18.337   3.511  0.00  0.00    -0.024 C 
HETATM   17  C   UNK N   1      25.196  17.810   4.040  0.00  0.00    -0.091 C 
HETATM   18  C   UNK N   1      24.271  18.617   4.893  0.00  0.00     0.042 C 
HETATM   19  C   UNK N   1      24.865  16.384   3.764  0.00  0.00     0.042 C 
ENDBRANCH  15  16
ENDBRANCH  14  15
ENDBRANCH  12  14
ENDBRANCH  10  11
ENDBRANCH   3  10
BRANCH   7  20
HETATM   20  O   UNK N   1      32.767  16.963   3.930  0.00  0.00    -0.350 OA
HETATM   21  C   UNK N   1      33.007  15.771   3.283  0.00  0.00     0.210 C 
ENDBRANCH   7  20
BRANCH   8  22
HETATM   22  O   UNK N   1      34.221  17.029   6.308  0.00  0.00    -0.350 OA
HETATM   23  C   UNK N   1      34.911  15.850   6.482  0.00  0.00     0.210 C 
ENDBRANCH   8  22
TORSDOF 7
ENDMDL
MODEL 7
REMARK VINA RESULT:      -6.1     10.382     14.542
REMARK  7 active torsions:
REMARK  status: ('A' for Active; 'I' for Inactive)
REMARK    1  A    between atoms: O_1  and  C_14 
REMARK    2  A    between atoms: O_2  and  C_16 
REMARK    3  A    between atoms: C_5  and  C_6 
REMARK    4  A    between atoms: C_5  and  C_9 
REMARK    5  A    between atoms: C_7  and  C_8 
REMARK    6  A    between atoms: C_7  and  C_11 
REMARK    7  A    between atoms: C_11  and  C_17 
ROOT
HETATM    1  O   UNK N   1      33.719  15.013  11.349  0.00  0.00    -0.285 OA
HETATM    2  O   UNK N   1      37.726  13.579   8.226  0.00  0.00    -0.285 OA
HETATM    3  C   UNK N   1      35.816  13.930  11.199  0.00  0.00     0.008 A 
HETATM    4  C   UNK N   1      36.828  13.577  10.376  0.00  0.00     0.002 A 
HETATM    5  C   UNK N   1      34.650  14.680  10.630  0.00  0.00     0.215 A 
HETATM    6  C   UNK N   1      36.792  13.921   8.937  0.00  0.00     0.214 A 
HETATM    7  C   UNK N   1      34.605  15.041   9.184  0.00  0.00     0.156 A 
HETATM    8  C   UNK N   1      35.634  14.679   8.361  0.00  0.00     0.156 A 
HETATM    9  C   UNK N   1      38.019  12.827  10.904  0.00  0.00     0.053 C 
ENDROOT
BRANCH   3  10
HETATM   10  C   UNK N   1      35.937  13.549  12.670  0.00  0.00     0.071 C 
BRANCH  10  11
HETATM   11  C   UNK N   1      36.443  14.565  13.648  0.00  0.00    -0.020 C 
HETATM   12  C   UNK N   1      36.744  14.230  14.914  0.00  0.00    -0.087 C 
HETATM   13  C   UNK N   1      37.267  15.276  15.836  0.00  0.00     0.043 C 
BRANCH  12  14
HETATM   14  C   UNK N   1      36.643  12.818  15.419  0.00  0.00     0.037 C 
BRANCH  14  15
HETATM   15  C   UNK N   1      35.248  12.518  15.949  0.00  0.00     0.031 C 
BRANCH  15  16
HETATM   16  C   UNK N   1      35.154  12.882  17.403  0.00  0.00    -0.024 C 
HETATM   17  C   UNK N   1      35.334  12.004  18.401  0.00  0.00    -0.091 C 
HETATM   18  C   UNK N   1      35.664  10.569  18.138  0.00  0.00     0.042 C 
HETATM   19  C   UNK N   1      35.210  12.469  19.810  0.00  0.00     0.042 C 
ENDBRANCH  15  16
ENDBRANCH  14  15
ENDBRANCH  12  14
ENDBRANCH  10  11
ENDBRANCH   3  10
BRANCH   7  20
HETATM   20  O   UNK N   1      33.509  15.735   8.749  0.00  0.00    -0.350 OA
HETATM   21  C   UNK N   1      33.382  17.104   8.657  0.00  0.00     0.210 C 
ENDBRANCH   7  20
BRANCH   8  22
HETATM   22  O   UNK N   1      35.590  15.015   7.039  0.00  0.00    -0.350 OA
HETATM   23  C   UNK N   1      35.066  14.237   6.032  0.00  0.00     0.210 C 
ENDBRANCH   8  22
TORSDOF 7
ENDMDL
MODEL 8
REMARK VINA RESULT:      -6.1      4.937      9.099
REMARK  7 active torsions:
REMARK  status: ('A' for Active; 'I' for Inactive)
REMARK    1  A    between atoms: O_1  and  C_14 
REMARK    2  A    between atoms: O_2  and  C_16 
REMARK    3  A    between atoms: C_5  and  C_6 
REMARK    4  A    between atoms: C_5  and  C_9 
REMARK    5  A    between atoms: C_7  and  C_8 
REMARK    6  A    between atoms: C_7  and  C_11 
REMARK    7  A    between atoms: C_11  and  C_17 
ROOT
HETATM    1  O   UNK N   1      29.076  16.786   6.674  0.00  0.00    -0.285 OA
HETATM    2  O   UNK N   1      34.204  17.706   5.830  0.00  0.00    -0.285 OA
HETATM    3  C   UNK N   1      30.830  16.882   5.092  0.00  0.00     0.008 A 
HETATM    4  C   UNK N   1      32.147  17.122   4.905  0.00  0.00     0.002 A 
HETATM    5  C   UNK N   1      30.263  16.997   6.474  0.00  0.00     0.215 A 
HETATM    6  C   UNK N   1      33.019  17.493   6.043  0.00  0.00     0.214 A 
HETATM    7  C   UNK N   1      31.132  17.360   7.630  0.00  0.00     0.156 A 
HETATM    8  C   UNK N   1      32.463  17.600   7.430  0.00  0.00     0.156 A 
HETATM    9  C   UNK N   1      32.759  17.017   3.537  0.00  0.00     0.053 C 
ENDROOT
BRANCH   3  10
HETATM   10  C   UNK N   1      30.004  16.494   3.871  0.00  0.00     0.071 C 
BRANCH  10  11
HETATM   11  C   UNK N   1      29.413  15.119   3.796  0.00  0.00    -0.020 C 
HETATM   12  C   UNK N   1      28.167  14.915   3.336  0.00  0.00    -0.087 C 
HETATM   13  C   UNK N   1      27.640  13.525   3.261  0.00  0.00     0.043 C 
BRANCH  12  14
HETATM   14  C   UNK N   1      27.305  16.034   2.823  0.00  0.00     0.037 C 
BRANCH  14  15
HETATM   15  C   UNK N   1      26.503  16.676   3.946  0.00  0.00     0.031 C 
BRANCH  15  16
HETATM   16  C   UNK N   1      25.929  17.988   3.491  0.00  0.00    -0.024 C 
HETATM   17  C   UNK N   1      26.495  19.175   3.755  0.00  0.00    -0.091 C 
HETATM   18  C   UNK N   1      27.772  19.286   4.524  0.00  0.00     0.042 C 
HETATM   19  C   UNK N   1      25.838  20.418   3.264  0.00  0.00     0.042 C 
ENDBRANCH  15  16
ENDBRANCH  14  15
ENDBRANCH  12  14
ENDBRANCH  10  11
ENDBRANCH   3  10
BRANCH   7  20
HETATM   20  O   UNK N   1      30.536  17.431   8.860  0.00  0.00    -0.350 OA
HETATM   21  C   UNK N   1      29.973  18.546   9.441  0.00  0.00     0.210 C 
ENDBRANCH   7  20
BRANCH   8  22
HETATM   22  O   UNK N   1      33.255  17.929   8.492  0.00  0.00    -0.350 OA
HETATM   23  C   UNK N   1      34.059  17.058   9.191  0.00  0.00     0.210 C 
ENDBRANCH   8  22
TORSDOF 7
ENDMDL
MODEL 9
REMARK VINA RESULT:      -6.0      1.919      3.407
REMARK  7 active torsions:
REMARK  status: ('A' for Active; 'I' for Inactive)
REMARK    1  A    between atoms: O_1  and  C_14 
REMARK    2  A    between atoms: O_2  and  C_16 
REMARK    3  A    between atoms: C_5  and  C_6 
REMARK    4  A    between atoms: C_5  and  C_9 
REMARK    5  A    between atoms: C_7  and  C_8 
REMARK    6  A    between atoms: C_7  and  C_11 
REMARK    7  A    between atoms: C_11  and  C_17 
ROOT
HETATM    1  O   UNK N   1      24.534  16.664   4.915  0.00  0.00    -0.285 OA
HETATM    2  O   UNK N   1      23.293  21.270   2.655  0.00  0.00    -0.285 OA
HETATM    3  C   UNK N   1      25.335  18.674   3.961  0.00  0.00     0.008 A 
HETATM    4  C   UNK N   1      24.987  19.847   3.386  0.00  0.00     0.002 A 
HETATM    5  C   UNK N   1      24.252  17.733   4.392  0.00  0.00     0.215 A 
HETATM    6  C   UNK N   1      23.564  20.201   3.183  0.00  0.00     0.214 A 
HETATM    7  C   UNK N   1      22.814  18.081   4.203  0.00  0.00     0.156 A 
HETATM    8  C   UNK N   1      22.475  19.270   3.621  0.00  0.00     0.156 A 
HETATM    9  C   UNK N   1      26.040  20.823   2.939  0.00  0.00     0.053 C 
ENDROOT
BRANCH   3  10
HETATM   10  C   UNK N   1      26.821  18.392   4.144  0.00  0.00     0.071 C 
BRANCH  10  11
HETATM   11  C   UNK N   1      27.475  18.739   5.447  0.00  0.00    -0.020 C 
HETATM   12  C   UNK N   1      28.033  17.797   6.225  0.00  0.00    -0.087 C 
HETATM   13  C   UNK N   1      28.690  18.203   7.498  0.00  0.00     0.043 C 
BRANCH  12  14
HETATM   14  C   UNK N   1      28.083  16.349   5.826  0.00  0.00     0.037 C 
BRANCH  14  15
HETATM   15  C   UNK N   1      29.503  15.804   5.888  0.00  0.00     0.031 C 
BRANCH  15  16
HETATM   16  C   UNK N   1      30.352  16.446   4.828  0.00  0.00    -0.024 C 
HETATM   17  C   UNK N   1      31.520  17.056   5.082  0.00  0.00    -0.091 C 
HETATM   18  C   UNK N   1      32.085  17.132   6.464  0.00  0.00     0.042 C 
HETATM   19  C   UNK N   1      32.279  17.669   3.957  0.00  0.00     0.042 C 
ENDBRANCH  15  16
ENDBRANCH  14  15
ENDBRANCH  12  14
ENDBRANCH  10  11
ENDBRANCH   3  10
BRANCH   7  20
HETATM   20  O   UNK N   1      21.890  17.169   4.636  0.00  0.00    -0.350 OA
HETATM   21  C   UNK N   1      21.337  16.142   3.903  0.00  0.00     0.210 C 
ENDBRANCH   7  20
BRANCH   8  22
HETATM   22  O   UNK N   1      21.158  19.586   3.453  0.00  0.00    -0.350 OA
HETATM   23  C   UNK N   1      20.427  19.388   2.303  0.00  0.00     0.210 C 
ENDBRANCH   8  22
TORSDOF 7
ENDMDL
