REMARK  5 active torsions:
REMARK  status: ('A' for Active; 'I' for Inactive)
REMARK    1  A    between atoms: C_13  and  C_12 
REMARK    2  A    between atoms: C_14  and  C_12 
REMARK    3  A    between atoms: C_17  and  C_13 
REMARK    4  A    between atoms: N_20  and  C_15 
REMARK    5  A    between atoms: N_21  and  C_16 
ROOT
HETATM    1  C   UNK N   1       4.340   2.242  -0.430  0.00  0.00     0.174 A 
HETATM    2  C   UNK N   1       3.002   2.955  -0.362  0.00  0.00     0.257 A 
HETATM    3  C   UNK N   1       3.802   0.840  -0.269  0.00  0.00     0.257 A 
HETATM    4  N   UNK N   1       1.963   2.094  -0.208  0.00  0.00    -0.214 N 
HETATM    5  N   UNK N   1       2.454   0.807  -0.162  0.00  0.00    -0.214 N 
HETATM    6  O   UNK N   1       2.881   4.172  -0.387  0.00  0.00    -0.270 OA
HETATM    7  O   UNK N   1       4.503  -0.160  -0.303  0.00  0.00    -0.270 OA
ENDROOT
BRANCH   4   8
HETATM    8  C   UNK N   1       0.596   2.514   0.002  0.00  0.00     0.060 A 
HETATM    9  C   UNK N   1      -0.319   1.715   0.707  0.00  0.00     0.031 A 
HETATM   10  C   UNK N   1      -1.634   2.138   0.922  0.00  0.00     0.002 A 
HETATM   11  C   UNK N   1      -2.052   3.382   0.450  0.00  0.00     0.000 A 
HETATM   12  C   UNK N   1      -1.151   4.207  -0.224  0.00  0.00     0.002 A 
HETATM   13  C   UNK N   1       0.164   3.780  -0.438  0.00  0.00     0.031 A 
ENDBRANCH   4   8
BRANCH   5  14
HETATM   14  C   UNK N   1       1.702  -0.423  -0.134  0.00  0.00     0.060 A 
HETATM   15  C   UNK N   1       2.288  -1.596   0.379  0.00  0.00     0.031 A 
HETATM   16  C   UNK N   1       1.597  -2.809   0.373  0.00  0.00     0.002 A 
HETATM   17  C   UNK N   1       0.313  -2.875  -0.168  0.00  0.00     0.000 A 
HETATM   18  C   UNK N   1      -0.273  -1.731  -0.710  0.00  0.00     0.002 A 
HETATM   19  C   UNK N   1       0.421  -0.517  -0.701  0.00  0.00     0.031 A 
ENDBRANCH   5  14
BRANCH   1  20
HETATM   20  C   UNK N   1       5.225   2.589   0.760  0.00  0.00     0.031 C 
BRANCH  20  21
HETATM   21  C   UNK N   1       6.578   3.142   0.318  0.00  0.00     0.079 C 
BRANCH  21  22
HETATM   22  C   UNK N   1       7.594   2.108  -0.101  0.00  0.00     0.123 C 
HETATM   23  C   UNK N   1       7.268   0.653  -0.177  0.00  0.00     0.091 C 
HETATM   24  O   UNK N   1       8.724   2.470  -0.378  0.00  0.00    -0.298 OA
ENDBRANCH  21  22
ENDBRANCH  20  21
ENDBRANCH   1  20
TORSDOF 5
