MODEL 1
REMARK VINA RESULT:      -5.9      0.000      0.000
REMARK  4 active torsions:
REMARK  status: ('A' for Active; 'I' for Inactive)
REMARK    1  A    between atoms: O_1  and  C_15 
REMARK    2  A    between atoms: O_2  and  C_16 
REMARK    3  A    between atoms: C_5  and  C_12 
REMARK    4  A    between atoms: C_5  and  C_17 
ROOT
HETATM    1  O   UNK N   1      24.172  21.130   2.261  0.00  0.00    -0.285 OA
HETATM    2  O   UNK N   1      22.043  17.062   4.855  0.00  0.00    -0.285 OA
HETATM    3  C   UNK N   1      24.868  17.211   4.995  0.00  0.00     0.053 C 
HETATM    4  C   UNK N   1      23.676  20.200   2.880  0.00  0.00     0.215 A 
HETATM    5  C   UNK N   1      22.536  18.016   4.268  0.00  0.00     0.214 A 
HETATM    6  C   UNK N   1      22.196  20.060   2.928  0.00  0.00     0.156 A 
HETATM    7  C   UNK N   1      21.648  19.015   3.623  0.00  0.00     0.156 A 
HETATM    8  C   UNK N   1      24.556  19.240   3.603  0.00  0.00     0.008 A 
HETATM    9  C   UNK N   1      24.007  18.192   4.254  0.00  0.00     0.002 A 
ENDROOT
BRANCH   8  10
HETATM   10  C   UNK N   1      26.043  19.479   3.668  0.00  0.00     0.071 C 
BRANCH  10  11
HETATM   11  C   UNK N   1      26.443  20.617   4.556  0.00  0.00    -0.020 C 
HETATM   12  C   UNK N   1      27.299  20.441   5.572  0.00  0.00    -0.091 C 
HETATM   13  C   UNK N   1      27.635  21.592   6.454  0.00  0.00     0.042 C 
HETATM   14  C   UNK N   1      27.907  19.104   5.863  0.00  0.00     0.042 C 
ENDBRANCH  10  11
ENDBRANCH   8  10
BRANCH   6  15
HETATM   15  O   UNK N   1      21.461  21.000   2.262  0.00  0.00    -0.350 OA
HETATM   16  C   UNK N   1      20.879  20.856   1.023  0.00  0.00     0.210 C 
ENDBRANCH   6  15
BRANCH   7  17
HETATM   17  O   UNK N   1      20.311  18.858   3.768  0.00  0.00    -0.350 OA
HETATM   18  C   UNK N   1      19.585  18.099   2.877  0.00  0.00     0.210 C 
ENDBRANCH   7  17
TORSDOF 4
ENDMDL
MODEL 2
REMARK VINA RESULT:      -5.7      6.169      8.320
REMARK  4 active torsions:
REMARK  status: ('A' for Active; 'I' for Inactive)
REMARK    1  A    between atoms: O_1  and  C_15 
REMARK    2  A    between atoms: O_2  and  C_16 
REMARK    3  A    between atoms: C_5  and  C_12 
REMARK    4  A    between atoms: C_5  and  C_17 
ROOT
HETATM    1  O   UNK N   1      19.777  13.635   9.958  0.00  0.00    -0.285 OA
HETATM    2  O   UNK N   1      23.301  15.593   6.557  0.00  0.00    -0.285 OA
HETATM    3  C   UNK N   1      24.091  13.190   7.832  0.00  0.00     0.053 C 
HETATM    4  C   UNK N   1      20.585  14.078   9.153  0.00  0.00     0.215 A 
HETATM    5  C   UNK N   1      22.476  15.129   7.333  0.00  0.00     0.214 A 
HETATM    6  C   UNK N   1      20.247  15.302   8.378  0.00  0.00     0.156 A 
HETATM    7  C   UNK N   1      21.156  15.792   7.479  0.00  0.00     0.156 A 
HETATM    8  C   UNK N   1      21.877  13.371   8.936  0.00  0.00     0.008 A 
HETATM    9  C   UNK N   1      22.782  13.883   8.075  0.00  0.00     0.002 A 
ENDROOT
BRANCH   8  10
HETATM   10  C   UNK N   1      22.142  12.053   9.619  0.00  0.00     0.071 C 
BRANCH  10  11
HETATM   11  C   UNK N   1      22.145  12.127  11.114  0.00  0.00    -0.020 C 
HETATM   12  C   UNK N   1      23.284  12.045  11.814  0.00  0.00    -0.091 C 
HETATM   13  C   UNK N   1      23.236  12.080  13.302  0.00  0.00     0.042 C 
HETATM   14  C   UNK N   1      24.611  11.888  11.137  0.00  0.00     0.042 C 
ENDBRANCH  10  11
ENDBRANCH   8  10
BRANCH   6  15
HETATM   15  O   UNK N   1      19.029  15.873   8.616  0.00  0.00    -0.350 OA
HETATM   16  C   UNK N   1      18.798  17.158   9.050  0.00  0.00     0.210 C 
ENDBRANCH   6  15
BRANCH   7  17
HETATM   17  O   UNK N   1      20.897  16.862   6.689  0.00  0.00    -0.350 OA
HETATM   18  C   UNK N   1      20.305  16.705   5.456  0.00  0.00     0.210 C 
ENDBRANCH   7  17
TORSDOF 4
ENDMDL
MODEL 3
REMARK VINA RESULT:      -5.3      6.132      9.457
REMARK  4 active torsions:
REMARK  status: ('A' for Active; 'I' for Inactive)
REMARK    1  A    between atoms: O_1  and  C_15 
REMARK    2  A    between atoms: O_2  and  C_16 
REMARK    3  A    between atoms: C_5  and  C_12 
REMARK    4  A    between atoms: C_5  and  C_17 
ROOT
HETATM    1  O   UNK N   1      30.281  17.405   4.218  0.00  0.00    -0.285 OA
HETATM    2  O   UNK N   1      33.093  17.435   8.679  0.00  0.00    -0.285 OA
HETATM    3  C   UNK N   1      30.297  17.716   9.037  0.00  0.00     0.053 C 
HETATM    4  C   UNK N   1      30.932  17.389   5.254  0.00  0.00     0.215 A 
HETATM    5  C   UNK N   1      32.439  17.410   7.646  0.00  0.00     0.214 A 
HETATM    6  C   UNK N   1      32.404  17.184   5.189  0.00  0.00     0.156 A 
HETATM    7  C   UNK N   1      33.125  17.169   6.352  0.00  0.00     0.156 A 
HETATM    8  C   UNK N   1      30.241  17.544   6.563  0.00  0.00     0.008 A 
HETATM    9  C   UNK N   1      30.966  17.565   7.702  0.00  0.00     0.002 A 
ENDROOT
BRANCH   8  10
HETATM   10  C   UNK N   1      28.736  17.603   6.622  0.00  0.00     0.071 C 
BRANCH  10  11
HETATM   11  C   UNK N   1      28.187  18.964   6.922  0.00  0.00    -0.020 C 
HETATM   12  C   UNK N   1      27.638  19.722   5.964  0.00  0.00    -0.091 C 
HETATM   13  C   UNK N   1      27.144  21.086   6.300  0.00  0.00     0.042 C 
HETATM   14  C   UNK N   1      27.534  19.243   4.548  0.00  0.00     0.042 C 
ENDBRANCH  10  11
ENDBRANCH   8  10
BRANCH   6  15
HETATM   15  O   UNK N   1      32.955  17.021   3.949  0.00  0.00    -0.350 OA
HETATM   16  C   UNK N   1      33.137  15.830   3.285  0.00  0.00     0.210 C 
ENDBRANCH   6  15
BRANCH   7  17
HETATM   17  O   UNK N   1      34.457  16.922   6.381  0.00  0.00    -0.350 OA
HETATM   18  C   UNK N   1      34.937  15.637   6.507  0.00  0.00     0.210 C 
ENDBRANCH   7  17
TORSDOF 4
ENDMDL
MODEL 4
REMARK VINA RESULT:      -5.2      6.161      9.695
REMARK  4 active torsions:
REMARK  status: ('A' for Active; 'I' for Inactive)
REMARK    1  A    between atoms: O_1  and  C_15 
REMARK    2  A    between atoms: O_2  and  C_16 
REMARK    3  A    between atoms: C_5  and  C_12 
REMARK    4  A    between atoms: C_5  and  C_17 
ROOT
HETATM    1  O   UNK N   1      30.617  17.784   9.019  0.00  0.00    -0.285 OA
HETATM    2  O   UNK N   1      32.282  16.913   4.092  0.00  0.00    -0.285 OA
HETATM    3  C   UNK N   1      29.479  17.225   4.360  0.00  0.00     0.053 C 
HETATM    4  C   UNK N   1      31.006  17.604   7.874  0.00  0.00     0.215 A 
HETATM    5  C   UNK N   1      31.897  17.133   5.232  0.00  0.00     0.214 A 
HETATM    6  C   UNK N   1      32.465  17.489   7.607  0.00  0.00     0.156 A 
HETATM    7  C   UNK N   1      32.892  17.287   6.323  0.00  0.00     0.156 A 
HETATM    8  C   UNK N   1      30.020  17.534   6.761  0.00  0.00     0.008 A 
HETATM    9  C   UNK N   1      30.449  17.297   5.503  0.00  0.00     0.002 A 
ENDROOT
BRANCH   8  10
HETATM   10  C   UNK N   1      28.559  17.798   7.026  0.00  0.00     0.071 C 
BRANCH  10  11
HETATM   11  C   UNK N   1      28.213  19.249   7.158  0.00  0.00    -0.020 C 
HETATM   12  C   UNK N   1      27.314  19.828   6.351  0.00  0.00    -0.091 C 
HETATM   13  C   UNK N   1      27.033  21.283   6.490  0.00  0.00     0.042 C 
HETATM   14  C   UNK N   1      26.602  19.052   5.285  0.00  0.00     0.042 C 
ENDBRANCH  10  11
ENDBRANCH   8  10
BRANCH   6  15
HETATM   15  O   UNK N   1      33.303  17.594   8.681  0.00  0.00    -0.350 OA
HETATM   16  C   UNK N   1      33.902  16.555   9.356  0.00  0.00     0.210 C 
ENDBRANCH   6  15
BRANCH   7  17
HETATM   17  O   UNK N   1      34.205  17.239   5.990  0.00  0.00    -0.350 OA
HETATM   18  C   UNK N   1      34.878  16.039   5.931  0.00  0.00     0.210 C 
ENDBRANCH   7  17
TORSDOF 4
ENDMDL
MODEL 5
REMARK VINA RESULT:      -5.2      9.088     12.685
REMARK  4 active torsions:
REMARK  status: ('A' for Active; 'I' for Inactive)
REMARK    1  A    between atoms: O_1  and  C_15 
REMARK    2  A    between atoms: O_2  and  C_16 
REMARK    3  A    between atoms: C_5  and  C_12 
REMARK    4  A    between atoms: C_5  and  C_17 
ROOT
HETATM    1  O   UNK N   1      33.356  14.286   6.874  0.00  0.00    -0.285 OA
HETATM    2  O   UNK N   1      35.106  17.298  10.833  0.00  0.00    -0.285 OA
HETATM    3  C   UNK N   1      34.845  18.636   8.350  0.00  0.00     0.053 C 
HETATM    4  C   UNK N   1      33.741  14.989   7.798  0.00  0.00     0.215 A 
HETATM    5  C   UNK N   1      34.684  16.604   9.918  0.00  0.00     0.214 A 
HETATM    6  C   UNK N   1      33.855  14.406   9.162  0.00  0.00     0.156 A 
HETATM    7  C   UNK N   1      34.287  15.199  10.190  0.00  0.00     0.156 A 
HETATM    8  C   UNK N   1      34.059  16.422   7.553  0.00  0.00     0.008 A 
HETATM    9  C   UNK N   1      34.520  17.187   8.566  0.00  0.00     0.002 A 
ENDROOT
BRANCH   8  10
HETATM   10  C   UNK N   1      33.798  17.035   6.200  0.00  0.00     0.071 C 
BRANCH  10  11
HETATM   11  C   UNK N   1      32.353  17.305   5.917  0.00  0.00    -0.020 C 
HETATM   12  C   UNK N   1      31.873  17.297   4.666  0.00  0.00    -0.091 C 
HETATM   13  C   UNK N   1      30.438  17.614   4.430  0.00  0.00     0.042 C 
HETATM   14  C   UNK N   1      32.753  17.005   3.490  0.00  0.00     0.042 C 
ENDBRANCH  10  11
ENDBRANCH   8  10
BRANCH   6  15
HETATM   15  O   UNK N   1      33.515  13.090   9.306  0.00  0.00    -0.350 OA
HETATM   16  C   UNK N   1      34.365  12.012   9.218  0.00  0.00     0.210 C 
ENDBRANCH   6  15
BRANCH   7  17
HETATM   17  O   UNK N   1      34.354  14.762  11.471  0.00  0.00    -0.350 OA
HETATM   18  C   UNK N   1      35.501  14.181  11.963  0.00  0.00     0.210 C 
ENDBRANCH   7  17
TORSDOF 4
ENDMDL
MODEL 6
REMARK VINA RESULT:      -5.2      4.660      6.946
REMARK  4 active torsions:
REMARK  status: ('A' for Active; 'I' for Inactive)
REMARK    1  A    between atoms: O_1  and  C_15 
REMARK    2  A    between atoms: O_2  and  C_16 
REMARK    3  A    between atoms: C_5  and  C_12 
REMARK    4  A    between atoms: C_5  and  C_17 
ROOT
HETATM    1  O   UNK N   1      22.302  13.811   5.822  0.00  0.00    -0.285 OA
HETATM    2  O   UNK N   1      20.932  18.759   7.027  0.00  0.00    -0.285 OA
HETATM    3  C   UNK N   1      19.984  16.793   8.832  0.00  0.00     0.053 C 
HETATM    4  C   UNK N   1      22.003  14.961   6.113  0.00  0.00     0.215 A 
HETATM    5  C   UNK N   1      21.264  17.613   6.758  0.00  0.00     0.214 A 
HETATM    6  C   UNK N   1      22.500  16.081   5.269  0.00  0.00     0.156 A 
HETATM    7  C   UNK N   1      22.161  17.365   5.601  0.00  0.00     0.156 A 
HETATM    8  C   UNK N   1      21.175  15.227   7.321  0.00  0.00     0.008 A 
HETATM    9  C   UNK N   1      20.815  16.494   7.618  0.00  0.00     0.002 A 
ENDROOT
BRANCH   8  10
HETATM   10  C   UNK N   1      20.802  14.096   8.246  0.00  0.00     0.071 C 
BRANCH  10  11
HETATM   11  C   UNK N   1      21.948  13.555   9.045  0.00  0.00    -0.020 C 
HETATM   12  C   UNK N   1      21.752  12.952  10.225  0.00  0.00    -0.091 C 
HETATM   13  C   UNK N   1      22.924  12.468  11.005  0.00  0.00     0.042 C 
HETATM   14  C   UNK N   1      20.379  12.778  10.799  0.00  0.00     0.042 C 
ENDBRANCH  10  11
ENDBRANCH   8  10
BRANCH   6  15
HETATM   15  O   UNK N   1      23.279  15.752   4.195  0.00  0.00    -0.350 OA
HETATM   16  C   UNK N   1      22.840  15.474   2.921  0.00  0.00     0.210 C 
ENDBRANCH   6  15
BRANCH   7  17
HETATM   17  O   UNK N   1      22.628  18.441   4.923  0.00  0.00    -0.350 OA
HETATM   18  C   UNK N   1      21.944  18.950   3.842  0.00  0.00     0.210 C 
ENDBRANCH   7  17
TORSDOF 4
ENDMDL
MODEL 7
REMARK VINA RESULT:      -5.1      4.852      7.394
REMARK  4 active torsions:
REMARK  status: ('A' for Active; 'I' for Inactive)
REMARK    1  A    between atoms: O_1  and  C_15 
REMARK    2  A    between atoms: O_2  and  C_16 
REMARK    3  A    between atoms: C_5  and  C_12 
REMARK    4  A    between atoms: C_5  and  C_17 
ROOT
HETATM    1  O   UNK N   1      30.509  16.172   5.448  0.00  0.00    -0.285 OA
HETATM    2  O   UNK N   1      27.508  19.608   8.093  0.00  0.00    -0.285 OA
HETATM    3  C   UNK N   1      29.610  18.459   9.604  0.00  0.00     0.053 C 
HETATM    4  C   UNK N   1      29.826  16.985   6.054  0.00  0.00     0.215 A 
HETATM    5  C   UNK N   1      28.215  18.824   7.475  0.00  0.00     0.214 A 
HETATM    6  C   UNK N   1      28.732  17.698   5.340  0.00  0.00     0.156 A 
HETATM    7  C   UNK N   1      27.972  18.606   6.026  0.00  0.00     0.156 A 
HETATM    8  C   UNK N   1      30.117  17.274   7.485  0.00  0.00     0.008 A 
HETATM    9  C   UNK N   1      29.338  18.144   8.162  0.00  0.00     0.002 A 
ENDROOT
BRANCH   8  10
HETATM   10  C   UNK N   1      31.319  16.655   8.153  0.00  0.00     0.071 C 
BRANCH  10  11
HETATM   11  C   UNK N   1      32.417  17.626   8.462  0.00  0.00    -0.020 C 
HETATM   12  C   UNK N   1      33.547  17.653   7.744  0.00  0.00    -0.091 C 
HETATM   13  C   UNK N   1      34.629  18.606   8.115  0.00  0.00     0.042 C 
HETATM   14  C   UNK N   1      33.765  16.724   6.589  0.00  0.00     0.042 C 
ENDBRANCH  10  11
ENDBRANCH   8  10
BRANCH   6  15
HETATM   15  O   UNK N   1      28.551  17.395   4.021  0.00  0.00    -0.350 OA
HETATM   16  C   UNK N   1      27.623  16.521   3.502  0.00  0.00     0.210 C 
ENDBRANCH   6  15
BRANCH   7  17
HETATM   17  O   UNK N   1      27.003  19.343   5.432  0.00  0.00    -0.350 OA
HETATM   18  C   UNK N   1      27.302  20.526   4.794  0.00  0.00     0.210 C 
ENDBRANCH   7  17
TORSDOF 4
ENDMDL
MODEL 8
REMARK VINA RESULT:      -5.1      1.530      3.280
REMARK  4 active torsions:
REMARK  status: ('A' for Active; 'I' for Inactive)
REMARK    1  A    between atoms: O_1  and  C_15 
REMARK    2  A    between atoms: O_2  and  C_16 
REMARK    3  A    between atoms: C_5  and  C_12 
REMARK    4  A    between atoms: C_5  and  C_17 
ROOT
HETATM    1  O   UNK N   1      24.069  16.412   4.717  0.00  0.00    -0.285 OA
HETATM    2  O   UNK N   1      23.505  21.312   2.850  0.00  0.00    -0.285 OA
HETATM    3  C   UNK N   1      26.189  20.484   3.221  0.00  0.00     0.053 C 
HETATM    4  C   UNK N   1      23.938  17.540   4.263  0.00  0.00     0.215 A 
HETATM    5  C   UNK N   1      23.637  20.169   3.267  0.00  0.00     0.214 A 
HETATM    6  C   UNK N   1      22.574  18.056   3.970  0.00  0.00     0.156 A 
HETATM    7  C   UNK N   1      22.435  19.320   3.463  0.00  0.00     0.156 A 
HETATM    8  C   UNK N   1      25.143  18.368   3.982  0.00  0.00     0.008 A 
HETATM    9  C   UNK N   1      24.994  19.627   3.517  0.00  0.00     0.002 A 
ENDROOT
BRANCH   8  10
HETATM   10  C   UNK N   1      26.521  17.779   4.146  0.00  0.00     0.071 C 
BRANCH  10  11
HETATM   11  C   UNK N   1      27.049  17.834   5.546  0.00  0.00    -0.020 C 
HETATM   12  C   UNK N   1      28.365  17.864   5.795  0.00  0.00    -0.091 C 
HETATM   13  C   UNK N   1      28.845  17.874   7.204  0.00  0.00     0.042 C 
HETATM   14  C   UNK N   1      29.373  17.856   4.687  0.00  0.00     0.042 C 
ENDBRANCH  10  11
ENDBRANCH   8  10
BRANCH   6  15
HETATM   15  O   UNK N   1      21.524  17.221   4.230  0.00  0.00    -0.350 OA
HETATM   16  C   UNK N   1      20.792  17.165   5.393  0.00  0.00     0.210 C 
ENDBRANCH   6  15
BRANCH   7  17
HETATM   17  O   UNK N   1      21.234  19.836   3.107  0.00  0.00    -0.350 OA
HETATM   18  C   UNK N   1      20.694  19.586   1.865  0.00  0.00     0.210 C 
ENDBRANCH   7  17
TORSDOF 4
ENDMDL
MODEL 9
REMARK VINA RESULT:      -5.1     16.789     19.659
REMARK  4 active torsions:
REMARK  status: ('A' for Active; 'I' for Inactive)
REMARK    1  A    between atoms: O_1  and  C_15 
REMARK    2  A    between atoms: O_2  and  C_16 
REMARK    3  A    between atoms: C_5  and  C_12 
REMARK    4  A    between atoms: C_5  and  C_17 
ROOT
HETATM    1  O   UNK N   1      35.179   9.128  15.894  0.00  0.00    -0.285 OA
HETATM    2  O   UNK N   1      35.111  14.220  17.265  0.00  0.00    -0.285 OA
HETATM    3  C   UNK N   1      35.264  12.409  19.437  0.00  0.00     0.053 C 
HETATM    4  C   UNK N   1      35.185  10.310  16.210  0.00  0.00     0.215 A 
HETATM    5  C   UNK N   1      35.144  13.039  16.946  0.00  0.00     0.214 A 
HETATM    6  C   UNK N   1      35.171  11.351  15.147  0.00  0.00     0.156 A 
HETATM    7  C   UNK N   1      35.178  12.671  15.509  0.00  0.00     0.156 A 
HETATM    8  C   UNK N   1      35.239  10.690  17.648  0.00  0.00     0.008 A 
HETATM    9  C   UNK N   1      35.207  11.995  17.995  0.00  0.00     0.002 A 
ENDROOT
BRANCH   8  10
HETATM   10  C   UNK N   1      35.402   9.628  18.706  0.00  0.00     0.071 C 
BRANCH  10  11
HETATM   11  C   UNK N   1      34.209   8.737  18.869  0.00  0.00    -0.020 C 
HETATM   12  C   UNK N   1      33.438   8.797  19.963  0.00  0.00    -0.091 C 
HETATM   13  C   UNK N   1      32.288   7.862  20.101  0.00  0.00     0.042 C 
HETATM   14  C   UNK N   1      33.722   9.764  21.071  0.00  0.00     0.042 C 
ENDBRANCH  10  11
ENDBRANCH   8  10
BRANCH   6  15
HETATM   15  O   UNK N   1      35.151  10.916  13.852  0.00  0.00    -0.350 OA
HETATM   16  C   UNK N   1      34.034  10.633  13.101  0.00  0.00     0.210 C 
ENDBRANCH   6  15
BRANCH   7  17
HETATM   17  O   UNK N   1      35.233  13.676  14.601  0.00  0.00    -0.350 OA
HETATM   18  C   UNK N   1      36.436  14.099  14.084  0.00  0.00     0.210 C 
ENDBRANCH   7  17
TORSDOF 4
ENDMDL
