REMARK  7 active torsions:
REMARK  status: ('A' for Active; 'I' for Inactive)
REMARK    1  A    between atoms: S_1  and  C_8 
REMARK    2  A    between atoms: S_1  and  C_9 
REMARK    3  A    between atoms: O_4  and  C_21 
REMARK    4  A    between atoms: N_6  and  C_12 
REMARK    5  A    between atoms: N_6  and  C_20 
REMARK    6  A    between atoms: N_7  and  C_19 
REMARK    7  A    between atoms: C_20  and  C_21 
ROOT
HETATM    1  C   UNK N   1       2.794  -0.434   0.361  0.00  0.00     0.064 A 
HETATM    2  C   UNK N   1       1.871  -1.398   0.775  0.00  0.00     0.026 A 
HETATM    3  C   UNK N   1       4.081  -0.827  -0.025  0.00  0.00     0.026 A 
HETATM    4  C   UNK N   1       3.504  -3.152   0.424  0.00  0.00     0.028 A 
HETATM    5  C   UNK N   1       2.220  -2.744   0.804  0.00  0.00     0.030 A 
HETATM    6  C   UNK N   1       4.432  -2.186  -0.003  0.00  0.00     0.030 A 
ENDROOT
BRANCH   1   7
HETATM    7  S   UNK N   1       2.345   1.294   0.523  0.00  0.00     0.206 S 
HETATM    8  O   UNK N   1       2.536   1.461   2.037  0.00  0.00    -0.217 OA
HETATM    9  O   UNK N   1       0.808   1.296   0.588  0.00  0.00    -0.217 OA
BRANCH   7  10
HETATM   10  C   UNK N   1       2.775   2.952  -0.011  0.00  0.00     0.064 A 
HETATM   11  C   UNK N   1       4.007   3.505   0.357  0.00  0.00     0.026 A 
HETATM   12  C   UNK N   1       4.251   4.868   0.156  0.00  0.00     0.030 A 
HETATM   13  C   UNK N   1       3.258   5.688  -0.395  0.00  0.00     0.025 A 
HETATM   14  C   UNK N   1       2.036   5.128  -0.788  0.00  0.00     0.030 A 
HETATM   15  C   UNK N   1       1.794   3.767  -0.589  0.00  0.00     0.026 A 
BRANCH  13  16
HETATM   16  N   UNK N   1       3.467   7.082  -0.507  0.00  0.00    -0.399 N 
HETATM   17  H   UNK N   1       4.344   7.506  -0.172  0.00  0.00     0.156 HD
HETATM   18  H   UNK N   1       2.716   7.695  -0.857  0.00  0.00     0.156 HD
ENDBRANCH  13  16
ENDBRANCH   7  10
ENDBRANCH   1   7
BRANCH   4  19
HETATM   19  N   UNK N   1       3.881  -4.524   0.494  0.00  0.00    -0.380 N 
HETATM   20  H   UNK N   1       4.842  -4.800   0.246  0.00  0.00     0.160 HD
BRANCH  19  21
HETATM   21  C   UNK N   1       2.985  -5.543   1.002  0.00  0.00     0.229 C 
BRANCH  21  22
HETATM   22  C   UNK N   1       1.814  -5.743   0.091  0.00  0.00     0.158 C 
HETATM   23  O   UNK N   1       1.987  -6.120  -1.056  0.00  0.00    -0.649 OA
BRANCH  22  24
HETATM   24  O   UNK N   1       0.566  -5.512   0.541  0.00  0.00    -0.775 OA
HETATM   25  H   UNK N   1       0.271  -4.679   0.854  0.00  0.00     0.167 HD
ENDBRANCH  22  24
ENDBRANCH  21  22
ENDBRANCH  19  21
ENDBRANCH   4  19
TORSDOF 7
