MODEL 1
REMARK VINA RESULT:      -7.3      0.000      0.000
REMARK  11 active torsions:
REMARK  status: ('A' for Active; 'I' for Inactive)
REMARK    1  A    between atoms: C_9  and  C_6 
REMARK    2  A    between atoms: C_8  and  C_7 
REMARK    3  A    between atoms: C_10  and  C_7 
REMARK    4  A    between atoms: C_13  and  C_8 
REMARK    5  A    between atoms: C_15  and  C_9 
REMARK    6  A    between atoms: C_16  and  C_10 
REMARK    7  A    between atoms: C_12  and  C_11 
REMARK    8  A    between atoms: C_19  and  C_16 
REMARK    9  A    between atoms: C_21  and  C_17 
REMARK   10  A    between atoms: C_21  and  C_20 
REMARK       I    between atoms: N_24  and  C_23 
REMARK   11  A    between atoms: O_30  and  C_23 
ROOT
HETATM    1  C   UNK N   1      33.514  17.165   9.020  0.00  0.00     0.084 C 
HETATM    2  C   UNK N   1      34.715  16.643   9.710  0.00  0.00     0.173 C 
HETATM    3  C   UNK N   1      32.546  16.318   8.618  0.00  0.00     0.064 C 
HETATM    4  C   UNK N   1      34.716  15.196  10.174  0.00  0.00     0.233 C 
HETATM    5  C   UNK N   1      33.841  14.415   9.214  0.00  0.00     0.283 C 
HETATM    6  O   UNK N   1      35.545  17.432  10.132  0.00  0.00    -0.292 OA
HETATM    7  O   UNK N   1      34.186  13.329   8.776  0.00  0.00    -0.263 OA
HETATM    8  O   UNK N   1      32.702  14.973   8.752  0.00  0.00    -0.282 OA
ENDROOT
BRANCH   3   9
HETATM    9  C   UNK N   1      31.285  16.843   7.985  0.00  0.00     0.039 C 
HETATM   10  C   UNK N   1      31.536  17.101   6.512  0.00  0.00     0.017 C 
BRANCH   9  11
HETATM   11  C   UNK N   1      30.756  18.112   8.680  0.00  0.00     0.011 C 
BRANCH  11  12
HETATM   12  C   UNK N   1      29.653  17.926   9.739  0.00  0.00     0.006 C 
BRANCH  12  13
HETATM   13  C   UNK N   1      28.219  17.879   9.212  0.00  0.00     0.044 C 
BRANCH  13  14
HETATM   14  C   UNK N   1      28.085  18.644   7.941  0.00  0.00     0.066 C 
HETATM   15  N   UNK N   1      27.379  19.720   7.915  0.00  0.00    -0.317 N 
HETATM   16  C   UNK N   1      27.178  20.453   6.788  0.00  0.00     0.363 C 
ATOM     17  HN  UNK N   1      26.948  20.038   8.783  1.00  0.00     0.170 HD
HETATM   18  O   UNK N   1      27.695  20.123   5.725  0.00  0.00    -0.238 OA
BRANCH  16  19
HETATM   19  O   UNK N   1      26.378  21.542   6.849  0.00  0.00    -0.309 OA
HETATM   20  C   UNK N   1      25.673  21.874   7.982  0.00  0.00     0.215 C 
ENDBRANCH  16  19
ENDBRANCH  13  14
ENDBRANCH  12  13
ENDBRANCH  11  12
ENDBRANCH   9  11
ENDBRANCH   3   9
BRANCH   4  21
HETATM   21  C   UNK N   1      36.095  14.574  10.367  0.00  0.00     0.176 C 
HETATM   22  O   UNK N   1      36.898  14.594   9.444  0.00  0.00    -0.291 OA
BRANCH  21  23
HETATM   23  C   UNK N   1      36.482  13.935  11.666  0.00  0.00    -0.015 C 
HETATM   24  C   UNK N   1      37.537  12.864  11.682  0.00  0.00     0.052 C 
HETATM   25  C   UNK N   1      35.883  14.313  12.820  0.00  0.00     0.011 C 
BRANCH  25  26
HETATM   26  C   UNK N   1      36.267  13.747  14.144  0.00  0.00     0.003 C 
HETATM   27  C   UNK N   1      35.636  12.697  14.702  0.00  0.00    -0.084 C 
HETATM   28  C   UNK N   1      34.510  11.998  13.993  0.00  0.00     0.043 C 
BRANCH  27  29
HETATM   29  C   UNK N   1      36.094  12.230  16.061  0.00  0.00     0.033 C 
BRANCH  29  30
HETATM   30  C   UNK N   1      35.292  12.814  17.212  0.00  0.00    -0.000 C 
HETATM   31  C   UNK N   1      35.238  11.811  18.345  0.00  0.00     0.005 C 
ENDBRANCH  29  30
ENDBRANCH  27  29
ENDBRANCH  25  26
ENDBRANCH  21  23
ENDBRANCH   4  21
TORSDOF 11
ENDMDL
MODEL 2
REMARK VINA RESULT:      -7.1     15.490     18.088
REMARK  11 active torsions:
REMARK  status: ('A' for Active; 'I' for Inactive)
REMARK    1  A    between atoms: C_9  and  C_6 
REMARK    2  A    between atoms: C_8  and  C_7 
REMARK    3  A    between atoms: C_10  and  C_7 
REMARK    4  A    between atoms: C_13  and  C_8 
REMARK    5  A    between atoms: C_15  and  C_9 
REMARK    6  A    between atoms: C_16  and  C_10 
REMARK    7  A    between atoms: C_12  and  C_11 
REMARK    8  A    between atoms: C_19  and  C_16 
REMARK    9  A    between atoms: C_21  and  C_17 
REMARK   10  A    between atoms: C_21  and  C_20 
REMARK       I    between atoms: N_24  and  C_23 
REMARK   11  A    between atoms: O_30  and  C_23 
ROOT
HETATM    1  C   UNK N   1      26.852  25.788  -3.713  0.00  0.00     0.084 C 
HETATM    2  C   UNK N   1      27.439  24.501  -3.276  0.00  0.00     0.173 C 
HETATM    3  C   UNK N   1      27.644  26.752  -4.222  0.00  0.00     0.064 C 
HETATM    4  C   UNK N   1      28.882  24.199  -3.642  0.00  0.00     0.233 C 
HETATM    5  C   UNK N   1      29.615  25.523  -3.713  0.00  0.00     0.283 C 
HETATM    6  O   UNK N   1      26.696  23.614  -2.888  0.00  0.00    -0.292 OA
HETATM    7  O   UNK N   1      30.720  25.669  -3.215  0.00  0.00    -0.263 OA
HETATM    8  O   UNK N   1      28.996  26.596  -4.251  0.00  0.00    -0.282 OA
ENDROOT
BRANCH   3   9
HETATM    9  C   UNK N   1      27.051  28.034  -4.741  0.00  0.00     0.039 C 
HETATM   10  C   UNK N   1      25.561  28.043  -4.465  0.00  0.00     0.017 C 
BRANCH   9  11
HETATM   11  C   UNK N   1      27.331  28.253  -6.240  0.00  0.00     0.011 C 
BRANCH  11  12
HETATM   12  C   UNK N   1      26.925  27.122  -7.204  0.00  0.00     0.006 C 
BRANCH  12  13
HETATM   13  C   UNK N   1      28.070  26.288  -7.778  0.00  0.00     0.044 C 
BRANCH  13  14
HETATM   14  C   UNK N   1      27.924  24.850  -7.419  0.00  0.00     0.066 C 
HETATM   15  N   UNK N   1      26.754  24.368  -7.178  0.00  0.00    -0.317 N 
HETATM   16  C   UNK N   1      26.541  23.078  -6.809  0.00  0.00     0.363 C 
ATOM     17  HN  UNK N   1      25.948  24.985  -7.269  1.00  0.00     0.170 HD
HETATM   18  O   UNK N   1      27.478  22.291  -6.709  0.00  0.00    -0.238 OA
BRANCH  16  19
HETATM   19  O   UNK N   1      25.280  22.677  -6.528  0.00  0.00    -0.309 OA
HETATM   20  C   UNK N   1      24.705  21.583  -7.131  0.00  0.00     0.215 C 
ENDBRANCH  16  19
ENDBRANCH  13  14
ENDBRANCH  12  13
ENDBRANCH  11  12
ENDBRANCH   9  11
ENDBRANCH   3   9
BRANCH   4  21
HETATM   21  C   UNK N   1      29.580  23.177  -2.750  0.00  0.00     0.176 C 
HETATM   22  O   UNK N   1      29.341  23.163  -1.551  0.00  0.00    -0.291 OA
BRANCH  21  23
HETATM   23  C   UNK N   1      30.558  22.193  -3.319  0.00  0.00    -0.015 C 
HETATM   24  C   UNK N   1      30.140  21.305  -4.459  0.00  0.00     0.052 C 
HETATM   25  C   UNK N   1      31.808  22.098  -2.809  0.00  0.00     0.011 C 
BRANCH  25  26
HETATM   26  C   UNK N   1      32.835  21.176  -3.372  0.00  0.00     0.003 C 
HETATM   27  C   UNK N   1      33.663  21.525  -4.374  0.00  0.00    -0.084 C 
HETATM   28  C   UNK N   1      33.623  22.904  -4.971  0.00  0.00     0.043 C 
BRANCH  27  29
HETATM   29  C   UNK N   1      34.642  20.498  -4.881  0.00  0.00     0.033 C 
BRANCH  29  30
HETATM   30  C   UNK N   1      34.402  19.099  -4.335  0.00  0.00    -0.000 C 
HETATM   31  C   UNK N   1      35.066  18.086  -5.242  0.00  0.00     0.005 C 
ENDBRANCH  29  30
ENDBRANCH  27  29
ENDBRANCH  25  26
ENDBRANCH  21  23
ENDBRANCH   4  21
TORSDOF 11
ENDMDL
MODEL 3
REMARK VINA RESULT:      -7.0      4.285     12.515
REMARK  11 active torsions:
REMARK  status: ('A' for Active; 'I' for Inactive)
REMARK    1  A    between atoms: C_9  and  C_6 
REMARK    2  A    between atoms: C_8  and  C_7 
REMARK    3  A    between atoms: C_10  and  C_7 
REMARK    4  A    between atoms: C_13  and  C_8 
REMARK    5  A    between atoms: C_15  and  C_9 
REMARK    6  A    between atoms: C_16  and  C_10 
REMARK    7  A    between atoms: C_12  and  C_11 
REMARK    8  A    between atoms: C_19  and  C_16 
REMARK    9  A    between atoms: C_21  and  C_17 
REMARK   10  A    between atoms: C_21  and  C_20 
REMARK       I    between atoms: N_24  and  C_23 
REMARK   11  A    between atoms: O_30  and  C_23 
ROOT
HETATM    1  C   UNK N   1      28.976  17.480   6.095  0.00  0.00     0.084 C 
HETATM    2  C   UNK N   1      28.081  17.893   4.990  0.00  0.00     0.173 C 
HETATM    3  C   UNK N   1      28.895  18.093   7.292  0.00  0.00     0.064 C 
HETATM    4  C   UNK N   1      26.922  18.824   5.302  0.00  0.00     0.233 C 
HETATM    5  C   UNK N   1      27.347  19.698   6.465  0.00  0.00     0.283 C 
HETATM    6  O   UNK N   1      28.119  17.276   3.937  0.00  0.00    -0.292 OA
HETATM    7  O   UNK N   1      27.134  20.899   6.471  0.00  0.00    -0.263 OA
HETATM    8  O   UNK N   1      28.064  19.157   7.472  0.00  0.00    -0.282 OA
ENDROOT
BRANCH   3   9
HETATM    9  C   UNK N   1      29.744  17.632   8.446  0.00  0.00     0.039 C 
HETATM   10  C   UNK N   1      29.644  18.640   9.574  0.00  0.00     0.017 C 
BRANCH   9  11
HETATM   11  C   UNK N   1      31.214  17.403   8.047  0.00  0.00     0.011 C 
BRANCH  11  12
HETATM   12  C   UNK N   1      31.641  15.956   7.732  0.00  0.00     0.006 C 
BRANCH  12  13
HETATM   13  C   UNK N   1      32.424  15.235   8.829  0.00  0.00     0.044 C 
BRANCH  13  14
HETATM   14  C   UNK N   1      33.560  16.065   9.317  0.00  0.00     0.066 C 
HETATM   15  N   UNK N   1      34.325  15.615  10.250  0.00  0.00    -0.317 N 
HETATM   16  C   UNK N   1      35.358  16.325  10.774  0.00  0.00     0.363 C 
ATOM     17  HN  UNK N   1      34.146  14.679  10.614  1.00  0.00     0.170 HD
HETATM   18  O   UNK N   1      35.627  17.446  10.352  0.00  0.00    -0.238 OA
BRANCH  16  19
HETATM   19  O   UNK N   1      36.074  15.787  11.789  0.00  0.00    -0.309 OA
HETATM   20  C   UNK N   1      35.658  14.666  12.469  0.00  0.00     0.215 C 
ENDBRANCH  16  19
ENDBRANCH  13  14
ENDBRANCH  12  13
ENDBRANCH  11  12
ENDBRANCH   9  11
ENDBRANCH   3   9
BRANCH   4  21
HETATM   21  C   UNK N   1      26.392  19.624   4.116  0.00  0.00     0.176 C 
HETATM   22  O   UNK N   1      27.171  20.272   3.432  0.00  0.00    -0.291 OA
BRANCH  21  23
HETATM   23  C   UNK N   1      24.931  19.633   3.779  0.00  0.00    -0.015 C 
HETATM   24  C   UNK N   1      24.415  20.584   2.735  0.00  0.00     0.052 C 
HETATM   25  C   UNK N   1      24.078  18.795   4.413  0.00  0.00     0.011 C 
BRANCH  25  26
HETATM   26  C   UNK N   1      22.627  18.726   4.079  0.00  0.00     0.003 C 
HETATM   27  C   UNK N   1      22.021  17.593   3.677  0.00  0.00    -0.084 C 
HETATM   28  C   UNK N   1      22.780  16.299   3.573  0.00  0.00     0.043 C 
BRANCH  27  29
HETATM   29  C   UNK N   1      20.553  17.651   3.338  0.00  0.00     0.033 C 
BRANCH  29  30
HETATM   30  C   UNK N   1      20.261  18.266   1.979  0.00  0.00    -0.000 C 
HETATM   31  C   UNK N   1      20.037  17.163   0.967  0.00  0.00     0.005 C 
ENDBRANCH  29  30
ENDBRANCH  27  29
ENDBRANCH  25  26
ENDBRANCH  21  23
ENDBRANCH   4  21
TORSDOF 11
ENDMDL
MODEL 4
REMARK VINA RESULT:      -6.9      3.447      5.130
REMARK  11 active torsions:
REMARK  status: ('A' for Active; 'I' for Inactive)
REMARK    1  A    between atoms: C_9  and  C_6 
REMARK    2  A    between atoms: C_8  and  C_7 
REMARK    3  A    between atoms: C_10  and  C_7 
REMARK    4  A    between atoms: C_13  and  C_8 
REMARK    5  A    between atoms: C_15  and  C_9 
REMARK    6  A    between atoms: C_16  and  C_10 
REMARK    7  A    between atoms: C_12  and  C_11 
REMARK    8  A    between atoms: C_19  and  C_16 
REMARK    9  A    between atoms: C_21  and  C_17 
REMARK   10  A    between atoms: C_21  and  C_20 
REMARK       I    between atoms: N_24  and  C_23 
REMARK   11  A    between atoms: O_30  and  C_23 
ROOT
HETATM    1  C   UNK N   1      34.671  16.993   9.194  0.00  0.00     0.084 C 
HETATM    2  C   UNK N   1      35.403  16.057  10.077  0.00  0.00     0.173 C 
HETATM    3  C   UNK N   1      33.514  16.610   8.617  0.00  0.00     0.064 C 
HETATM    4  C   UNK N   1      34.711  14.777  10.514  0.00  0.00     0.233 C 
HETATM    5  C   UNK N   1      33.758  14.380   9.405  0.00  0.00     0.283 C 
HETATM    6  O   UNK N   1      36.409  16.447  10.648  0.00  0.00    -0.292 OA
HETATM    7  O   UNK N   1      33.673  13.225   9.019  0.00  0.00    -0.263 OA
HETATM    8  O   UNK N   1      33.057  15.336   8.759  0.00  0.00    -0.282 OA
ENDROOT
BRANCH   3   9
HETATM    9  C   UNK N   1      32.721  17.577   7.781  0.00  0.00     0.039 C 
HETATM   10  C   UNK N   1      31.457  17.962   8.526  0.00  0.00     0.017 C 
BRANCH   9  11
HETATM   11  C   UNK N   1      32.384  17.018   6.386  0.00  0.00     0.011 C 
BRANCH  11  12
HETATM   12  C   UNK N   1      33.187  17.569   5.193  0.00  0.00     0.006 C 
BRANCH  12  13
HETATM   13  C   UNK N   1      32.478  17.547   3.839  0.00  0.00     0.044 C 
BRANCH  13  14
HETATM   14  C   UNK N   1      32.749  16.279   3.108  0.00  0.00     0.066 C 
HETATM   15  N   UNK N   1      33.792  15.582   3.402  0.00  0.00    -0.317 N 
HETATM   16  C   UNK N   1      34.129  14.435   2.757  0.00  0.00     0.363 C 
ATOM     17  HN  UNK N   1      34.395  15.909   4.157  1.00  0.00     0.170 HD
HETATM   18  O   UNK N   1      33.421  13.990   1.858  0.00  0.00    -0.238 OA
BRANCH  16  19
HETATM   19  O   UNK N   1      35.272  13.800   3.104  0.00  0.00    -0.309 OA
HETATM   20  C   UNK N   1      35.546  13.435   4.401  0.00  0.00     0.215 C 
ENDBRANCH  16  19
ENDBRANCH  13  14
ENDBRANCH  12  13
ENDBRANCH  11  12
ENDBRANCH   9  11
ENDBRANCH   3   9
BRANCH   4  21
HETATM   21  C   UNK N   1      35.642  13.645  10.936  0.00  0.00     0.176 C 
HETATM   22  O   UNK N   1      36.561  13.316  10.199  0.00  0.00    -0.291 OA
BRANCH  21  23
HETATM   23  C   UNK N   1      35.445  12.925  12.237  0.00  0.00    -0.015 C 
HETATM   24  C   UNK N   1      35.458  11.422  12.263  0.00  0.00     0.052 C 
HETATM   25  C   UNK N   1      35.252  13.622  13.381  0.00  0.00     0.011 C 
BRANCH  25  26
HETATM   26  C   UNK N   1      35.105  12.957  14.708  0.00  0.00     0.003 C 
HETATM   27  C   UNK N   1      35.903  13.231  15.756  0.00  0.00    -0.084 C 
HETATM   28  C   UNK N   1      36.987  14.268  15.659  0.00  0.00     0.043 C 
BRANCH  27  29
HETATM   29  C   UNK N   1      35.677  12.475  17.041  0.00  0.00     0.033 C 
BRANCH  29  30
HETATM   30  C   UNK N   1      35.151  13.337  18.176  0.00  0.00    -0.000 C 
HETATM   31  C   UNK N   1      35.319  12.598  19.486  0.00  0.00     0.005 C 
ENDBRANCH  29  30
ENDBRANCH  27  29
ENDBRANCH  25  26
ENDBRANCH  21  23
ENDBRANCH   4  21
TORSDOF 11
ENDMDL
MODEL 5
REMARK VINA RESULT:      -6.9      2.486      3.398
REMARK  11 active torsions:
REMARK  status: ('A' for Active; 'I' for Inactive)
REMARK    1  A    between atoms: C_9  and  C_6 
REMARK    2  A    between atoms: C_8  and  C_7 
REMARK    3  A    between atoms: C_10  and  C_7 
REMARK    4  A    between atoms: C_13  and  C_8 
REMARK    5  A    between atoms: C_15  and  C_9 
REMARK    6  A    between atoms: C_16  and  C_10 
REMARK    7  A    between atoms: C_12  and  C_11 
REMARK    8  A    between atoms: C_19  and  C_16 
REMARK    9  A    between atoms: C_21  and  C_17 
REMARK   10  A    between atoms: C_21  and  C_20 
REMARK       I    between atoms: N_24  and  C_23 
REMARK   11  A    between atoms: O_30  and  C_23 
ROOT
HETATM    1  C   UNK N   1      34.193  17.360   8.610  0.00  0.00     0.084 C 
HETATM    2  C   UNK N   1      35.065  16.790   9.662  0.00  0.00     0.173 C 
HETATM    3  C   UNK N   1      33.647  16.555   7.677  0.00  0.00     0.064 C 
HETATM    4  C   UNK N   1      35.125  15.281   9.817  0.00  0.00     0.233 C 
HETATM    5  C   UNK N   1      34.885  14.677   8.448  0.00  0.00     0.283 C 
HETATM    6  O   UNK N   1      35.489  17.525  10.540  0.00  0.00    -0.292 OA
HETATM    7  O   UNK N   1      35.566  13.755   8.029  0.00  0.00    -0.263 OA
HETATM    8  O   UNK N   1      33.965  15.232   7.631  0.00  0.00    -0.282 OA
ENDROOT
BRANCH   3   9
HETATM    9  C   UNK N   1      32.697  17.109   6.649  0.00  0.00     0.039 C 
HETATM   10  C   UNK N   1      31.277  16.748   7.036  0.00  0.00     0.017 C 
BRANCH   9  11
HETATM   11  C   UNK N   1      33.016  16.622   5.223  0.00  0.00     0.011 C 
BRANCH  11  12
HETATM   12  C   UNK N   1      32.769  17.612   4.069  0.00  0.00     0.006 C 
BRANCH  12  13
HETATM   13  C   UNK N   1      32.101  17.034   2.821  0.00  0.00     0.044 C 
BRANCH  13  14
HETATM   14  C   UNK N   1      30.815  16.364   3.158  0.00  0.00     0.066 C 
HETATM   15  N   UNK N   1      29.739  17.064   3.266  0.00  0.00    -0.317 N 
HETATM   16  C   UNK N   1      28.535  16.534   3.605  0.00  0.00     0.363 C 
ATOM     17  HN  UNK N   1      29.794  18.067   3.087  1.00  0.00     0.170 HD
HETATM   18  O   UNK N   1      28.414  15.329   3.806  0.00  0.00    -0.238 OA
BRANCH  16  19
HETATM   19  O   UNK N   1      27.471  17.359   3.742  0.00  0.00    -0.309 OA
HETATM   20  C   UNK N   1      27.610  18.690   4.062  0.00  0.00     0.215 C 
ENDBRANCH  16  19
ENDBRANCH  13  14
ENDBRANCH  12  13
ENDBRANCH  11  12
ENDBRANCH   9  11
ENDBRANCH   3   9
BRANCH   4  21
HETATM   21  C   UNK N   1      36.382  14.745  10.495  0.00  0.00     0.176 C 
HETATM   22  O   UNK N   1      37.481  15.084  10.078  0.00  0.00    -0.291 OA
BRANCH  21  23
HETATM   23  C   UNK N   1      36.293  13.805  11.660  0.00  0.00    -0.015 C 
HETATM   24  C   UNK N   1      37.119  12.548  11.665  0.00  0.00     0.052 C 
HETATM   25  C   UNK N   1      35.472  14.081  12.700  0.00  0.00     0.011 C 
BRANCH  25  26
HETATM   26  C   UNK N   1      35.387  13.208  13.905  0.00  0.00     0.003 C 
HETATM   27  C   UNK N   1      36.068  13.457  15.039  0.00  0.00    -0.084 C 
HETATM   28  C   UNK N   1      36.944  14.671  15.171  0.00  0.00     0.043 C 
BRANCH  27  29
HETATM   29  C   UNK N   1      35.924  12.487  16.185  0.00  0.00     0.033 C 
BRANCH  29  30
HETATM   30  C   UNK N   1      36.092  11.031  15.780  0.00  0.00    -0.000 C 
HETATM   31  C   UNK N   1      34.835  10.265  16.133  0.00  0.00     0.005 C 
ENDBRANCH  29  30
ENDBRANCH  27  29
ENDBRANCH  25  26
ENDBRANCH  21  23
ENDBRANCH   4  21
TORSDOF 11
ENDMDL
MODEL 6
REMARK VINA RESULT:      -6.9     15.573     20.266
REMARK  11 active torsions:
REMARK  status: ('A' for Active; 'I' for Inactive)
REMARK    1  A    between atoms: C_9  and  C_6 
REMARK    2  A    between atoms: C_8  and  C_7 
REMARK    3  A    between atoms: C_10  and  C_7 
REMARK    4  A    between atoms: C_13  and  C_8 
REMARK    5  A    between atoms: C_15  and  C_9 
REMARK    6  A    between atoms: C_16  and  C_10 
REMARK    7  A    between atoms: C_12  and  C_11 
REMARK    8  A    between atoms: C_19  and  C_16 
REMARK    9  A    between atoms: C_21  and  C_17 
REMARK   10  A    between atoms: C_21  and  C_20 
REMARK       I    between atoms: N_24  and  C_23 
REMARK   11  A    between atoms: O_30  and  C_23 
ROOT
HETATM    1  C   UNK N   1      29.229  22.623  -7.464  0.00  0.00     0.084 C 
HETATM    2  C   UNK N   1      28.193  23.650  -7.715  0.00  0.00     0.173 C 
HETATM    3  C   UNK N   1      28.918  21.315  -7.552  0.00  0.00     0.064 C 
HETATM    4  C   UNK N   1      26.866  23.213  -8.311  0.00  0.00     0.233 C 
HETATM    5  C   UNK N   1      26.607  21.795  -7.843  0.00  0.00     0.283 C 
HETATM    6  O   UNK N   1      28.513  24.828  -7.703  0.00  0.00    -0.292 OA
HETATM    7  O   UNK N   1      25.509  21.448  -7.439  0.00  0.00    -0.263 OA
HETATM    8  O   UNK N   1      27.634  20.921  -7.776  0.00  0.00    -0.282 OA
ENDROOT
BRANCH   3   9
HETATM    9  C   UNK N   1      29.979  20.262  -7.376  0.00  0.00     0.039 C 
HETATM   10  C   UNK N   1      29.411  18.911  -7.765  0.00  0.00     0.017 C 
BRANCH   9  11
HETATM   11  C   UNK N   1      30.546  20.225  -5.945  0.00  0.00     0.011 C 
BRANCH  11  12
HETATM   12  C   UNK N   1      31.961  20.796  -5.733  0.00  0.00     0.006 C 
BRANCH  12  13
HETATM   13  C   UNK N   1      32.547  20.632  -4.331  0.00  0.00     0.044 C 
BRANCH  13  14
HETATM   14  C   UNK N   1      31.771  21.410  -3.326  0.00  0.00     0.066 C 
HETATM   15  N   UNK N   1      31.468  22.639  -3.565  0.00  0.00    -0.317 N 
HETATM   16  C   UNK N   1      30.795  23.425  -2.685  0.00  0.00     0.363 C 
ATOM     17  HN  UNK N   1      31.748  23.042  -4.459  1.00  0.00     0.170 HD
HETATM   18  O   UNK N   1      30.416  22.978  -1.606  0.00  0.00    -0.238 OA
BRANCH  16  19
HETATM   19  O   UNK N   1      30.567  24.720  -3.005  0.00  0.00    -0.309 OA
HETATM   20  C   UNK N   1      29.507  25.108  -3.790  0.00  0.00     0.215 C 
ENDBRANCH  16  19
ENDBRANCH  13  14
ENDBRANCH  12  13
ENDBRANCH  11  12
ENDBRANCH   9  11
ENDBRANCH   3   9
BRANCH   4  21
HETATM   21  C   UNK N   1      25.694  24.153  -8.049  0.00  0.00     0.176 C 
HETATM   22  O   UNK N   1      24.781  24.216  -8.861  0.00  0.00    -0.291 OA
BRANCH  21  23
HETATM   23  C   UNK N   1      25.644  25.004  -6.816  0.00  0.00    -0.015 C 
HETATM   24  C   UNK N   1      25.733  24.356  -5.462  0.00  0.00     0.052 C 
HETATM   25  C   UNK N   1      25.516  26.348  -6.917  0.00  0.00     0.011 C 
BRANCH  25  26
HETATM   26  C   UNK N   1      25.516  27.244  -5.726  0.00  0.00     0.003 C 
HETATM   27  C   UNK N   1      26.463  28.176  -5.512  0.00  0.00    -0.084 C 
HETATM   28  C   UNK N   1      27.577  28.396  -6.496  0.00  0.00     0.043 C 
BRANCH  27  29
HETATM   29  C   UNK N   1      26.375  29.006  -4.256  0.00  0.00     0.033 C 
BRANCH  29  30
HETATM   30  C   UNK N   1      27.032  28.360  -3.046  0.00  0.00    -0.000 C 
HETATM   31  C   UNK N   1      27.848  29.398  -2.306  0.00  0.00     0.005 C 
ENDBRANCH  29  30
ENDBRANCH  27  29
ENDBRANCH  25  26
ENDBRANCH  21  23
ENDBRANCH   4  21
TORSDOF 11
ENDMDL
MODEL 7
REMARK VINA RESULT:      -6.9      1.559      2.186
REMARK  11 active torsions:
REMARK  status: ('A' for Active; 'I' for Inactive)
REMARK    1  A    between atoms: C_9  and  C_6 
REMARK    2  A    between atoms: C_8  and  C_7 
REMARK    3  A    between atoms: C_10  and  C_7 
REMARK    4  A    between atoms: C_13  and  C_8 
REMARK    5  A    between atoms: C_15  and  C_9 
REMARK    6  A    between atoms: C_16  and  C_10 
REMARK    7  A    between atoms: C_12  and  C_11 
REMARK    8  A    between atoms: C_19  and  C_16 
REMARK    9  A    between atoms: C_21  and  C_17 
REMARK   10  A    between atoms: C_21  and  C_20 
REMARK       I    between atoms: N_24  and  C_23 
REMARK   11  A    between atoms: O_30  and  C_23 
ROOT
HETATM    1  C   UNK N   1      32.523  17.953   8.203  0.00  0.00     0.084 C 
HETATM    2  C   UNK N   1      33.848  17.372   8.518  0.00  0.00     0.173 C 
HETATM    3  C   UNK N   1      31.399  17.280   8.517  0.00  0.00     0.064 C 
HETATM    4  C   UNK N   1      33.909  16.146   9.412  0.00  0.00     0.233 C 
HETATM    5  C   UNK N   1      32.632  15.361   9.189  0.00  0.00     0.283 C 
HETATM    6  O   UNK N   1      34.850  18.030   8.292  0.00  0.00    -0.292 OA
HETATM    7  O   UNK N   1      32.644  14.148   9.055  0.00  0.00    -0.263 OA
HETATM    8  O   UNK N   1      31.466  16.023   9.036  0.00  0.00    -0.282 OA
ENDROOT
BRANCH   3   9
HETATM    9  C   UNK N   1      30.046  17.893   8.273  0.00  0.00     0.039 C 
HETATM   10  C   UNK N   1      29.329  18.064   9.598  0.00  0.00     0.017 C 
BRANCH   9  11
HETATM   11  C   UNK N   1      29.191  17.072   7.290  0.00  0.00     0.011 C 
BRANCH  11  12
HETATM   12  C   UNK N   1      29.860  16.626   5.977  0.00  0.00     0.006 C 
BRANCH  12  13
HETATM   13  C   UNK N   1      29.822  17.634   4.829  0.00  0.00     0.044 C 
BRANCH  13  14
HETATM   14  C   UNK N   1      28.469  18.241   4.688  0.00  0.00     0.066 C 
HETATM   15  N   UNK N   1      28.276  19.463   5.046  0.00  0.00    -0.317 N 
HETATM   16  C   UNK N   1      27.066  20.076   4.983  0.00  0.00     0.363 C 
ATOM     17  HN  UNK N   1      29.072  19.996   5.394  1.00  0.00     0.170 HD
HETATM   18  O   UNK N   1      26.083  19.482   4.548  0.00  0.00    -0.238 OA
BRANCH  16  19
HETATM   19  O   UNK N   1      26.952  21.348   5.430  0.00  0.00    -0.309 OA
HETATM   20  C   UNK N   1      26.416  21.649   6.660  0.00  0.00     0.215 C 
ENDBRANCH  16  19
ENDBRANCH  13  14
ENDBRANCH  12  13
ENDBRANCH  11  12
ENDBRANCH   9  11
ENDBRANCH   3   9
BRANCH   4  21
HETATM   21  C   UNK N   1      35.167  15.295   9.266  0.00  0.00     0.176 C 
HETATM   22  O   UNK N   1      35.555  14.984   8.149  0.00  0.00    -0.291 OA
BRANCH  21  23
HETATM   23  C   UNK N   1      35.931  14.830  10.469  0.00  0.00    -0.015 C 
HETATM   24  C   UNK N   1      37.318  14.273  10.298  0.00  0.00     0.052 C 
HETATM   25  C   UNK N   1      35.378  14.906  11.702  0.00  0.00     0.011 C 
BRANCH  25  26
HETATM   26  C   UNK N   1      36.114  14.508  12.936  0.00  0.00     0.003 C 
HETATM   27  C   UNK N   1      35.879  13.353  13.587  0.00  0.00    -0.084 C 
HETATM   28  C   UNK N   1      34.867  12.365  13.080  0.00  0.00     0.043 C 
BRANCH  27  29
HETATM   29  C   UNK N   1      36.666  13.070  14.842  0.00  0.00     0.033 C 
BRANCH  29  30
HETATM   30  C   UNK N   1      36.078  13.705  16.091  0.00  0.00    -0.000 C 
HETATM   31  C   UNK N   1      35.212  12.692  16.808  0.00  0.00     0.005 C 
ENDBRANCH  29  30
ENDBRANCH  27  29
ENDBRANCH  25  26
ENDBRANCH  21  23
ENDBRANCH   4  21
TORSDOF 11
ENDMDL
MODEL 8
REMARK VINA RESULT:      -6.7      4.198      7.097
REMARK  11 active torsions:
REMARK  status: ('A' for Active; 'I' for Inactive)
REMARK    1  A    between atoms: C_9  and  C_6 
REMARK    2  A    between atoms: C_8  and  C_7 
REMARK    3  A    between atoms: C_10  and  C_7 
REMARK    4  A    between atoms: C_13  and  C_8 
REMARK    5  A    between atoms: C_15  and  C_9 
REMARK    6  A    between atoms: C_16  and  C_10 
REMARK    7  A    between atoms: C_12  and  C_11 
REMARK    8  A    between atoms: C_19  and  C_16 
REMARK    9  A    between atoms: C_21  and  C_17 
REMARK   10  A    between atoms: C_21  and  C_20 
REMARK       I    between atoms: N_24  and  C_23 
REMARK   11  A    between atoms: O_30  and  C_23 
ROOT
HETATM    1  C   UNK N   1      34.969  11.503  12.627  0.00  0.00     0.084 C 
HETATM    2  C   UNK N   1      34.506  11.558  14.032  0.00  0.00     0.173 C 
HETATM    3  C   UNK N   1      36.097  12.145  12.263  0.00  0.00     0.064 C 
HETATM    4  C   UNK N   1      35.444  12.125  15.084  0.00  0.00     0.233 C 
HETATM    5  C   UNK N   1      36.313  13.162  14.401  0.00  0.00     0.283 C 
HETATM    6  O   UNK N   1      33.524  10.910  14.357  0.00  0.00    -0.292 OA
HETATM    7  O   UNK N   1      36.539  14.245  14.916  0.00  0.00    -0.263 OA
HETATM    8  O   UNK N   1      36.769  12.926  13.153  0.00  0.00    -0.282 OA
ENDROOT
BRANCH   3   9
HETATM    9  C   UNK N   1      36.620  12.033  10.856  0.00  0.00     0.039 C 
HETATM   10  C   UNK N   1      38.135  12.079  10.881  0.00  0.00     0.017 C 
BRANCH   9  11
HETATM   11  C   UNK N   1      36.056  13.123   9.925  0.00  0.00     0.011 C 
BRANCH  11  12
HETATM   12  C   UNK N   1      36.383  14.587  10.276  0.00  0.00     0.006 C 
BRANCH  12  13
HETATM   13  C   UNK N   1      35.192  15.467  10.657  0.00  0.00     0.044 C 
BRANCH  13  14
HETATM   14  C   UNK N   1      35.240  16.777   9.952  0.00  0.00     0.066 C 
HETATM   15  N   UNK N   1      34.465  16.990   8.946  0.00  0.00    -0.317 N 
HETATM   16  C   UNK N   1      34.474  18.143   8.228  0.00  0.00     0.363 C 
ATOM     17  HN  UNK N   1      33.811  16.256   8.675  1.00  0.00     0.170 HD
HETATM   18  O   UNK N   1      35.227  19.065   8.531  0.00  0.00    -0.238 OA
BRANCH  16  19
HETATM   19  O   UNK N   1      33.657  18.254   7.155  0.00  0.00    -0.309 OA
HETATM   20  C   UNK N   1      33.787  17.451   6.046  0.00  0.00     0.215 C 
ENDBRANCH  16  19
ENDBRANCH  13  14
ENDBRANCH  12  13
ENDBRANCH  11  12
ENDBRANCH   9  11
ENDBRANCH   3   9
BRANCH   4  21
HETATM   21  C   UNK N   1      34.765  12.652  16.345  0.00  0.00     0.176 C 
HETATM   22  O   UNK N   1      33.814  13.414  16.242  0.00  0.00    -0.291 OA
BRANCH  21  23
HETATM   23  C   UNK N   1      35.249  12.255  17.708  0.00  0.00    -0.015 C 
HETATM   24  C   UNK N   1      35.255  13.269  18.818  0.00  0.00     0.052 C 
HETATM   25  C   UNK N   1      35.683  10.994  17.939  0.00  0.00     0.011 C 
BRANCH  25  26
HETATM   26  C   UNK N   1      36.123  10.534  19.287  0.00  0.00     0.003 C 
HETATM   27  C   UNK N   1      36.841   9.411  19.478  0.00  0.00    -0.084 C 
HETATM   28  C   UNK N   1      37.278   8.559  18.319  0.00  0.00     0.043 C 
BRANCH  27  29
HETATM   29  C   UNK N   1      37.205   9.030  20.890  0.00  0.00     0.033 C 
BRANCH  29  30
HETATM   30  C   UNK N   1      36.072   8.371  21.660  0.00  0.00    -0.000 C 
HETATM   31  C   UNK N   1      35.806   9.153  22.928  0.00  0.00     0.005 C 
ENDBRANCH  29  30
ENDBRANCH  27  29
ENDBRANCH  25  26
ENDBRANCH  21  23
ENDBRANCH   4  21
TORSDOF 11
ENDMDL
MODEL 9
REMARK VINA RESULT:      -6.6      4.369     10.834
REMARK  11 active torsions:
REMARK  status: ('A' for Active; 'I' for Inactive)
REMARK    1  A    between atoms: C_9  and  C_6 
REMARK    2  A    between atoms: C_8  and  C_7 
REMARK    3  A    between atoms: C_10  and  C_7 
REMARK    4  A    between atoms: C_13  and  C_8 
REMARK    5  A    between atoms: C_15  and  C_9 
REMARK    6  A    between atoms: C_16  and  C_10 
REMARK    7  A    between atoms: C_12  and  C_11 
REMARK    8  A    between atoms: C_19  and  C_16 
REMARK    9  A    between atoms: C_21  and  C_17 
REMARK   10  A    between atoms: C_21  and  C_20 
REMARK       I    between atoms: N_24  and  C_23 
REMARK   11  A    between atoms: O_30  and  C_23 
ROOT
HETATM    1  C   UNK N   1      35.369  13.094  12.411  0.00  0.00     0.084 C 
HETATM    2  C   UNK N   1      34.884  13.421  11.051  0.00  0.00     0.173 C 
HETATM    3  C   UNK N   1      35.888  14.061  13.192  0.00  0.00     0.064 C 
HETATM    4  C   UNK N   1      34.750  14.882  10.658  0.00  0.00     0.233 C 
HETATM    5  C   UNK N   1      35.804  15.653  11.428  0.00  0.00     0.283 C 
HETATM    6  O   UNK N   1      34.350  12.546  10.387  0.00  0.00    -0.292 OA
HETATM    7  O   UNK N   1      36.490  16.507  10.890  0.00  0.00    -0.263 OA
HETATM    8  O   UNK N   1      36.062  15.323  12.711  0.00  0.00    -0.282 OA
ENDROOT
BRANCH   3   9
HETATM    9  C   UNK N   1      36.312  13.758  14.604  0.00  0.00     0.039 C 
HETATM   10  C   UNK N   1      37.088  14.938  15.156  0.00  0.00     0.017 C 
BRANCH   9  11
HETATM   11  C   UNK N   1      37.139  12.463  14.710  0.00  0.00     0.011 C 
BRANCH  11  12
HETATM   12  C   UNK N   1      36.494  11.274  15.447  0.00  0.00     0.006 C 
BRANCH  12  13
HETATM   13  C   UNK N   1      35.115  11.530  16.054  0.00  0.00     0.044 C 
BRANCH  13  14
HETATM   14  C   UNK N   1      35.225  12.070  17.437  0.00  0.00     0.066 C 
HETATM   15  N   UNK N   1      35.484  11.273  18.416  0.00  0.00    -0.317 N 
HETATM   16  C   UNK N   1      35.564  11.682  19.708  0.00  0.00     0.363 C 
ATOM     17  HN  UNK N   1      35.636  10.287  18.209  1.00  0.00     0.170 HD
HETATM   18  O   UNK N   1      35.412  12.864  20.004  0.00  0.00    -0.238 OA
BRANCH  16  19
HETATM   19  O   UNK N   1      35.791  10.761  20.674  0.00  0.00    -0.309 OA
HETATM   20  C   UNK N   1      35.710   9.410  20.434  0.00  0.00     0.215 C 
ENDBRANCH  16  19
ENDBRANCH  13  14
ENDBRANCH  12  13
ENDBRANCH  11  12
ENDBRANCH   9  11
ENDBRANCH   3   9
BRANCH   4  21
HETATM   21  C   UNK N   1      34.783  15.160   9.159  0.00  0.00     0.176 C 
HETATM   22  O   UNK N   1      35.622  14.605   8.463  0.00  0.00    -0.291 OA
BRANCH  21  23
HETATM   23  C   UNK N   1      33.806  16.105   8.525  0.00  0.00    -0.015 C 
HETATM   24  C   UNK N   1      34.311  17.351   7.851  0.00  0.00     0.052 C 
HETATM   25  C   UNK N   1      32.479  15.844   8.562  0.00  0.00     0.011 C 
BRANCH  25  26
HETATM   26  C   UNK N   1      31.472  16.722   7.902  0.00  0.00     0.003 C 
HETATM   27  C   UNK N   1      30.812  16.368   6.783  0.00  0.00    -0.084 C 
HETATM   28  C   UNK N   1      31.032  15.026   6.141  0.00  0.00     0.043 C 
BRANCH  27  29
HETATM   29  C   UNK N   1      29.836  17.351   6.189  0.00  0.00     0.033 C 
BRANCH  29  30
HETATM   30  C   UNK N   1      28.867  17.941   7.200  0.00  0.00    -0.000 C 
HETATM   31  C   UNK N   1      28.017  18.995   6.524  0.00  0.00     0.005 C 
ENDBRANCH  29  30
ENDBRANCH  27  29
ENDBRANCH  25  26
ENDBRANCH  21  23
ENDBRANCH   4  21
TORSDOF 11
ENDMDL
