MODEL 1
REMARK VINA RESULT:      -6.5      0.000      0.000
REMARK  8 active torsions:
REMARK  status: ('A' for Active; 'I' for Inactive)
REMARK    1  A    between atoms: C_13  and  C_8 
REMARK    2  A    between atoms: N_17  and  C_8 
REMARK    3  A    between atoms: C_13  and  C_9 
REMARK    4  A    between atoms: O_20  and  C_9 
REMARK    5  A    between atoms: N_17  and  C_10 
REMARK    6  A    between atoms: C_15  and  C_11 
REMARK    7  A    between atoms: O_19  and  C_13 
REMARK    8  A    between atoms: O_20  and  C_14 
ROOT
HETATM    1  C   UNK N   1      33.878  10.395  13.877  0.00  0.00     0.004 A 
HETATM    2  C   UNK N   1      34.042  10.844  15.203  0.00  0.00     0.014 A 
HETATM    3  C   UNK N   1      34.432  11.120  12.797  0.00  0.00     0.040 A 
HETATM    4  C   UNK N   1      35.093  12.680  16.569  0.00  0.00     0.055 A 
HETATM    5  C   UNK N   1      34.765  12.016  15.404  0.00  0.00     0.003 A 
HETATM    6  C   UNK N   1      35.152  12.308  13.029  0.00  0.00     0.103 A 
HETATM    7  C   UNK N   1      35.829  13.783  16.128  0.00  0.00     0.122 A 
HETATM    8  C   UNK N   1      35.295  12.721  14.362  0.00  0.00     0.119 A 
HETATM    9  O   UNK N   1      35.926  13.774  14.815  0.00  0.00    -0.303 OA
ENDROOT
BRANCH   6  10
HETATM   10  O   UNK N   1      35.668  13.005  11.984  0.00  0.00    -0.346 OA
BRANCH  10  11
HETATM   11  C   UNK N   1      34.878  13.484  10.958  0.00  0.00     0.209 C 
BRANCH  11  12
HETATM   12  C   UNK N   1      34.478  14.937  11.141  0.00  0.00     0.159 C 
BRANCH  12  13
HETATM   13  C   UNK N   1      35.033  15.817  10.039  0.00  0.00     0.147 C 
BRANCH  13  14
HETATM   14  N   UNK N   1      34.282  17.062   9.988  0.00  0.00    -0.415 N 
HETATM   15  H   UNK N   1      34.050  17.658  10.782  0.00  0.00     0.153 HD
BRANCH  14  16
HETATM   16  C   UNK N   1      33.921  17.299   8.598  0.00  0.00     0.068 C 
HETATM   17  C   UNK N   1      32.422  17.519   8.471  0.00  0.00     0.031 C 
HETATM   18  C   UNK N   1      34.641  18.533   8.100  0.00  0.00     0.031 C 
ENDBRANCH  14  16
ENDBRANCH  13  14
ENDBRANCH  12  13
BRANCH  12  19
HETATM   19  O   UNK N   1      33.085  15.007  11.109  0.00  0.00    -0.392 OA
HETATM   20  H   UNK N   1      32.601  15.718  10.659  0.00  0.00     0.210 HD
ENDBRANCH  12  19
ENDBRANCH  11  12
ENDBRANCH  10  11
ENDBRANCH   6  10
BRANCH   7  21
HETATM   21  C   UNK N   1      36.439  14.822  16.970  0.00  0.00     0.179 C 
HETATM   22  C   UNK N   1      37.456  15.759  16.410  0.00  0.00     0.099 C 
HETATM   23  O   UNK N   1      36.104  14.929  18.138  0.00  0.00    -0.291 OA
ENDBRANCH   7  21
TORSDOF 8
ENDMDL
MODEL 2
REMARK VINA RESULT:      -6.3      7.442     10.271
REMARK  8 active torsions:
REMARK  status: ('A' for Active; 'I' for Inactive)
REMARK    1  A    between atoms: C_13  and  C_8 
REMARK    2  A    between atoms: N_17  and  C_8 
REMARK    3  A    between atoms: C_13  and  C_9 
REMARK    4  A    between atoms: O_20  and  C_9 
REMARK    5  A    between atoms: N_17  and  C_10 
REMARK    6  A    between atoms: C_15  and  C_11 
REMARK    7  A    between atoms: O_19  and  C_13 
REMARK    8  A    between atoms: O_20  and  C_14 
ROOT
HETATM    1  C   UNK N   1      34.018  17.736   8.419  0.00  0.00     0.004 A 
HETATM    2  C   UNK N   1      34.316  17.625   7.046  0.00  0.00     0.014 A 
HETATM    3  C   UNK N   1      32.687  17.612   8.879  0.00  0.00     0.040 A 
HETATM    4  C   UNK N   1      33.248  17.226   4.801  0.00  0.00     0.055 A 
HETATM    5  C   UNK N   1      33.260  17.389   6.172  0.00  0.00     0.003 A 
HETATM    6  C   UNK N   1      31.635  17.382   7.970  0.00  0.00     0.103 A 
HETATM    7  C   UNK N   1      31.900  17.015   4.501  0.00  0.00     0.122 A 
HETATM    8  C   UNK N   1      31.973  17.275   6.613  0.00  0.00     0.119 A 
HETATM    9  O   UNK N   1      31.175  17.054   5.600  0.00  0.00    -0.303 OA
ENDROOT
BRANCH   6  10
HETATM   10  O   UNK N   1      30.358  17.279   8.421  0.00  0.00    -0.346 OA
BRANCH  10  11
HETATM   11  C   UNK N   1      29.718  18.320   9.063  0.00  0.00     0.209 C 
BRANCH  11  12
HETATM   12  C   UNK N   1      28.327  18.592   8.520  0.00  0.00     0.159 C 
BRANCH  12  13
HETATM   13  C   UNK N   1      28.101  17.912   7.185  0.00  0.00     0.147 C 
BRANCH  13  14
HETATM   14  N   UNK N   1      27.060  18.616   6.453  0.00  0.00    -0.415 N 
HETATM   15  H   UNK N   1      26.138  18.251   6.217  0.00  0.00     0.153 HD
BRANCH  14  16
HETATM   16  C   UNK N   1      27.575  19.936   6.119  0.00  0.00     0.068 C 
HETATM   17  C   UNK N   1      27.976  19.992   4.654  0.00  0.00     0.031 C 
HETATM   18  C   UNK N   1      26.499  20.969   6.373  0.00  0.00     0.031 C 
ENDBRANCH  14  16
ENDBRANCH  13  14
ENDBRANCH  12  13
BRANCH  12  19
HETATM   19  O   UNK N   1      27.402  18.093   9.437  0.00  0.00    -0.392 OA
HETATM   20  H   UNK N   1      27.230  18.510  10.296  0.00  0.00     0.210 HD
ENDBRANCH  12  19
ENDBRANCH  11  12
ENDBRANCH  10  11
ENDBRANCH   6  10
BRANCH   7  21
HETATM   21  C   UNK N   1      31.326  16.768   3.170  0.00  0.00     0.179 C 
HETATM   22  C   UNK N   1      29.921  16.291   3.022  0.00  0.00     0.099 C 
HETATM   23  O   UNK N   1      32.001  16.965   2.174  0.00  0.00    -0.291 OA
ENDBRANCH   7  21
TORSDOF 8
ENDMDL
MODEL 3
REMARK VINA RESULT:      -6.3      8.100     10.040
REMARK  8 active torsions:
REMARK  status: ('A' for Active; 'I' for Inactive)
REMARK    1  A    between atoms: C_13  and  C_8 
REMARK    2  A    between atoms: N_17  and  C_8 
REMARK    3  A    between atoms: C_13  and  C_9 
REMARK    4  A    between atoms: O_20  and  C_9 
REMARK    5  A    between atoms: N_17  and  C_10 
REMARK    6  A    between atoms: C_15  and  C_11 
REMARK    7  A    between atoms: O_19  and  C_13 
REMARK    8  A    between atoms: O_20  and  C_14 
ROOT
HETATM    1  C   UNK N   1      28.471  18.044   9.380  0.00  0.00     0.004 A 
HETATM    2  C   UNK N   1      29.853  18.270   9.533  0.00  0.00     0.014 A 
HETATM    3  C   UNK N   1      27.962  17.468   8.193  0.00  0.00     0.040 A 
HETATM    4  C   UNK N   1      32.060  17.998   8.350  0.00  0.00     0.055 A 
HETATM    5  C   UNK N   1      30.688  17.908   8.480  0.00  0.00     0.003 A 
HETATM    6  C   UNK N   1      28.830  17.118   7.140  0.00  0.00     0.103 A 
HETATM    7  C   UNK N   1      32.310  17.472   7.080  0.00  0.00     0.122 A 
HETATM    8  C   UNK N   1      30.199  17.358   7.331  0.00  0.00     0.119 A 
HETATM    9  O   UNK N   1      31.183  17.106   6.506  0.00  0.00    -0.303 OA
ENDROOT
BRANCH   6  10
HETATM   10  O   UNK N   1      28.330  16.579   5.998  0.00  0.00    -0.346 OA
BRANCH  10  11
HETATM   11  C   UNK N   1      26.976  16.398   5.801  0.00  0.00     0.209 C 
BRANCH  11  12
HETATM   12  C   UNK N   1      26.527  16.735   4.391  0.00  0.00     0.159 C 
BRANCH  12  13
HETATM   13  C   UNK N   1      25.944  18.131   4.304  0.00  0.00     0.147 C 
BRANCH  13  14
HETATM   14  N   UNK N   1      26.092  18.799   5.588  0.00  0.00    -0.415 N 
HETATM   15  H   UNK N   1      25.871  18.403   6.501  0.00  0.00     0.153 HD
BRANCH  14  16
HETATM   16  C   UNK N   1      26.613  20.133   5.330  0.00  0.00     0.068 C 
HETATM   17  C   UNK N   1      26.622  20.954   6.610  0.00  0.00     0.031 C 
HETATM   18  C   UNK N   1      28.029  20.023   4.808  0.00  0.00     0.031 C 
ENDBRANCH  14  16
ENDBRANCH  13  14
ENDBRANCH  12  13
BRANCH  12  19
HETATM   19  O   UNK N   1      27.641  16.664   3.556  0.00  0.00    -0.392 OA
HETATM   20  H   UNK N   1      27.753  17.226   2.773  0.00  0.00     0.210 HD
ENDBRANCH  12  19
ENDBRANCH  11  12
ENDBRANCH  10  11
ENDBRANCH   6  10
BRANCH   7  21
HETATM   21  C   UNK N   1      33.624  17.317   6.439  0.00  0.00     0.179 C 
HETATM   22  C   UNK N   1      33.822  16.337   5.333  0.00  0.00     0.099 C 
HETATM   23  O   UNK N   1      34.561  18.006   6.806  0.00  0.00    -0.291 OA
ENDBRANCH   7  21
TORSDOF 8
ENDMDL
MODEL 4
REMARK VINA RESULT:      -5.9     17.995     22.032
REMARK  8 active torsions:
REMARK  status: ('A' for Active; 'I' for Inactive)
REMARK    1  A    between atoms: C_13  and  C_8 
REMARK    2  A    between atoms: N_17  and  C_8 
REMARK    3  A    between atoms: C_13  and  C_9 
REMARK    4  A    between atoms: O_20  and  C_9 
REMARK    5  A    between atoms: N_17  and  C_10 
REMARK    6  A    between atoms: C_15  and  C_11 
REMARK    7  A    between atoms: O_19  and  C_13 
REMARK    8  A    between atoms: O_20  and  C_14 
ROOT
HETATM    1  C   UNK N   1      25.583  24.552  -6.089  0.00  0.00     0.004 A 
HETATM    2  C   UNK N   1      25.388  25.947  -6.133  0.00  0.00     0.014 A 
HETATM    3  C   UNK N   1      26.346  23.964  -5.053  0.00  0.00     0.040 A 
HETATM    4  C   UNK N   1      25.940  28.076  -4.907  0.00  0.00     0.055 A 
HETATM    5  C   UNK N   1      25.969  26.714  -5.127  0.00  0.00     0.003 A 
HETATM    6  C   UNK N   1      26.930  24.765  -4.052  0.00  0.00     0.103 A 
HETATM    7  C   UNK N   1      26.697  28.242  -3.745  0.00  0.00     0.122 A 
HETATM    8  C   UNK N   1      26.711  26.149  -4.130  0.00  0.00     0.119 A 
HETATM    9  O   UNK N   1      27.139  27.079  -3.315  0.00  0.00    -0.303 OA
ENDROOT
BRANCH   6  10
HETATM   10  O   UNK N   1      27.673  24.193  -3.070  0.00  0.00    -0.346 OA
BRANCH  10  11
HETATM   11  C   UNK N   1      29.038  24.020  -3.187  0.00  0.00     0.209 C 
BRANCH  11  12
HETATM   12  C   UNK N   1      29.540  22.756  -2.512  0.00  0.00     0.159 C 
BRANCH  12  13
HETATM   13  C   UNK N   1      30.371  21.908  -3.454  0.00  0.00     0.147 C 
BRANCH  13  14
HETATM   14  N   UNK N   1      31.753  22.362  -3.421  0.00  0.00    -0.415 N 
HETATM   15  H   UNK N   1      32.092  23.233  -3.013  0.00  0.00     0.153 HD
BRANCH  14  16
HETATM   16  C   UNK N   1      32.563  21.346  -4.077  0.00  0.00     0.068 C 
HETATM   17  C   UNK N   1      33.607  20.800  -3.116  0.00  0.00     0.031 C 
HETATM   18  C   UNK N   1      31.670  20.211  -4.527  0.00  0.00     0.031 C 
ENDBRANCH  14  16
ENDBRANCH  13  14
ENDBRANCH  12  13
BRANCH  12  19
HETATM   19  O   UNK N   1      30.335  23.132  -1.430  0.00  0.00    -0.392 OA
HETATM   20  H   UNK N   1      29.983  23.267  -0.536  0.00  0.00     0.210 HD
ENDBRANCH  12  19
ENDBRANCH  11  12
ENDBRANCH  10  11
ENDBRANCH   6  10
BRANCH   7  21
HETATM   21  C   UNK N   1      26.977  29.510  -3.055  0.00  0.00     0.179 C 
HETATM   22  C   UNK N   1      28.042  29.594  -2.014  0.00  0.00     0.099 C 
HETATM   23  O   UNK N   1      26.341  30.510  -3.344  0.00  0.00    -0.291 OA
ENDBRANCH   7  21
TORSDOF 8
ENDMDL
MODEL 5
REMARK VINA RESULT:      -5.9      2.275      3.060
REMARK  8 active torsions:
REMARK  status: ('A' for Active; 'I' for Inactive)
REMARK    1  A    between atoms: C_13  and  C_8 
REMARK    2  A    between atoms: N_17  and  C_8 
REMARK    3  A    between atoms: C_13  and  C_9 
REMARK    4  A    between atoms: O_20  and  C_9 
REMARK    5  A    between atoms: N_17  and  C_10 
REMARK    6  A    between atoms: C_15  and  C_11 
REMARK    7  A    between atoms: O_19  and  C_13 
REMARK    8  A    between atoms: O_20  and  C_14 
ROOT
HETATM    1  C   UNK N   1      35.741  10.039  13.505  0.00  0.00     0.004 A 
HETATM    2  C   UNK N   1      35.888   9.934  14.902  0.00  0.00     0.014 A 
HETATM    3  C   UNK N   1      35.339  11.259  12.913  0.00  0.00     0.040 A 
HETATM    4  C   UNK N   1      35.693  11.263  17.032  0.00  0.00     0.055 A 
HETATM    5  C   UNK N   1      35.624  11.066  15.668  0.00  0.00     0.003 A 
HETATM    6  C   UNK N   1      35.071  12.387  13.712  0.00  0.00     0.103 A 
HETATM    7  C   UNK N   1      35.321  12.600  17.196  0.00  0.00     0.122 A 
HETATM    8  C   UNK N   1      35.230  12.243  15.099  0.00  0.00     0.119 A 
HETATM    9  O   UNK N   1      35.052  13.146  16.028  0.00  0.00    -0.303 OA
ENDROOT
BRANCH   6  10
HETATM   10  O   UNK N   1      34.671  13.550  13.136  0.00  0.00    -0.346 OA
BRANCH  10  11
HETATM   11  C   UNK N   1      35.571  14.483  12.661  0.00  0.00     0.209 C 
BRANCH  11  12
HETATM   12  C   UNK N   1      35.039  15.282  11.486  0.00  0.00     0.159 C 
BRANCH  12  13
HETATM   13  C   UNK N   1      35.800  14.983  10.210  0.00  0.00     0.147 C 
BRANCH  13  14
HETATM   14  N   UNK N   1      37.230  15.037  10.475  0.00  0.00    -0.415 N 
HETATM   15  H   UNK N   1      37.708  15.721  11.060  0.00  0.00     0.153 HD
BRANCH  14  16
HETATM   16  C   UNK N   1      37.851  13.937   9.752  0.00  0.00     0.068 C 
HETATM   17  C   UNK N   1      38.255  12.832  10.716  0.00  0.00     0.031 C 
HETATM   18  C   UNK N   1      36.864  13.377   8.752  0.00  0.00     0.031 C 
ENDBRANCH  14  16
ENDBRANCH  13  14
ENDBRANCH  12  13
BRANCH  12  19
HETATM   19  O   UNK N   1      33.701  14.935  11.299  0.00  0.00    -0.392 OA
HETATM   20  H   UNK N   1      33.405  14.020  11.167  0.00  0.00     0.210 HD
ENDBRANCH  12  19
ENDBRANCH  11  12
ENDBRANCH  10  11
ENDBRANCH   6  10
BRANCH   7  21
HETATM   21  C   UNK N   1      35.238  13.338  18.464  0.00  0.00     0.179 C 
HETATM   22  C   UNK N   1      35.118  12.614  19.763  0.00  0.00     0.099 C 
HETATM   23  O   UNK N   1      35.279  14.557  18.459  0.00  0.00    -0.291 OA
ENDBRANCH   7  21
TORSDOF 8
ENDMDL
MODEL 6
REMARK VINA RESULT:      -5.9     19.615     22.963
REMARK  8 active torsions:
REMARK  status: ('A' for Active; 'I' for Inactive)
REMARK    1  A    between atoms: C_13  and  C_8 
REMARK    2  A    between atoms: N_17  and  C_8 
REMARK    3  A    between atoms: C_13  and  C_9 
REMARK    4  A    between atoms: O_20  and  C_9 
REMARK    5  A    between atoms: N_17  and  C_10 
REMARK    6  A    between atoms: C_15  and  C_11 
REMARK    7  A    between atoms: O_19  and  C_13 
REMARK    8  A    between atoms: O_20  and  C_14 
ROOT
HETATM    1  C   UNK N   1      24.946  26.759  -6.304  0.00  0.00     0.004 A 
HETATM    2  C   UNK N   1      25.567  25.497  -6.232  0.00  0.00     0.014 A 
HETATM    3  C   UNK N   1      25.050  27.676  -5.231  0.00  0.00     0.040 A 
HETATM    4  C   UNK N   1      26.989  24.058  -4.732  0.00  0.00     0.055 A 
HETATM    5  C   UNK N   1      26.280  25.191  -5.076  0.00  0.00     0.003 A 
HETATM    6  C   UNK N   1      25.772  27.337  -4.070  0.00  0.00     0.103 A 
HETATM    7  C   UNK N   1      27.485  24.348  -3.458  0.00  0.00     0.122 A 
HETATM    8  C   UNK N   1      26.377  26.071  -4.037  0.00  0.00     0.119 A 
HETATM    9  O   UNK N   1      27.099  25.549  -3.079  0.00  0.00    -0.303 OA
ENDROOT
BRANCH   6  10
HETATM   10  O   UNK N   1      25.854  28.218  -3.040  0.00  0.00    -0.346 OA
BRANCH  10  11
HETATM   11  C   UNK N   1      26.656  29.340  -3.094  0.00  0.00     0.209 C 
BRANCH  11  12
HETATM   12  C   UNK N   1      27.991  29.154  -2.397  0.00  0.00     0.159 C 
BRANCH  12  13
HETATM   13  C   UNK N   1      29.116  28.925  -3.386  0.00  0.00     0.147 C 
BRANCH  13  14
HETATM   14  N   UNK N   1      28.833  29.648  -4.617  0.00  0.00    -0.415 N 
HETATM   15  H   UNK N   1      28.433  30.583  -4.688  0.00  0.00     0.153 HD
BRANCH  14  16
HETATM   16  C   UNK N   1      29.225  28.792  -5.727  0.00  0.00     0.068 C 
HETATM   17  C   UNK N   1      29.483  27.376  -5.238  0.00  0.00     0.031 C 
HETATM   18  C   UNK N   1      28.110  28.762  -6.750  0.00  0.00     0.031 C 
ENDBRANCH  14  16
ENDBRANCH  13  14
ENDBRANCH  12  13
BRANCH  12  19
HETATM   19  O   UNK N   1      28.264  30.315  -1.672  0.00  0.00    -0.392 OA
HETATM   20  H   UNK N   1      27.671  30.663  -0.988  0.00  0.00     0.210 HD
ENDBRANCH  12  19
ENDBRANCH  11  12
ENDBRANCH  10  11
ENDBRANCH   6  10
BRANCH   7  21
HETATM   21  C   UNK N   1      28.329  23.478  -2.627  0.00  0.00     0.179 C 
HETATM   22  C   UNK N   1      29.675  23.044  -3.098  0.00  0.00     0.099 C 
HETATM   23  O   UNK N   1      27.930  23.114  -1.533  0.00  0.00    -0.291 OA
ENDBRANCH   7  21
TORSDOF 8
ENDMDL
MODEL 7
REMARK VINA RESULT:      -5.9      1.587      2.243
REMARK  8 active torsions:
REMARK  status: ('A' for Active; 'I' for Inactive)
REMARK    1  A    between atoms: C_13  and  C_8 
REMARK    2  A    between atoms: N_17  and  C_8 
REMARK    3  A    between atoms: C_13  and  C_9 
REMARK    4  A    between atoms: O_20  and  C_9 
REMARK    5  A    between atoms: N_17  and  C_10 
REMARK    6  A    between atoms: C_15  and  C_11 
REMARK    7  A    between atoms: O_19  and  C_13 
REMARK    8  A    between atoms: O_20  and  C_14 
ROOT
HETATM    1  C   UNK N   1      34.050  10.399  11.073  0.00  0.00     0.004 A 
HETATM    2  C   UNK N   1      33.840  10.032  12.417  0.00  0.00     0.014 A 
HETATM    3  C   UNK N   1      34.608  11.658  10.749  0.00  0.00     0.040 A 
HETATM    4  C   UNK N   1      34.120  10.862  14.777  0.00  0.00     0.055 A 
HETATM    5  C   UNK N   1      34.198  10.947  13.402  0.00  0.00     0.003 A 
HETATM    6  C   UNK N   1      34.954  12.569  11.767  0.00  0.00     0.103 A 
HETATM    7  C   UNK N   1      34.634  12.085  15.217  0.00  0.00     0.122 A 
HETATM    8  C   UNK N   1      34.730  12.165  13.092  0.00  0.00     0.119 A 
HETATM    9  O   UNK N   1      34.982  12.831  14.190  0.00  0.00    -0.303 OA
ENDROOT
BRANCH   6  10
HETATM   10  O   UNK N   1      35.475  13.781  11.445  0.00  0.00    -0.346 OA
BRANCH  10  11
HETATM   11  C   UNK N   1      35.033  14.506  10.357  0.00  0.00     0.209 C 
BRANCH  11  12
HETATM   12  C   UNK N   1      35.889  15.725  10.064  0.00  0.00     0.159 C 
BRANCH  12  13
HETATM   13  C   UNK N   1      35.056  16.987   9.967  0.00  0.00     0.147 C 
BRANCH  13  14
HETATM   14  N   UNK N   1      33.680  16.637   9.650  0.00  0.00    -0.415 N 
HETATM   15  H   UNK N   1      33.059  16.062  10.218  0.00  0.00     0.153 HD
BRANCH  14  16
HETATM   16  C   UNK N   1      33.354  17.257   8.374  0.00  0.00     0.068 C 
HETATM   17  C   UNK N   1      31.950  17.840   8.414  0.00  0.00     0.031 C 
HETATM   18  C   UNK N   1      34.339  18.370   8.095  0.00  0.00     0.031 C 
ENDBRANCH  14  16
ENDBRANCH  13  14
ENDBRANCH  12  13
BRANCH  12  19
HETATM   19  O   UNK N   1      36.802  15.871  11.108  0.00  0.00    -0.392 OA
HETATM   20  H   UNK N   1      36.744  16.582  11.766  0.00  0.00     0.210 HD
ENDBRANCH  12  19
ENDBRANCH  11  12
ENDBRANCH  10  11
ENDBRANCH   6  10
BRANCH   7  21
HETATM   21  C   UNK N   1      34.794  12.518  16.613  0.00  0.00     0.179 C 
HETATM   22  C   UNK N   1      35.379  11.601  17.634  0.00  0.00     0.099 C 
HETATM   23  O   UNK N   1      34.455  13.643  16.940  0.00  0.00    -0.291 OA
ENDBRANCH   7  21
TORSDOF 8
ENDMDL
MODEL 8
REMARK VINA RESULT:      -5.8     10.232     15.086
REMARK  8 active torsions:
REMARK  status: ('A' for Active; 'I' for Inactive)
REMARK    1  A    between atoms: C_13  and  C_8 
REMARK    2  A    between atoms: N_17  and  C_8 
REMARK    3  A    between atoms: C_13  and  C_9 
REMARK    4  A    between atoms: O_20  and  C_9 
REMARK    5  A    between atoms: N_17  and  C_10 
REMARK    6  A    between atoms: C_15  and  C_11 
REMARK    7  A    between atoms: O_19  and  C_13 
REMARK    8  A    between atoms: O_20  and  C_14 
ROOT
HETATM    1  C   UNK N   1      27.117  19.810   3.654  0.00  0.00     0.004 A 
HETATM    2  C   UNK N   1      26.161  20.657   3.060  0.00  0.00     0.014 A 
HETATM    3  C   UNK N   1      26.714  18.643   4.346  0.00  0.00     0.040 A 
HETATM    4  C   UNK N   1      23.683  20.923   2.698  0.00  0.00     0.055 A 
HETATM    5  C   UNK N   1      24.820  20.304   3.178  0.00  0.00     0.003 A 
HETATM    6  C   UNK N   1      25.348  18.314   4.457  0.00  0.00     0.103 A 
HETATM    7  C   UNK N   1      22.645  20.095   3.131  0.00  0.00     0.122 A 
HETATM    8  C   UNK N   1      24.428  19.183   3.850  0.00  0.00     0.119 A 
HETATM    9  O   UNK N   1      23.125  19.076   3.812  0.00  0.00    -0.303 OA
ENDROOT
BRANCH   6  10
HETATM   10  O   UNK N   1      24.971  17.200   5.135  0.00  0.00    -0.346 OA
BRANCH  10  11
HETATM   11  C   UNK N   1      25.470  15.949   4.831  0.00  0.00     0.209 C 
BRANCH  11  12
HETATM   12  C   UNK N   1      26.014  15.213   6.041  0.00  0.00     0.159 C 
BRANCH  12  13
HETATM   13  C   UNK N   1      27.351  15.772   6.486  0.00  0.00     0.147 C 
BRANCH  13  14
HETATM   14  N   UNK N   1      27.133  16.842   7.448  0.00  0.00    -0.415 N 
HETATM   15  H   UNK N   1      26.230  17.170   7.789  0.00  0.00     0.153 HD
BRANCH  14  16
HETATM   16  C   UNK N   1      28.439  17.356   7.833  0.00  0.00     0.068 C 
HETATM   17  C   UNK N   1      29.381  17.357   6.640  0.00  0.00     0.031 C 
HETATM   18  C   UNK N   1      28.286  18.774   8.338  0.00  0.00     0.031 C 
ENDBRANCH  14  16
ENDBRANCH  13  14
ENDBRANCH  12  13
BRANCH  12  19
HETATM   19  O   UNK N   1      25.099  15.363   7.084  0.00  0.00    -0.392 OA
HETATM   20  H   UNK N   1      25.085  16.137   7.668  0.00  0.00     0.210 HD
ENDBRANCH  12  19
ENDBRANCH  11  12
ENDBRANCH  10  11
ENDBRANCH   6  10
BRANCH   7  21
HETATM   21  C   UNK N   1      21.209  20.285   2.878  0.00  0.00     0.179 C 
HETATM   22  C   UNK N   1      20.669  20.265   1.488  0.00  0.00     0.099 C 
HETATM   23  O   UNK N   1      20.446  20.450   3.815  0.00  0.00    -0.291 OA
ENDBRANCH   7  21
TORSDOF 8
ENDMDL
MODEL 9
REMARK VINA RESULT:      -5.8     11.981     14.285
REMARK  8 active torsions:
REMARK  status: ('A' for Active; 'I' for Inactive)
REMARK    1  A    between atoms: C_13  and  C_8 
REMARK    2  A    between atoms: N_17  and  C_8 
REMARK    3  A    between atoms: C_13  and  C_9 
REMARK    4  A    between atoms: O_20  and  C_9 
REMARK    5  A    between atoms: N_17  and  C_10 
REMARK    6  A    between atoms: C_15  and  C_11 
REMARK    7  A    between atoms: O_19  and  C_13 
REMARK    8  A    between atoms: O_20  and  C_14 
ROOT
HETATM    1  C   UNK N   1      22.835  11.592  11.076  0.00  0.00     0.004 A 
HETATM    2  C   UNK N   1      21.571  12.213  11.021  0.00  0.00     0.014 A 
HETATM    3  C   UNK N   1      23.886  12.023  10.233  0.00  0.00     0.040 A 
HETATM    4  C   UNK N   1      20.299  14.044   9.851  0.00  0.00     0.055 A 
HETATM    5  C   UNK N   1      21.401  13.255  10.115  0.00  0.00     0.003 A 
HETATM    6  C   UNK N   1      23.683  13.075   9.318  0.00  0.00     0.103 A 
HETATM    7  C   UNK N   1      20.743  14.913   8.851  0.00  0.00     0.122 A 
HETATM    8  C   UNK N   1      22.411  13.668   9.295  0.00  0.00     0.119 A 
HETATM    9  O   UNK N   1      21.998  14.658   8.547  0.00  0.00    -0.303 OA
ENDROOT
BRANCH   6  10
HETATM   10  O   UNK N   1      24.694  13.471   8.503  0.00  0.00    -0.346 OA
BRANCH  10  11
HETATM   11  C   UNK N   1      24.851  12.966   7.228  0.00  0.00     0.209 C 
BRANCH  11  12
HETATM   12  C   UNK N   1      24.613  13.999   6.142  0.00  0.00     0.159 C 
BRANCH  12  13
HETATM   13  C   UNK N   1      23.505  13.578   5.197  0.00  0.00     0.147 C 
BRANCH  13  14
HETATM   14  N   UNK N   1      22.217  13.929   5.775  0.00  0.00    -0.415 N 
HETATM   15  H   UNK N   1      22.007  14.769   6.314  0.00  0.00     0.153 HD
BRANCH  14  16
HETATM   16  C   UNK N   1      21.283  12.862   5.444  0.00  0.00     0.068 C 
HETATM   17  C   UNK N   1      21.290  11.797   6.529  0.00  0.00     0.031 C 
HETATM   18  C   UNK N   1      19.888  13.437   5.331  0.00  0.00     0.031 C 
ENDBRANCH  14  16
ENDBRANCH  13  14
ENDBRANCH  12  13
BRANCH  12  19
HETATM   19  O   UNK N   1      24.243  15.195   6.758  0.00  0.00    -0.392 OA
HETATM   20  H   UNK N   1      24.833  15.962   6.823  0.00  0.00     0.210 HD
ENDBRANCH  12  19
ENDBRANCH  11  12
ENDBRANCH  10  11
ENDBRANCH   6  10
BRANCH   7  21
HETATM   21  C   UNK N   1      19.964  15.982   8.209  0.00  0.00     0.179 C 
HETATM   22  C   UNK N   1      18.821  16.626   8.919  0.00  0.00     0.099 C 
HETATM   23  O   UNK N   1      20.259  16.355   7.086  0.00  0.00    -0.291 OA
ENDBRANCH   7  21
TORSDOF 8
ENDMDL
