REMARK  12 active torsions:
REMARK  status: ('A' for Active; 'I' for Inactive)
REMARK    1  A    between atoms: O_1  and  C_23 
REMARK    2  A    between atoms: O_1  and  C_32 
REMARK    3  A    between atoms: O_3  and  C_40 
REMARK    4  A    between atoms: N_7  and  C_17 
REMARK    5  A    between atoms: N_9  and  C_42 
REMARK    6  A    between atoms: C_10  and  C_15 
REMARK    7  A    between atoms: C_10  and  C_16 
REMARK    8  A    between atoms: C_17  and  C_18 
REMARK    9  A    between atoms: C_18  and  C_23 
REMARK   10  A    between atoms: C_30  and  C_35 
REMARK   11  A    between atoms: C_31  and  C_32 
REMARK   12  A    between atoms: C_33  and  C_40 
ROOT
HETATM    1  O   UNK N   1       0.876   0.424  -2.019  0.00  0.00    -0.259 OA
HETATM    2  C   UNK N   1       1.135   0.268  -0.837  0.00  0.00     0.292 C 
ENDROOT
BRANCH   2   3
HETATM    3  O   UNK N   1       0.476   1.007   0.084  0.00  0.00    -0.318 OA
BRANCH   3   4
HETATM    4  C   UNK N   1       0.345   0.628   1.405  0.00  0.00     0.180 C 
BRANCH   4   5
HETATM    5  C   UNK N   1      -0.940   1.220   1.981  0.00  0.00     0.057 C 
BRANCH   5   6
HETATM    6  C   UNK N   1      -2.127   1.124   1.008  0.00  0.00     0.274 C 
BRANCH   6   7
HETATM    7  N   UNK N   1      -1.957   0.026   0.053  0.00  0.00     0.088 N 
HETATM    8  C   UNK N   1      -2.014  -1.276   0.728  0.00  0.00     0.273 C 
HETATM    9  C   UNK N   1      -3.442  -1.655   1.064  0.00  0.00     0.049 C 
HETATM   10  C   UNK N   1      -4.389  -1.570  -0.151  0.00  0.00     0.017 C 
HETATM   11  C   UNK N   1      -3.640  -1.101  -1.415  0.00  0.00     0.049 C 
HETATM   12  C   UNK N   1      -2.861   0.184  -1.098  0.00  0.00     0.273 C 
BRANCH  10  13
HETATM   13  C   UNK N   1      -5.477  -0.537   0.135  0.00  0.00    -0.045 A 
HETATM   14  C   UNK N   1      -6.703  -0.571  -0.550  0.00  0.00     0.008 A 
HETATM   15  C   UNK N   1      -7.660   0.425  -0.331  0.00  0.00     0.001 A 
HETATM   16  C   UNK N   1      -7.386   1.486   0.537  0.00  0.00     0.000 A 
HETATM   17  C   UNK N   1      -6.157   1.553   1.191  0.00  0.00     0.001 A 
HETATM   18  C   UNK N   1      -5.213   0.549   0.992  0.00  0.00     0.008 A 
ENDBRANCH  10  13
BRANCH  10  19
HETATM   19  C   UNK N   1      -4.899  -2.990  -0.301  0.00  0.00    -0.045 A 
HETATM   20  C   UNK N   1      -4.111  -3.954  -0.959  0.00  0.00     0.008 A 
HETATM   21  C   UNK N   1      -4.468  -5.305  -0.930  0.00  0.00     0.001 A 
HETATM   22  C   UNK N   1      -5.593  -5.714  -0.211  0.00  0.00     0.000 A 
HETATM   23  C   UNK N   1      -6.363  -4.772   0.475  0.00  0.00     0.001 A 
HETATM   24  C   UNK N   1      -6.008  -3.423   0.445  0.00  0.00     0.008 A 
ENDBRANCH  10  19
ENDBRANCH   6   7
ENDBRANCH   5   6
ENDBRANCH   4   5
ENDBRANCH   3   4
ENDBRANCH   2   3
BRANCH   2  25
HETATM   25  C   UNK N   1       2.221  -0.669  -0.460  0.00  0.00     0.052 C 
HETATM   26  C   UNK N   1       3.574  -0.110  -0.074  0.00  0.00     0.101 C 
HETATM   27  C   UNK N   1       4.746  -1.100   0.012  0.00  0.00     0.052 C 
HETATM   28  C   UNK N   1       4.453  -2.436  -0.023  0.00  0.00     0.018 C 
HETATM   29  N   UNK N   1       3.112  -2.887  -0.204  0.00  0.00    -0.362 N 
HETATM   30  C   UNK N   1       5.515  -3.492   0.058  0.00  0.00     0.069 C 
HETATM   31  C   UNK N   1       2.043  -2.003  -0.519  0.00  0.00     0.018 C 
HETATM   32  H   UNK N   1       2.933  -3.904  -0.226  0.00  0.00     0.165 HD
HETATM   33  C   UNK N   1       0.719  -2.590  -0.910  0.00  0.00     0.069 C 
BRANCH  26  34
HETATM   34  C   UNK N   1       3.656   1.369   0.274  0.00  0.00    -0.042 A 
HETATM   35  C   UNK N   1       4.463   2.241  -0.455  0.00  0.00     0.044 A 
HETATM   36  C   UNK N   1       4.530   3.603  -0.134  0.00  0.00     0.103 A 
HETATM   37  C   UNK N   1       3.715   4.113   0.887  0.00  0.00     0.036 A 
HETATM   38  C   UNK N   1       2.886   3.256   1.609  0.00  0.00     0.003 A 
HETATM   39  C   UNK N   1       2.886   1.890   1.323  0.00  0.00     0.008 A 
BRANCH  36  40
HETATM   40  N   UNK N   1       5.461   4.447  -0.791  0.00  0.00    -0.116 N 
HETATM   41  O   UNK N   1       5.541   5.720  -0.477  0.00  0.00    -0.532 OA
HETATM   42  O   UNK N   1       6.256   3.979  -1.556  0.00  0.00    -0.532 OA
ENDBRANCH  36  40
ENDBRANCH  26  34
BRANCH  27  43
HETATM   43  C   UNK N   1       6.176  -0.615   0.065  0.00  0.00     0.291 C 
HETATM   44  O   UNK N   1       6.432   0.556  -0.153  0.00  0.00    -0.260 OA
BRANCH  43  45
HETATM   45  O   UNK N   1       7.199  -1.479   0.271  0.00  0.00    -0.323 OA
HETATM   46  C   UNK N   1       8.518  -1.089   0.207  0.00  0.00     0.213 C 
ENDBRANCH  43  45
ENDBRANCH  27  43
ENDBRANCH   2  25
TORSDOF 12
