MODEL 1
REMARK VINA RESULT:      -7.4      0.000      0.000
REMARK  6 active torsions:
REMARK  status: ('A' for Active; 'I' for Inactive)
REMARK    1  A    between atoms: N_3  and  C_23 
REMARK    2  A    between atoms: C_6  and  N_7 
REMARK    3  A    between atoms: N_7  and  C_8 
REMARK       I    between atoms: N_7  and  C_16 
REMARK    4  A    between atoms: C_16  and  C_18 
REMARK    5  A    between atoms: C_23  and  C_24 
REMARK    6  A    between atoms: C_24  and  C_25 
ROOT
HETATM    1  N   UNK N   1      33.362  16.322   7.410  0.00  0.00    -0.292 N 
HETATM    2  C   UNK N   1      34.139  16.073   6.294  0.00  0.00     0.283 C 
HETATM    3  O   UNK N   1      35.275  15.638   6.414  0.00  0.00    -0.265 OA
ENDROOT
BRANCH   1   4
HETATM    4  C   UNK N   1      31.997  16.787   7.217  0.00  0.00     0.098 C 
HETATM    5  C   UNK N   1      31.525  17.773   8.294  0.00  0.00     0.056 C 
HETATM    6  C   UNK N   1      30.081  17.511   8.756  0.00  0.00     0.274 C 
HETATM    7  N   UNK N   1      29.161  17.105   7.672  0.00  0.00     0.088 N 
HETATM    8  C   UNK N   1      29.708  16.268   6.597  0.00  0.00     0.274 C 
HETATM    9  C   UNK N   1      31.033  15.637   6.981  0.00  0.00     0.056 C 
BRANCH   7  10
HETATM   10  C   UNK N   1      28.363  18.200   7.121  0.00  0.00     0.277 C 
BRANCH  10  11
HETATM   11  C   UNK N   1      28.754  18.610   5.701  0.00  0.00     0.068 C 
BRANCH  11  12
HETATM   12  C   UNK N   1      27.503  18.870   4.930  0.00  0.00    -0.057 A 
HETATM   13  C   UNK N   1      26.411  18.005   5.046  0.00  0.00     0.007 A 
HETATM   14  C   UNK N   1      25.228  18.275   4.350  0.00  0.00     0.001 A 
HETATM   15  C   UNK N   1      25.134  19.413   3.542  0.00  0.00     0.000 A 
HETATM   16  C   UNK N   1      26.228  20.276   3.419  0.00  0.00     0.001 A 
HETATM   17  C   UNK N   1      27.410  20.004   4.110  0.00  0.00     0.007 A 
ENDBRANCH  11  12
ENDBRANCH  10  11
ENDBRANCH   7  10
ENDBRANCH   1   4
BRANCH   1  18
HETATM   18  C   UNK N   1      33.834  16.101   8.763  0.00  0.00     0.126 A 
HETATM   19  N   UNK N   1      34.851  16.864   9.261  0.00  0.00    -0.350 N 
HETATM   20  C   UNK N   1      35.324  16.691  10.522  0.00  0.00     0.106 A 
ATOM     21  HN  UNK N   1      35.265  17.583   8.670  1.00  0.00     0.166 HD
HETATM   22  C   UNK N   1      34.761  15.715  11.340  0.00  0.00     0.104 A 
HETATM   23  N   UNK N   1      33.748  14.948  10.863  0.00  0.00    -0.371 N 
HETATM   24  C   UNK N   1      33.277  15.118   9.600  0.00  0.00     0.136 A 
ATOM     25  HN  UNK N   1      33.334  14.234  11.462  1.00  0.00     0.164 HD
ENDBRANCH   1  18
BRANCH   2  26
HETATM   26  C   UNK N   1      33.641  16.313   4.907  0.00  0.00     0.143 A 
HETATM   27  C   UNK N   1      33.064  17.486   4.468  0.00  0.00     0.045 A 
HETATM   28  C   UNK N   1      32.748  17.271   3.140  0.00  0.00     0.027 A 
HETATM   29  C   UNK N   1      33.147  15.978   2.849  0.00  0.00     0.143 A 
HETATM   30  O   UNK N   1      33.674  15.444   3.925  0.00  0.00    -0.317 OA
ENDBRANCH   2  26
TORSDOF 6
ENDMDL
MODEL 2
REMARK VINA RESULT:      -7.4     11.751     15.644
REMARK  6 active torsions:
REMARK  status: ('A' for Active; 'I' for Inactive)
REMARK    1  A    between atoms: N_3  and  C_23 
REMARK    2  A    between atoms: C_6  and  N_7 
REMARK    3  A    between atoms: N_7  and  C_8 
REMARK       I    between atoms: N_7  and  C_16 
REMARK    4  A    between atoms: C_16  and  C_18 
REMARK    5  A    between atoms: C_23  and  C_24 
REMARK    6  A    between atoms: C_24  and  C_25 
ROOT
HETATM    1  N   UNK N   1      26.699  25.931  -5.485  0.00  0.00    -0.292 N 
HETATM    2  C   UNK N   1      25.987  25.546  -6.606  0.00  0.00     0.283 C 
HETATM    3  O   UNK N   1      25.262  26.344  -7.184  0.00  0.00    -0.265 OA
ENDROOT
BRANCH   1   4
HETATM    4  C   UNK N   1      27.592  24.964  -4.864  0.00  0.00     0.098 C 
HETATM    5  C   UNK N   1      26.935  24.158  -3.736  0.00  0.00     0.056 C 
HETATM    6  C   UNK N   1      27.856  23.970  -2.518  0.00  0.00     0.274 C 
HETATM    7  N   UNK N   1      29.276  23.740  -2.861  0.00  0.00     0.088 N 
HETATM    8  C   UNK N   1      29.812  24.440  -4.035  0.00  0.00     0.274 C 
HETATM    9  C   UNK N   1      28.921  25.586  -4.474  0.00  0.00     0.056 C 
BRANCH   7  10
HETATM   10  C   UNK N   1      29.670  22.331  -2.873  0.00  0.00     0.277 C 
BRANCH  10  11
HETATM   11  C   UNK N   1      30.134  21.821  -4.238  0.00  0.00     0.068 C 
BRANCH  11  12
HETATM   12  C   UNK N   1      31.453  21.146  -4.059  0.00  0.00    -0.057 A 
HETATM   13  C   UNK N   1      31.873  20.169  -4.967  0.00  0.00     0.007 A 
HETATM   14  C   UNK N   1      33.127  19.568  -4.817  0.00  0.00     0.001 A 
HETATM   15  C   UNK N   1      33.964  19.946  -3.762  0.00  0.00     0.000 A 
HETATM   16  C   UNK N   1      33.543  20.918  -2.849  0.00  0.00     0.001 A 
HETATM   17  C   UNK N   1      32.289  21.515  -2.996  0.00  0.00     0.007 A 
ENDBRANCH  11  12
ENDBRANCH  10  11
ENDBRANCH   7  10
ENDBRANCH   1   4
BRANCH   1  18
HETATM   18  C   UNK N   1      26.627  27.267  -4.927  0.00  0.00     0.126 A 
HETATM   19  N   UNK N   1      27.257  28.301  -5.558  0.00  0.00    -0.350 N 
HETATM   20  C   UNK N   1      27.216  29.568  -5.071  0.00  0.00     0.106 A 
ATOM     21  HN  UNK N   1      27.772  28.117  -6.418  1.00  0.00     0.166 HD
HETATM   22  C   UNK N   1      26.511  29.832  -3.900  0.00  0.00     0.104 A 
HETATM   23  N   UNK N   1      25.876  28.817  -3.260  0.00  0.00    -0.371 N 
HETATM   24  C   UNK N   1      25.920  27.548  -3.745  0.00  0.00     0.136 A 
ATOM     25  HN  UNK N   1      25.357  29.010  -2.404  1.00  0.00     0.164 HD
ENDBRANCH   1  18
BRANCH   2  26
HETATM   26  C   UNK N   1      26.065  24.164  -7.166  0.00  0.00     0.143 A 
HETATM   27  C   UNK N   1      26.924  23.769  -8.170  0.00  0.00     0.045 A 
HETATM   28  C   UNK N   1      26.658  22.428  -8.380  0.00  0.00     0.027 A 
HETATM   29  C   UNK N   1      25.650  22.089  -7.496  0.00  0.00     0.143 A 
HETATM   30  O   UNK N   1      25.327  23.147  -6.792  0.00  0.00    -0.317 OA
ENDBRANCH   2  26
TORSDOF 6
ENDMDL
MODEL 3
REMARK VINA RESULT:      -7.3     12.914     15.543
REMARK  6 active torsions:
REMARK  status: ('A' for Active; 'I' for Inactive)
REMARK    1  A    between atoms: N_3  and  C_23 
REMARK    2  A    between atoms: C_6  and  N_7 
REMARK    3  A    between atoms: N_7  and  C_8 
REMARK       I    between atoms: N_7  and  C_16 
REMARK    4  A    between atoms: C_16  and  C_18 
REMARK    5  A    between atoms: C_23  and  C_24 
REMARK    6  A    between atoms: C_24  and  C_25 
ROOT
HETATM    1  N   UNK N   1      28.611  26.934  -4.098  0.00  0.00    -0.292 N 
HETATM    2  C   UNK N   1      29.894  26.747  -3.619  0.00  0.00     0.283 C 
HETATM    3  O   UNK N   1      30.514  27.678  -3.126  0.00  0.00    -0.265 OA
ENDROOT
BRANCH   1   4
HETATM    4  C   UNK N   1      27.891  25.784  -4.625  0.00  0.00     0.098 C 
HETATM    5  C   UNK N   1      27.340  26.000  -6.040  0.00  0.00     0.056 C 
HETATM    6  C   UNK N   1      25.917  25.442  -6.222  0.00  0.00     0.274 C 
HETATM    7  N   UNK N   1      25.673  24.163  -5.520  0.00  0.00     0.088 N 
HETATM    8  C   UNK N   1      26.337  23.962  -4.227  0.00  0.00     0.274 C 
HETATM    9  C   UNK N   1      26.858  25.262  -3.642  0.00  0.00     0.056 C 
BRANCH   7  10
HETATM   10  C   UNK N   1      25.815  22.978  -6.365  0.00  0.00     0.277 C 
BRANCH  10  11
HETATM   11  C   UNK N   1      26.827  23.134  -7.501  0.00  0.00     0.068 C 
BRANCH  11  12
HETATM   12  C   UNK N   1      27.889  22.101  -7.324  0.00  0.00    -0.057 A 
HETATM   13  C   UNK N   1      28.881  22.270  -6.352  0.00  0.00     0.007 A 
HETATM   14  C   UNK N   1      29.852  21.279  -6.164  0.00  0.00     0.001 A 
HETATM   15  C   UNK N   1      29.828  20.118  -6.944  0.00  0.00     0.000 A 
HETATM   16  C   UNK N   1      28.842  19.951  -7.921  0.00  0.00     0.001 A 
HETATM   17  C   UNK N   1      27.876  20.941  -8.112  0.00  0.00     0.007 A 
ENDBRANCH  11  12
ENDBRANCH  10  11
ENDBRANCH   7  10
ENDBRANCH   1   4
BRANCH   1  18
HETATM   18  C   UNK N   1      27.936  28.216  -4.061  0.00  0.00     0.126 A 
HETATM   19  N   UNK N   1      28.389  29.245  -4.836  0.00  0.00    -0.350 N 
HETATM   20  C   UNK N   1      27.788  30.463  -4.833  0.00  0.00     0.106 A 
ATOM     21  HN  UNK N   1      29.201  29.094  -5.434  1.00  0.00     0.166 HD
HETATM   22  C   UNK N   1      26.675  30.677  -4.025  0.00  0.00     0.104 A 
HETATM   23  N   UNK N   1      26.208  29.666  -3.249  0.00  0.00    -0.371 N 
HETATM   24  C   UNK N   1      26.812  28.449  -3.249  0.00  0.00     0.136 A 
ATOM     25  HN  UNK N   1      25.391  29.822  -2.658  1.00  0.00     0.164 HD
ENDBRANCH   1  18
BRANCH   2  26
HETATM   26  C   UNK N   1      30.579  25.421  -3.670  0.00  0.00     0.143 A 
HETATM   27  C   UNK N   1      31.473  25.033  -4.646  0.00  0.00     0.045 A 
HETATM   28  C   UNK N   1      31.850  23.746  -4.313  0.00  0.00     0.027 A 
HETATM   29  C   UNK N   1      31.161  23.424  -3.158  0.00  0.00     0.143 A 
HETATM   30  O   UNK N   1      30.418  24.446  -2.807  0.00  0.00    -0.317 OA
ENDBRANCH   2  26
TORSDOF 6
ENDMDL
MODEL 4
REMARK VINA RESULT:      -7.2      3.757      7.785
REMARK  6 active torsions:
REMARK  status: ('A' for Active; 'I' for Inactive)
REMARK    1  A    between atoms: N_3  and  C_23 
REMARK    2  A    between atoms: C_6  and  N_7 
REMARK    3  A    between atoms: N_7  and  C_8 
REMARK       I    between atoms: N_7  and  C_16 
REMARK    4  A    between atoms: C_16  and  C_18 
REMARK    5  A    between atoms: C_23  and  C_24 
REMARK    6  A    between atoms: C_24  and  C_25 
ROOT
HETATM    1  N   UNK N   1      27.365  18.683   5.682  0.00  0.00    -0.292 N 
HETATM    2  C   UNK N   1      27.624  19.247   6.918  0.00  0.00     0.283 C 
HETATM    3  O   UNK N   1      27.112  20.312   7.233  0.00  0.00    -0.265 OA
ENDROOT
BRANCH   1   4
HETATM    4  C   UNK N   1      27.952  17.389   5.373  0.00  0.00     0.098 C 
HETATM    5  C   UNK N   1      28.489  17.284   3.939  0.00  0.00     0.056 C 
HETATM    6  C   UNK N   1      28.163  15.936   3.273  0.00  0.00     0.274 C 
HETATM    7  N   UNK N   1      28.251  14.773   4.181  0.00  0.00     0.088 N 
HETATM    8  C   UNK N   1      27.846  14.972   5.578  0.00  0.00     0.274 C 
HETATM    9  C   UNK N   1      27.037  16.242   5.764  0.00  0.00     0.056 C 
BRANCH   7  10
HETATM   10  C   UNK N   1      29.519  14.048   4.108  0.00  0.00     0.277 C 
BRANCH  10  11
HETATM   11  C   UNK N   1      30.443  14.276   5.304  0.00  0.00     0.068 C 
BRANCH  11  12
HETATM   12  C   UNK N   1      31.367  15.400   4.973  0.00  0.00    -0.057 A 
HETATM   13  C   UNK N   1      31.835  15.565   3.666  0.00  0.00     0.007 A 
HETATM   14  C   UNK N   1      32.670  16.643   3.352  0.00  0.00     0.001 A 
HETATM   15  C   UNK N   1      33.033  17.560   4.345  0.00  0.00     0.000 A 
HETATM   16  C   UNK N   1      32.571  17.393   5.654  0.00  0.00     0.001 A 
HETATM   17  C   UNK N   1      31.742  16.314   5.968  0.00  0.00     0.007 A 
ENDBRANCH  11  12
ENDBRANCH  10  11
ENDBRANCH   7  10
ENDBRANCH   1   4
BRANCH   1  18
HETATM   18  C   UNK N   1      26.502  19.307   4.698  0.00  0.00     0.126 A 
HETATM   19  N   UNK N   1      25.160  19.059   4.718  0.00  0.00    -0.350 N 
HETATM   20  C   UNK N   1      24.314  19.621   3.816  0.00  0.00     0.106 A 
ATOM     21  HN  UNK N   1      24.782  18.435   5.430  1.00  0.00     0.166 HD
HETATM   22  C   UNK N   1      24.819  20.480   2.844  0.00  0.00     0.104 A 
HETATM   23  N   UNK N   1      26.151  20.741   2.809  0.00  0.00    -0.371 N 
HETATM   24  C   UNK N   1      26.997  20.175   3.709  0.00  0.00     0.136 A 
ATOM     25  HN  UNK N   1      26.521  21.371   2.099  1.00  0.00     0.164 HD
ENDBRANCH   1  18
BRANCH   2  26
HETATM   26  C   UNK N   1      28.521  18.597   7.919  0.00  0.00     0.143 A 
HETATM   27  C   UNK N   1      28.090  17.930   9.047  0.00  0.00     0.045 A 
HETATM   28  C   UNK N   1      29.238  17.499   9.685  0.00  0.00     0.027 A 
HETATM   29  C   UNK N   1      30.300  17.933   8.911  0.00  0.00     0.143 A 
HETATM   30  O   UNK N   1      29.831  18.580   7.871  0.00  0.00    -0.317 OA
ENDBRANCH   2  26
TORSDOF 6
ENDMDL
MODEL 5
REMARK VINA RESULT:      -7.1      4.055      6.670
REMARK  6 active torsions:
REMARK  status: ('A' for Active; 'I' for Inactive)
REMARK    1  A    between atoms: N_3  and  C_23 
REMARK    2  A    between atoms: C_6  and  N_7 
REMARK    3  A    between atoms: N_7  and  C_8 
REMARK       I    between atoms: N_7  and  C_16 
REMARK    4  A    between atoms: C_16  and  C_18 
REMARK    5  A    between atoms: C_23  and  C_24 
REMARK    6  A    between atoms: C_24  and  C_25 
ROOT
HETATM    1  N   UNK N   1      27.481  18.301   6.063  0.00  0.00    -0.292 N 
HETATM    2  C   UNK N   1      26.940  19.550   5.821  0.00  0.00     0.283 C 
HETATM    3  O   UNK N   1      27.154  20.479   6.587  0.00  0.00    -0.265 OA
ENDROOT
BRANCH   1   4
HETATM    4  C   UNK N   1      27.245  17.242   5.095  0.00  0.00     0.098 C 
HETATM    5  C   UNK N   1      26.847  15.904   5.733  0.00  0.00     0.056 C 
HETATM    6  C   UNK N   1      27.531  14.696   5.070  0.00  0.00     0.274 C 
HETATM    7  N   UNK N   1      27.664  14.804   3.601  0.00  0.00     0.088 N 
HETATM    8  C   UNK N   1      27.914  16.137   3.039  0.00  0.00     0.274 C 
HETATM    9  C   UNK N   1      28.380  17.124   4.093  0.00  0.00     0.056 C 
BRANCH   7  10
HETATM   10  C   UNK N   1      26.615  14.114   2.851  0.00  0.00     0.277 C 
BRANCH  10  11
HETATM   11  C   UNK N   1      25.985  14.951   1.738  0.00  0.00     0.068 C 
BRANCH  11  12
HETATM   12  C   UNK N   1      24.510  14.727   1.764  0.00  0.00    -0.057 A 
HETATM   13  C   UNK N   1      23.746  15.187   2.842  0.00  0.00     0.007 A 
HETATM   14  C   UNK N   1      22.359  15.008   2.842  0.00  0.00     0.001 A 
HETATM   15  C   UNK N   1      21.733  14.374   1.764  0.00  0.00     0.000 A 
HETATM   16  C   UNK N   1      22.496  13.907   0.688  0.00  0.00     0.001 A 
HETATM   17  C   UNK N   1      23.881  14.081   0.689  0.00  0.00     0.007 A 
ENDBRANCH  11  12
ENDBRANCH  10  11
ENDBRANCH   7  10
ENDBRANCH   1   4
BRANCH   1  18
HETATM   18  C   UNK N   1      28.308  18.013   7.219  0.00  0.00     0.126 A 
HETATM   19  N   UNK N   1      27.771  18.079   8.472  0.00  0.00    -0.350 N 
HETATM   20  C   UNK N   1      28.508  17.817   9.582  0.00  0.00     0.106 A 
ATOM     21  HN  UNK N   1      26.789  18.331   8.577  1.00  0.00     0.166 HD
HETATM   22  C   UNK N   1      29.849  17.465   9.449  0.00  0.00     0.104 A 
HETATM   23  N   UNK N   1      30.401  17.393   8.211  0.00  0.00    -0.371 N 
HETATM   24  C   UNK N   1      29.664  17.659   7.101  0.00  0.00     0.136 A 
ATOM     25  HN  UNK N   1      31.382  17.133   8.113  1.00  0.00     0.164 HD
ENDBRANCH   1  18
BRANCH   2  26
HETATM   26  C   UNK N   1      26.084  19.831   4.630  0.00  0.00     0.143 A 
HETATM   27  C   UNK N   1      26.530  20.404   3.457  0.00  0.00     0.045 A 
HETATM   28  C   UNK N   1      25.419  20.486   2.638  0.00  0.00     0.027 A 
HETATM   29  C   UNK N   1      24.362  19.963   3.363  0.00  0.00     0.143 A 
HETATM   30  O   UNK N   1      24.799  19.584   4.539  0.00  0.00    -0.317 OA
ENDBRANCH   2  26
TORSDOF 6
ENDMDL
MODEL 6
REMARK VINA RESULT:      -7.1     13.031     16.128
REMARK  6 active torsions:
REMARK  status: ('A' for Active; 'I' for Inactive)
REMARK    1  A    between atoms: N_3  and  C_23 
REMARK    2  A    between atoms: C_6  and  N_7 
REMARK    3  A    between atoms: N_7  and  C_8 
REMARK       I    between atoms: N_7  and  C_16 
REMARK    4  A    between atoms: C_16  and  C_18 
REMARK    5  A    between atoms: C_23  and  C_24 
REMARK    6  A    between atoms: C_24  and  C_25 
ROOT
HETATM    1  N   UNK N   1      26.702  26.286  -5.553  0.00  0.00    -0.292 N 
HETATM    2  C   UNK N   1      25.824  26.090  -6.602  0.00  0.00     0.283 C 
HETATM    3  O   UNK N   1      25.024  26.961  -6.914  0.00  0.00    -0.265 OA
ENDROOT
BRANCH   1   4
HETATM    4  C   UNK N   1      27.672  25.244  -5.254  0.00  0.00     0.098 C 
HETATM    5  C   UNK N   1      27.196  24.250  -4.187  0.00  0.00     0.056 C 
HETATM    6  C   UNK N   1      28.298  23.875  -3.181  0.00  0.00     0.274 C 
HETATM    7  N   UNK N   1      29.642  23.729  -3.779  0.00  0.00     0.088 N 
HETATM    8  C   UNK N   1      29.991  24.626  -4.889  0.00  0.00     0.274 C 
HETATM    9  C   UNK N   1      29.052  25.814  -4.980  0.00  0.00     0.056 C 
BRANCH   7  10
HETATM   10  C   UNK N   1      30.014  22.350  -4.092  0.00  0.00     0.277 C 
BRANCH  10  11
HETATM   11  C   UNK N   1      30.879  22.200  -5.344  0.00  0.00     0.068 C 
BRANCH  11  12
HETATM   12  C   UNK N   1      30.188  21.266  -6.279  0.00  0.00    -0.057 A 
HETATM   13  C   UNK N   1      28.989  21.641  -6.893  0.00  0.00     0.007 A 
HETATM   14  C   UNK N   1      28.366  20.776  -7.799  0.00  0.00     0.001 A 
HETATM   15  C   UNK N   1      28.944  19.537  -8.095  0.00  0.00     0.000 A 
HETATM   16  C   UNK N   1      30.139  19.156  -7.476  0.00  0.00     0.001 A 
HETATM   17  C   UNK N   1      30.758  20.018  -6.569  0.00  0.00     0.007 A 
ENDBRANCH  11  12
ENDBRANCH  10  11
ENDBRANCH   7  10
ENDBRANCH   1   4
BRANCH   1  18
HETATM   18  C   UNK N   1      26.725  27.503  -4.764  0.00  0.00     0.126 A 
HETATM   19  N   UNK N   1      27.032  28.692  -5.359  0.00  0.00    -0.350 N 
HETATM   20  C   UNK N   1      27.066  29.855  -4.659  0.00  0.00     0.106 A 
ATOM     21  HN  UNK N   1      27.242  28.707  -6.356  1.00  0.00     0.166 HD
HETATM   22  C   UNK N   1      26.775  29.847  -3.298  0.00  0.00     0.104 A 
HETATM   23  N   UNK N   1      26.464  28.674  -2.689  0.00  0.00    -0.371 N 
HETATM   24  C   UNK N   1      26.435  27.510  -3.388  0.00  0.00     0.136 A 
ATOM     25  HN  UNK N   1      26.249  28.668  -1.692  1.00  0.00     0.164 HD
ENDBRANCH   1  18
BRANCH   2  26
HETATM   26  C   UNK N   1      25.807  24.829  -7.402  0.00  0.00     0.143 A 
HETATM   27  C   UNK N   1      26.429  24.660  -8.621  0.00  0.00     0.045 A 
HETATM   28  C   UNK N   1      26.152  23.360  -9.003  0.00  0.00     0.027 A 
HETATM   29  C   UNK N   1      25.374  22.816  -7.997  0.00  0.00     0.143 A 
HETATM   30  O   UNK N   1      25.193  23.720  -7.063  0.00  0.00    -0.317 OA
ENDBRANCH   2  26
TORSDOF 6
ENDMDL
MODEL 7
REMARK VINA RESULT:      -7.1      9.984     12.741
REMARK  6 active torsions:
REMARK  status: ('A' for Active; 'I' for Inactive)
REMARK    1  A    between atoms: N_3  and  C_23 
REMARK    2  A    between atoms: C_6  and  N_7 
REMARK    3  A    between atoms: N_7  and  C_8 
REMARK       I    between atoms: N_7  and  C_16 
REMARK    4  A    between atoms: C_16  and  C_18 
REMARK    5  A    between atoms: C_23  and  C_24 
REMARK    6  A    between atoms: C_24  and  C_25 
ROOT
HETATM    1  N   UNK N   1      20.473  16.433   2.386  0.00  0.00    -0.292 N 
HETATM    2  C   UNK N   1      20.326  15.920   1.111  0.00  0.00     0.283 C 
HETATM    3  O   UNK N   1      20.277  16.666   0.144  0.00  0.00    -0.265 OA
ENDROOT
BRANCH   1   4
HETATM    4  C   UNK N   1      20.583  15.505   3.501  0.00  0.00     0.098 C 
HETATM    5  C   UNK N   1      19.684  15.866   4.692  0.00  0.00     0.056 C 
HETATM    6  C   UNK N   1      20.385  15.682   6.049  0.00  0.00     0.274 C 
HETATM    7  N   UNK N   1      21.268  14.498   6.122  0.00  0.00     0.088 N 
HETATM    8  C   UNK N   1      22.002  14.125   4.906  0.00  0.00     0.274 C 
HETATM    9  C   UNK N   1      22.029  15.248   3.886  0.00  0.00     0.056 C 
BRANCH   7  10
HETATM   10  C   UNK N   1      20.648  13.323   6.734  0.00  0.00     0.277 C 
BRANCH  10  11
HETATM   11  C   UNK N   1      21.599  12.143   6.932  0.00  0.00     0.068 C 
BRANCH  11  12
HETATM   12  C   UNK N   1      22.173  12.232   8.306  0.00  0.00    -0.057 A 
HETATM   13  C   UNK N   1      21.387  12.686   9.370  0.00  0.00     0.007 A 
HETATM   14  C   UNK N   1      21.919  12.731  10.663  0.00  0.00     0.001 A 
HETATM   15  C   UNK N   1      23.236  12.318  10.894  0.00  0.00     0.000 A 
HETATM   16  C   UNK N   1      24.026  11.871   9.831  0.00  0.00     0.001 A 
HETATM   17  C   UNK N   1      23.496  11.830   8.539  0.00  0.00     0.007 A 
ENDBRANCH  11  12
ENDBRANCH  10  11
ENDBRANCH   7  10
ENDBRANCH   1   4
BRANCH   1  18
HETATM   18  C   UNK N   1      20.564  17.855   2.656  0.00  0.00     0.126 A 
HETATM   19  N   UNK N   1      19.493  18.664   2.405  0.00  0.00    -0.350 N 
HETATM   20  C   UNK N   1      19.534  20.000   2.643  0.00  0.00     0.106 A 
ATOM     21  HN  UNK N   1      18.640  18.253   2.029  1.00  0.00     0.166 HD
HETATM   22  C   UNK N   1      20.693  20.571   3.162  0.00  0.00     0.104 A 
HETATM   23  N   UNK N   1      21.768  19.782   3.421  0.00  0.00    -0.371 N 
HETATM   24  C   UNK N   1      21.728  18.446   3.179  0.00  0.00     0.136 A 
ATOM     25  HN  UNK N   1      22.616  20.199   3.803  1.00  0.00     0.164 HD
ENDBRANCH   1  18
BRANCH   2  26
HETATM   26  C   UNK N   1      20.227  14.453   0.849  0.00  0.00     0.143 A 
HETATM   27  C   UNK N   1      19.050  13.772   0.617  0.00  0.00     0.045 A 
HETATM   28  C   UNK N   1      19.416  12.451   0.434  0.00  0.00     0.027 A 
HETATM   29  C   UNK N   1      20.792  12.405   0.571  0.00  0.00     0.143 A 
HETATM   30  O   UNK N   1      21.235  13.615   0.815  0.00  0.00    -0.317 OA
ENDBRANCH   2  26
TORSDOF 6
ENDMDL
MODEL 8
REMARK VINA RESULT:      -7.0      4.042      6.470
REMARK  6 active torsions:
REMARK  status: ('A' for Active; 'I' for Inactive)
REMARK    1  A    between atoms: N_3  and  C_23 
REMARK    2  A    between atoms: C_6  and  N_7 
REMARK    3  A    between atoms: N_7  and  C_8 
REMARK       I    between atoms: N_7  and  C_16 
REMARK    4  A    between atoms: C_16  and  C_18 
REMARK    5  A    between atoms: C_23  and  C_24 
REMARK    6  A    between atoms: C_24  and  C_25 
ROOT
HETATM    1  N   UNK N   1      27.421  18.283   6.032  0.00  0.00    -0.292 N 
HETATM    2  C   UNK N   1      27.012  19.573   5.749  0.00  0.00     0.283 C 
HETATM    3  O   UNK N   1      27.374  20.507   6.450  0.00  0.00    -0.265 OA
ENDROOT
BRANCH   1   4
HETATM    4  C   UNK N   1      27.010  17.212   5.138  0.00  0.00     0.098 C 
HETATM    5  C   UNK N   1      26.636  15.913   5.865  0.00  0.00     0.056 C 
HETATM    6  C   UNK N   1      27.170  14.655   5.159  0.00  0.00     0.274 C 
HETATM    7  N   UNK N   1      27.114  14.717   3.683  0.00  0.00     0.088 N 
HETATM    8  C   UNK N   1      27.350  16.020   3.050  0.00  0.00     0.274 C 
HETATM    9  C   UNK N   1      27.997  17.010   4.001  0.00  0.00     0.056 C 
BRANCH   7  10
HETATM   10  C   UNK N   1      25.944  14.062   3.098  0.00  0.00     0.277 C 
BRANCH  10  11
HETATM   11  C   UNK N   1      24.887  15.027   2.560  0.00  0.00     0.068 C 
BRANCH  11  12
HETATM   12  C   UNK N   1      23.915  15.313   3.655  0.00  0.00    -0.057 A 
HETATM   13  C   UNK N   1      23.449  14.277   4.471  0.00  0.00     0.007 A 
HETATM   14  C   UNK N   1      22.568  14.557   5.521  0.00  0.00     0.001 A 
HETATM   15  C   UNK N   1      22.156  15.872   5.759  0.00  0.00     0.000 A 
HETATM   16  C   UNK N   1      22.615  16.908   4.940  0.00  0.00     0.001 A 
HETATM   17  C   UNK N   1      23.491  16.629   3.889  0.00  0.00     0.007 A 
ENDBRANCH  11  12
ENDBRANCH  10  11
ENDBRANCH   7  10
ENDBRANCH   1   4
BRANCH   1  18
HETATM   18  C   UNK N   1      28.276  17.957   7.157  0.00  0.00     0.126 A 
HETATM   19  N   UNK N   1      27.794  18.066   8.430  0.00  0.00    -0.350 N 
HETATM   20  C   UNK N   1      28.559  17.771   9.512  0.00  0.00     0.106 A 
ATOM     21  HN  UNK N   1      26.834  18.376   8.571  1.00  0.00     0.166 HD
HETATM   22  C   UNK N   1      29.871  17.341   9.331  0.00  0.00     0.104 A 
HETATM   23  N   UNK N   1      30.367  17.224   8.072  0.00  0.00    -0.371 N 
HETATM   24  C   UNK N   1      29.603  17.523   6.989  0.00  0.00     0.136 A 
ATOM     25  HN  UNK N   1      31.327  16.907   7.939  1.00  0.00     0.164 HD
ENDBRANCH   1  18
BRANCH   2  26
HETATM   26  C   UNK N   1      26.126  19.892   4.591  0.00  0.00     0.143 A 
HETATM   27  C   UNK N   1      26.564  20.356   3.368  0.00  0.00     0.045 A 
HETATM   28  C   UNK N   1      25.423  20.524   2.605  0.00  0.00     0.027 A 
HETATM   29  C   UNK N   1      24.359  20.158   3.409  0.00  0.00     0.143 A 
HETATM   30  O   UNK N   1      24.818  19.788   4.580  0.00  0.00    -0.317 OA
ENDBRANCH   2  26
TORSDOF 6
ENDMDL
MODEL 9
REMARK VINA RESULT:      -6.9      3.837      5.445
REMARK  6 active torsions:
REMARK  status: ('A' for Active; 'I' for Inactive)
REMARK    1  A    between atoms: N_3  and  C_23 
REMARK    2  A    between atoms: C_6  and  N_7 
REMARK    3  A    between atoms: N_7  and  C_8 
REMARK       I    between atoms: N_7  and  C_16 
REMARK    4  A    between atoms: C_16  and  C_18 
REMARK    5  A    between atoms: C_23  and  C_24 
REMARK    6  A    between atoms: C_24  and  C_25 
ROOT
HETATM    1  N   UNK N   1      35.133  13.430   9.856  0.00  0.00    -0.292 N 
HETATM    2  C   UNK N   1      35.603  12.364   9.112  0.00  0.00     0.283 C 
HETATM    3  O   UNK N   1      36.253  11.475   9.643  0.00  0.00    -0.265 OA
ENDROOT
BRANCH   1   4
HETATM    4  C   UNK N   1      34.317  14.435   9.193  0.00  0.00     0.098 C 
HETATM    5  C   UNK N   1      35.087  15.712   8.833  0.00  0.00     0.056 C 
HETATM    6  C   UNK N   1      34.283  16.995   9.110  0.00  0.00     0.274 C 
HETATM    7  N   UNK N   1      32.842  16.888   8.798  0.00  0.00     0.088 N 
HETATM    8  C   UNK N   1      32.190  15.595   9.041  0.00  0.00     0.274 C 
HETATM    9  C   UNK N   1      33.019  14.695   9.937  0.00  0.00     0.056 C 
BRANCH   7  10
HETATM   10  C   UNK N   1      32.471  17.417   7.486  0.00  0.00     0.277 C 
BRANCH  10  11
HETATM   11  C   UNK N   1      33.659  17.739   6.579  0.00  0.00     0.068 C 
BRANCH  11  12
HETATM   12  C   UNK N   1      33.475  17.008   5.292  0.00  0.00    -0.057 A 
HETATM   13  C   UNK N   1      32.738  17.585   4.253  0.00  0.00     0.007 A 
HETATM   14  C   UNK N   1      32.601  16.913   3.034  0.00  0.00     0.001 A 
HETATM   15  C   UNK N   1      33.205  15.664   2.852  0.00  0.00     0.000 A 
HETATM   16  C   UNK N   1      33.936  15.082   3.891  0.00  0.00     0.001 A 
HETATM   17  C   UNK N   1      34.069  15.751   5.110  0.00  0.00     0.007 A 
ENDBRANCH  11  12
ENDBRANCH  10  11
ENDBRANCH   7  10
ENDBRANCH   1   4
BRANCH   1  18
HETATM   18  C   UNK N   1      35.384  13.568  11.277  0.00  0.00     0.126 A 
HETATM   19  N   UNK N   1      34.808  12.698  12.157  0.00  0.00    -0.350 N 
HETATM   20  C   UNK N   1      35.015  12.790  13.496  0.00  0.00     0.106 A 
ATOM     21  HN  UNK N   1      34.205  11.958  11.798  1.00  0.00     0.166 HD
HETATM   22  C   UNK N   1      35.842  13.793  13.995  0.00  0.00     0.104 A 
HETATM   23  N   UNK N   1      36.426  14.667  13.136  0.00  0.00    -0.371 N 
HETATM   24  C   UNK N   1      36.215  14.577  11.797  0.00  0.00     0.136 A 
ATOM     25  HN  UNK N   1      37.033  15.400  13.502  1.00  0.00     0.164 HD
ENDBRANCH   1  18
BRANCH   2  26
HETATM   26  C   UNK N   1      35.342  12.238   7.647  0.00  0.00     0.143 A 
HETATM   27  C   UNK N   1      36.231  12.596   6.655  0.00  0.00     0.045 A 
HETATM   28  C   UNK N   1      35.586  12.323   5.463  0.00  0.00     0.027 A 
HETATM   29  C   UNK N   1      34.342  11.820   5.799  0.00  0.00     0.143 A 
HETATM   30  O   UNK N   1      34.237  11.784   7.106  0.00  0.00    -0.317 OA
ENDBRANCH   2  26
TORSDOF 6
ENDMDL
