MODEL 1
REMARK VINA RESULT:      -6.5      0.000      0.000
REMARK  5 active torsions:
REMARK  status: ('A' for Active; 'I' for Inactive)
REMARK    1  A    between atoms: N_2  and  C_14 
REMARK    2  A    between atoms: C_3  and  C_7 
REMARK    3  A    between atoms: C_3  and  C_8 
REMARK    4  A    between atoms: C_7  and  C_9 
REMARK    5  A    between atoms: C_9  and  C_14 
ROOT
HETATM    1  S   UNK N   1      29.666  17.373   7.941  0.00  0.00    -0.135 SA
HETATM    2  C   UNK N   1      29.288  17.374   6.141  0.00  0.00     0.064 C 
HETATM    3  C   UNK N   1      31.451  17.038   7.734  0.00  0.00     0.030 C 
HETATM    4  C   UNK N   1      30.637  17.317   5.454  0.00  0.00    -0.027 A 
HETATM    5  C   UNK N   1      31.732  17.125   6.280  0.00  0.00    -0.032 A 
HETATM    6  C   UNK N   1      31.772  15.648   8.253  0.00  0.00     0.032 C 
HETATM    7  C   UNK N   1      32.251  18.083   8.490  0.00  0.00     0.032 C 
HETATM    8  C   UNK N   1      30.817  17.383   4.064  0.00  0.00     0.010 A 
HETATM    9  C   UNK N   1      33.019  16.981   5.736  0.00  0.00     0.009 A 
HETATM   10  C   UNK N   1      32.097  17.258   3.515  0.00  0.00     0.001 A 
HETATM   11  C   UNK N   1      33.198  17.052   4.351  0.00  0.00     0.001 A 
ENDROOT
BRANCH   2  12
HETATM   12  C   UNK N   1      28.474  16.089   5.866  0.00  0.00     0.032 C 
BRANCH  12  13
HETATM   13  C   UNK N   1      27.101  15.962   6.527  0.00  0.00     0.032 C 
BRANCH  13  14
HETATM   14  C   UNK N   1      25.950  15.919   5.533  0.00  0.00     0.269 C 
BRANCH  14  15
HETATM   15  N   UNK N   1      25.102  17.091   5.700  0.00  0.00     0.079 N 
HETATM   16  C   UNK N   1      24.584  17.428   4.388  0.00  0.00     0.306 C 
HETATM   17  H   UNK N   1      24.273  16.841   6.289  0.00  0.00     0.315 HD
ENDBRANCH  14  15
ENDBRANCH  13  14
ENDBRANCH  12  13
ENDBRANCH   2  12
BRANCH   2  18
HETATM   18  C   UNK N   1      28.441  18.602   5.825  0.00  0.00    -0.035 A 
HETATM   19  C   UNK N   1      28.049  18.931   4.515  0.00  0.00     0.009 A 
HETATM   20  C   UNK N   1      27.238  20.047   4.277  0.00  0.00     0.001 A 
HETATM   21  C   UNK N   1      26.813  20.847   5.340  0.00  0.00     0.000 A 
HETATM   22  C   UNK N   1      27.201  20.537   6.644  0.00  0.00     0.001 A 
HETATM   23  C   UNK N   1      28.006  19.421   6.885  0.00  0.00     0.009 A 
ENDBRANCH   2  18
TORSDOF 5
ENDMDL
MODEL 2
REMARK VINA RESULT:      -6.3     11.605     14.371
REMARK  5 active torsions:
REMARK  status: ('A' for Active; 'I' for Inactive)
REMARK    1  A    between atoms: N_2  and  C_14 
REMARK    2  A    between atoms: C_3  and  C_7 
REMARK    3  A    between atoms: C_3  and  C_8 
REMARK    4  A    between atoms: C_7  and  C_9 
REMARK    5  A    between atoms: C_9  and  C_14 
ROOT
HETATM    1  S   UNK N   1      28.565  25.059  -6.603  0.00  0.00    -0.135 SA
HETATM    2  C   UNK N   1      27.600  24.850  -5.051  0.00  0.00     0.064 C 
HETATM    3  C   UNK N   1      28.044  26.787  -6.888  0.00  0.00     0.030 C 
HETATM    4  C   UNK N   1      27.078  26.234  -4.721  0.00  0.00    -0.027 A 
HETATM    5  C   UNK N   1      27.295  27.209  -5.680  0.00  0.00    -0.032 A 
HETATM    6  C   UNK N   1      27.151  26.856  -8.115  0.00  0.00     0.032 C 
HETATM    7  C   UNK N   1      29.272  27.659  -7.080  0.00  0.00     0.032 C 
HETATM    8  C   UNK N   1      26.354  26.546  -3.561  0.00  0.00     0.010 A 
HETATM    9  C   UNK N   1      26.784  28.506  -5.505  0.00  0.00     0.009 A 
HETATM   10  C   UNK N   1      25.856  27.839  -3.371  0.00  0.00     0.001 A 
HETATM   11  C   UNK N   1      26.067  28.818  -4.347  0.00  0.00     0.001 A 
ENDROOT
BRANCH   2  12
HETATM   12  C   UNK N   1      26.439  23.887  -5.386  0.00  0.00     0.032 C 
BRANCH  12  13
HETATM   13  C   UNK N   1      26.542  23.069  -6.674  0.00  0.00     0.032 C 
BRANCH  13  14
HETATM   14  C   UNK N   1      25.524  23.469  -7.731  0.00  0.00     0.269 C 
BRANCH  14  15
HETATM   15  N   UNK N   1      24.570  22.388  -7.939  0.00  0.00     0.079 N 
HETATM   16  C   UNK N   1      25.318  21.147  -7.882  0.00  0.00     0.306 C 
HETATM   17  H   UNK N   1      23.893  22.362  -7.140  0.00  0.00     0.315 HD
ENDBRANCH  14  15
ENDBRANCH  13  14
ENDBRANCH  12  13
ENDBRANCH   2  12
BRANCH   2  18
HETATM   18  C   UNK N   1      28.508  24.222  -3.998  0.00  0.00    -0.035 A 
HETATM   19  C   UNK N   1      28.002  23.565  -2.863  0.00  0.00     0.009 A 
HETATM   20  C   UNK N   1      28.873  22.969  -1.943  0.00  0.00     0.001 A 
HETATM   21  C   UNK N   1      30.254  23.025  -2.143  0.00  0.00     0.000 A 
HETATM   22  C   UNK N   1      30.770  23.682  -3.261  0.00  0.00     0.001 A 
HETATM   23  C   UNK N   1      29.903  24.273  -4.183  0.00  0.00     0.009 A 
ENDBRANCH   2  18
TORSDOF 5
ENDMDL
MODEL 3
REMARK VINA RESULT:      -6.2      2.483      4.895
REMARK  5 active torsions:
REMARK  status: ('A' for Active; 'I' for Inactive)
REMARK    1  A    between atoms: N_2  and  C_14 
REMARK    2  A    between atoms: C_3  and  C_7 
REMARK    3  A    between atoms: C_3  and  C_8 
REMARK    4  A    between atoms: C_7  and  C_9 
REMARK    5  A    between atoms: C_9  and  C_14 
ROOT
HETATM    1  S   UNK N   1      30.010  17.092   4.536  0.00  0.00    -0.135 SA
HETATM    2  C   UNK N   1      28.812  17.349   5.907  0.00  0.00     0.064 C 
HETATM    3  C   UNK N   1      29.461  15.392   4.155  0.00  0.00     0.030 C 
HETATM    4  C   UNK N   1      27.890  16.148   5.858  0.00  0.00    -0.027 A 
HETATM    5  C   UNK N   1      28.247  15.146   4.971  0.00  0.00    -0.032 A 
HETATM    6  C   UNK N   1      30.555  14.407   4.526  0.00  0.00     0.032 C 
HETATM    7  C   UNK N   1      29.133  15.286   2.677  0.00  0.00     0.032 C 
HETATM    8  C   UNK N   1      26.769  15.980   6.684  0.00  0.00     0.010 A 
HETATM    9  C   UNK N   1      27.502  13.956   4.904  0.00  0.00     0.009 A 
HETATM   10  C   UNK N   1      26.012  14.806   6.612  0.00  0.00     0.001 A 
HETATM   11  C   UNK N   1      26.382  13.792   5.724  0.00  0.00     0.001 A 
ENDROOT
BRANCH   2  12
HETATM   12  C   UNK N   1      29.638  17.358   7.213  0.00  0.00     0.032 C 
BRANCH  12  13
HETATM   13  C   UNK N   1      31.146  17.128   7.101  0.00  0.00     0.032 C 
BRANCH  13  14
HETATM   14  C   UNK N   1      31.739  16.390   8.292  0.00  0.00     0.269 C 
BRANCH  14  15
HETATM   15  N   UNK N   1      32.641  17.269   9.025  0.00  0.00     0.079 N 
HETATM   16  C   UNK N   1      33.359  18.054   8.040  0.00  0.00     0.306 C 
HETATM   17  H   UNK N   1      32.081  17.948   9.593  0.00  0.00     0.315 HD
ENDBRANCH  14  15
ENDBRANCH  13  14
ENDBRANCH  12  13
ENDBRANCH   2  12
BRANCH   2  18
HETATM   18  C   UNK N   1      28.136  18.704   5.713  0.00  0.00    -0.035 A 
HETATM   19  C   UNK N   1      27.722  19.166   4.451  0.00  0.00     0.009 A 
HETATM   20  C   UNK N   1      27.071  20.398   4.326  0.00  0.00     0.001 A 
HETATM   21  C   UNK N   1      26.829  21.184   5.456  0.00  0.00     0.000 A 
HETATM   22  C   UNK N   1      27.243  20.741   6.713  0.00  0.00     0.001 A 
HETATM   23  C   UNK N   1      27.888  19.509   6.841  0.00  0.00     0.009 A 
ENDBRANCH   2  18
TORSDOF 5
ENDMDL
MODEL 4
REMARK VINA RESULT:      -5.9     14.508     18.117
REMARK  5 active torsions:
REMARK  status: ('A' for Active; 'I' for Inactive)
REMARK    1  A    between atoms: N_2  and  C_14 
REMARK    2  A    between atoms: C_3  and  C_7 
REMARK    3  A    between atoms: C_3  and  C_8 
REMARK    4  A    between atoms: C_7  and  C_9 
REMARK    5  A    between atoms: C_9  and  C_14 
ROOT
HETATM    1  S   UNK N   1      36.251   8.784  19.078  0.00  0.00    -0.135 SA
HETATM    2  C   UNK N   1      35.620  10.272  19.957  0.00  0.00     0.064 C 
HETATM    3  C   UNK N   1      35.097   7.618  19.881  0.00  0.00     0.030 C 
HETATM    4  C   UNK N   1      34.380   9.802  20.690  0.00  0.00    -0.027 A 
HETATM    5  C   UNK N   1      34.137   8.439  20.659  0.00  0.00    -0.032 A 
HETATM    6  C   UNK N   1      35.868   6.690  20.803  0.00  0.00     0.032 C 
HETATM    7  C   UNK N   1      34.367   6.818  18.817  0.00  0.00     0.032 C 
HETATM    8  C   UNK N   1      33.533  10.644  21.425  0.00  0.00     0.010 A 
HETATM    9  C   UNK N   1      33.057   7.891  21.371  0.00  0.00     0.009 A 
HETATM   10  C   UNK N   1      32.445  10.109  22.124  0.00  0.00     0.001 A 
HETATM   11  C   UNK N   1      32.210   8.731  22.100  0.00  0.00     0.001 A 
ENDROOT
BRANCH   2  12
HETATM   12  C   UNK N   1      36.724  10.691  20.953  0.00  0.00     0.032 C 
BRANCH  12  13
HETATM   13  C   UNK N   1      37.976   9.818  21.036  0.00  0.00     0.032 C 
BRANCH  13  14
HETATM   14  C   UNK N   1      38.859  10.133  22.234  0.00  0.00     0.269 C 
BRANCH  14  15
HETATM   15  N   UNK N   1      38.346  11.300  22.939  0.00  0.00     0.079 N 
HETATM   16  C   UNK N   1      39.497  12.057  23.395  0.00  0.00     0.306 C 
HETATM   17  H   UNK N   1      37.836  11.918  22.265  0.00  0.00     0.315 HD
ENDBRANCH  14  15
ENDBRANCH  13  14
ENDBRANCH  12  13
ENDBRANCH   2  12
BRANCH   2  18
HETATM   18  C   UNK N   1      35.396  11.381  18.933  0.00  0.00    -0.035 A 
HETATM   19  C   UNK N   1      35.329  12.738  19.293  0.00  0.00     0.009 A 
HETATM   20  C   UNK N   1      35.162  13.724  18.314  0.00  0.00     0.001 A 
HETATM   21  C   UNK N   1      35.057  13.367  16.968  0.00  0.00     0.000 A 
HETATM   22  C   UNK N   1      35.114  12.023  16.596  0.00  0.00     0.001 A 
HETATM   23  C   UNK N   1      35.285  11.038  17.571  0.00  0.00     0.009 A 
ENDBRANCH   2  18
TORSDOF 5
ENDMDL
MODEL 5
REMARK VINA RESULT:      -5.9      2.392      5.262
REMARK  5 active torsions:
REMARK  status: ('A' for Active; 'I' for Inactive)
REMARK    1  A    between atoms: N_2  and  C_14 
REMARK    2  A    between atoms: C_3  and  C_7 
REMARK    3  A    between atoms: C_3  and  C_8 
REMARK    4  A    between atoms: C_7  and  C_9 
REMARK    5  A    between atoms: C_9  and  C_14 
ROOT
HETATM    1  S   UNK N   1      28.389  15.856   5.691  0.00  0.00    -0.135 SA
HETATM    2  C   UNK N   1      27.838  16.821   4.226  0.00  0.00     0.064 C 
HETATM    3  C   UNK N   1      28.552  17.306   6.791  0.00  0.00     0.030 C 
HETATM    4  C   UNK N   1      27.607  18.227   4.742  0.00  0.00    -0.027 A 
HETATM    5  C   UNK N   1      27.996  18.464   6.050  0.00  0.00    -0.032 A 
HETATM    6  C   UNK N   1      30.017  17.538   7.115  0.00  0.00     0.032 C 
HETATM    7  C   UNK N   1      27.761  17.064   8.064  0.00  0.00     0.032 C 
HETATM    8  C   UNK N   1      27.097  19.277   3.966  0.00  0.00     0.010 A 
HETATM    9  C   UNK N   1      27.896  19.753   6.600  0.00  0.00     0.009 A 
HETATM   10  C   UNK N   1      26.978  20.560   4.511  0.00  0.00     0.001 A 
HETATM   11  C   UNK N   1      27.382  20.798   5.828  0.00  0.00     0.001 A 
ENDROOT
BRANCH   2  12
HETATM   12  C   UNK N   1      29.009  16.789   3.217  0.00  0.00     0.032 C 
BRANCH  12  13
HETATM   13  C   UNK N   1      30.278  16.039   3.624  0.00  0.00     0.032 C 
BRANCH  13  14
HETATM   14  C   UNK N   1      31.553  16.656   3.071  0.00  0.00     0.269 C 
BRANCH  14  15
HETATM   15  N   UNK N   1      31.894  17.856   3.824  0.00  0.00     0.079 N 
HETATM   16  C   UNK N   1      32.938  17.485   4.760  0.00  0.00     0.306 C 
HETATM   17  H   UNK N   1      32.315  18.565   3.178  0.00  0.00     0.315 HD
ENDBRANCH  14  15
ENDBRANCH  13  14
ENDBRANCH  12  13
ENDBRANCH   2  12
BRANCH   2  18
HETATM   18  C   UNK N   1      26.616  16.134   3.624  0.00  0.00    -0.035 A 
HETATM   19  C   UNK N   1      25.410  15.985   4.330  0.00  0.00     0.009 A 
HETATM   20  C   UNK N   1      24.302  15.382   3.723  0.00  0.00     0.001 A 
HETATM   21  C   UNK N   1      24.387  14.919   2.408  0.00  0.00     0.000 A 
HETATM   22  C   UNK N   1      25.581  15.052   1.698  0.00  0.00     0.001 A 
HETATM   23  C   UNK N   1      26.686  15.658   2.300  0.00  0.00     0.009 A 
ENDBRANCH   2  18
TORSDOF 5
ENDMDL
MODEL 6
REMARK VINA RESULT:      -5.9      1.931      3.911
REMARK  5 active torsions:
REMARK  status: ('A' for Active; 'I' for Inactive)
REMARK    1  A    between atoms: N_2  and  C_14 
REMARK    2  A    between atoms: C_3  and  C_7 
REMARK    3  A    between atoms: C_3  and  C_8 
REMARK    4  A    between atoms: C_7  and  C_9 
REMARK    5  A    between atoms: C_9  and  C_14 
ROOT
HETATM    1  S   UNK N   1      27.908  16.124   5.181  0.00  0.00    -0.135 SA
HETATM    2  C   UNK N   1      29.159  17.451   5.413  0.00  0.00     0.064 C 
HETATM    3  C   UNK N   1      28.879  15.199   3.940  0.00  0.00     0.030 C 
HETATM    4  C   UNK N   1      30.381  16.983   4.649  0.00  0.00    -0.027 A 
HETATM    5  C   UNK N   1      30.215  15.840   3.884  0.00  0.00    -0.032 A 
HETATM    6  C   UNK N   1      28.194  15.287   2.587  0.00  0.00     0.032 C 
HETATM    7  C   UNK N   1      29.006  13.751   4.375  0.00  0.00     0.032 C 
HETATM    8  C   UNK N   1      31.607  17.662   4.630  0.00  0.00     0.010 A 
HETATM    9  C   UNK N   1      31.263  15.365   3.077  0.00  0.00     0.009 A 
HETATM   10  C   UNK N   1      32.661  17.187   3.843  0.00  0.00     0.001 A 
HETATM   11  C   UNK N   1      32.487  16.040   3.063  0.00  0.00     0.001 A 
ENDROOT
BRANCH   2  12
HETATM   12  C   UNK N   1      28.565  18.728   4.775  0.00  0.00     0.032 C 
BRANCH  12  13
HETATM   13  C   UNK N   1      27.097  18.693   4.351  0.00  0.00     0.032 C 
BRANCH  13  14
HETATM   14  C   UNK N   1      26.366  20.008   4.580  0.00  0.00     0.269 C 
BRANCH  14  15
HETATM   15  N   UNK N   1      25.944  20.107   5.971  0.00  0.00     0.079 N 
HETATM   16  C   UNK N   1      26.546  21.311   6.510  0.00  0.00     0.306 C 
HETATM   17  H   UNK N   1      24.907  20.252   6.011  0.00  0.00     0.315 HD
ENDBRANCH  14  15
ENDBRANCH  13  14
ENDBRANCH  12  13
ENDBRANCH   2  12
BRANCH   2  18
HETATM   18  C   UNK N   1      29.364  17.667   6.910  0.00  0.00    -0.035 A 
HETATM   19  C   UNK N   1      30.615  17.507   7.531  0.00  0.00     0.009 A 
HETATM   20  C   UNK N   1      30.764  17.755   8.901  0.00  0.00     0.001 A 
HETATM   21  C   UNK N   1      29.666  18.160   9.665  0.00  0.00     0.000 A 
HETATM   22  C   UNK N   1      28.417  18.314   9.063  0.00  0.00     0.001 A 
HETATM   23  C   UNK N   1      28.267  18.073   7.696  0.00  0.00     0.009 A 
ENDBRANCH   2  18
TORSDOF 5
ENDMDL
MODEL 7
REMARK VINA RESULT:      -5.8     14.161     17.207
REMARK  5 active torsions:
REMARK  status: ('A' for Active; 'I' for Inactive)
REMARK    1  A    between atoms: N_2  and  C_14 
REMARK    2  A    between atoms: C_3  and  C_7 
REMARK    3  A    between atoms: C_3  and  C_8 
REMARK    4  A    between atoms: C_7  and  C_9 
REMARK    5  A    between atoms: C_9  and  C_14 
ROOT
HETATM    1  S   UNK N   1      35.777   8.868  18.070  0.00  0.00    -0.135 SA
HETATM    2  C   UNK N   1      35.346  10.008  19.447  0.00  0.00     0.064 C 
HETATM    3  C   UNK N   1      35.696  10.146  16.767  0.00  0.00     0.030 C 
HETATM    4  C   UNK N   1      35.365  11.394  18.835  0.00  0.00    -0.027 A 
HETATM    5  C   UNK N   1      35.525  11.447  17.460  0.00  0.00    -0.032 A 
HETATM    6  C   UNK N   1      34.512   9.873  15.857  0.00  0.00     0.032 C 
HETATM    7  C   UNK N   1      36.988  10.138  15.971  0.00  0.00     0.032 C 
HETATM    8  C   UNK N   1      35.171  12.578  19.560  0.00  0.00     0.010 A 
HETATM    9  C   UNK N   1      35.480  12.678  16.785  0.00  0.00     0.009 A 
HETATM   10  C   UNK N   1      35.142  13.810  18.898  0.00  0.00     0.001 A 
HETATM   11  C   UNK N   1      35.292  13.859  17.509  0.00  0.00     0.001 A 
ENDROOT
BRANCH   2  12
HETATM   12  C   UNK N   1      33.918   9.625  19.900  0.00  0.00     0.032 C 
BRANCH  12  13
HETATM   13  C   UNK N   1      33.318   8.334  19.343  0.00  0.00     0.032 C 
BRANCH  13  14
HETATM   14  C   UNK N   1      32.949   7.321  20.417  0.00  0.00     0.269 C 
BRANCH  14  15
HETATM   15  N   UNK N   1      31.712   7.721  21.075  0.00  0.00     0.079 N 
HETATM   16  C   UNK N   1      30.686   7.768  20.051  0.00  0.00     0.306 C 
HETATM   17  H   UNK N   1      31.420   6.976  21.751  0.00  0.00     0.315 HD
ENDBRANCH  14  15
ENDBRANCH  13  14
ENDBRANCH  12  13
ENDBRANCH   2  12
BRANCH   2  18
HETATM   18  C   UNK N   1      36.331   9.781  20.590  0.00  0.00    -0.035 A 
HETATM   19  C   UNK N   1      37.723   9.810  20.402  0.00  0.00     0.009 A 
HETATM   20  C   UNK N   1      38.589   9.635  21.488  0.00  0.00     0.001 A 
HETATM   21  C   UNK N   1      38.075   9.427  22.771  0.00  0.00     0.000 A 
HETATM   22  C   UNK N   1      36.695   9.387  22.970  0.00  0.00     0.001 A 
HETATM   23  C   UNK N   1      35.829   9.566  21.889  0.00  0.00     0.009 A 
ENDBRANCH   2  18
TORSDOF 5
ENDMDL
MODEL 8
REMARK VINA RESULT:      -5.8     12.190     14.845
REMARK  5 active torsions:
REMARK  status: ('A' for Active; 'I' for Inactive)
REMARK    1  A    between atoms: N_2  and  C_14 
REMARK    2  A    between atoms: C_3  and  C_7 
REMARK    3  A    between atoms: C_3  and  C_8 
REMARK    4  A    between atoms: C_7  and  C_9 
REMARK    5  A    between atoms: C_9  and  C_14 
ROOT
HETATM    1  S   UNK N   1      26.069  24.576  -4.821  0.00  0.00    -0.135 SA
HETATM    2  C   UNK N   1      27.359  24.065  -6.028  0.00  0.00     0.064 C 
HETATM    3  C   UNK N   1      26.187  26.359  -5.200  0.00  0.00     0.030 C 
HETATM    4  C   UNK N   1      27.673  25.314  -6.825  0.00  0.00    -0.027 A 
HETATM    5  C   UNK N   1      27.082  26.484  -6.377  0.00  0.00    -0.032 A 
HETATM    6  C   UNK N   1      26.774  27.096  -4.009  0.00  0.00     0.032 C 
HETATM    7  C   UNK N   1      24.806  26.898  -5.527  0.00  0.00     0.032 C 
HETATM    8  C   UNK N   1      28.553  25.352  -7.916  0.00  0.00     0.010 A 
HETATM    9  C   UNK N   1      27.368  27.710  -6.999  0.00  0.00     0.009 A 
HETATM   10  C   UNK N   1      28.831  26.567  -8.552  0.00  0.00     0.001 A 
HETATM   11  C   UNK N   1      28.241  27.747  -8.090  0.00  0.00     0.001 A 
ENDROOT
BRANCH   2  12
HETATM   12  C   UNK N   1      28.583  23.619  -5.195  0.00  0.00     0.032 C 
BRANCH  12  13
HETATM   13  C   UNK N   1      28.603  23.984  -3.710  0.00  0.00     0.032 C 
BRANCH  13  14
HETATM   14  C   UNK N   1      29.984  23.882  -3.078  0.00  0.00     0.269 C 
BRANCH  14  15
HETATM   15  N   UNK N   1      30.950  24.636  -3.866  0.00  0.00     0.079 N 
HETATM   16  C   UNK N   1      30.788  26.033  -3.508  0.00  0.00     0.306 C 
HETATM   17  H   UNK N   1      31.920  24.368  -3.578  0.00  0.00     0.315 HD
ENDBRANCH  14  15
ENDBRANCH  13  14
ENDBRANCH  12  13
ENDBRANCH   2  12
BRANCH   2  18
HETATM   18  C   UNK N   1      26.826  22.886  -6.837  0.00  0.00    -0.035 A 
HETATM   19  C   UNK N   1      27.672  22.005  -7.532  0.00  0.00     0.009 A 
HETATM   20  C   UNK N   1      27.140  20.913  -8.229  0.00  0.00     0.001 A 
HETATM   21  C   UNK N   1      25.761  20.693  -8.243  0.00  0.00     0.000 A 
HETATM   22  C   UNK N   1      24.909  21.565  -7.565  0.00  0.00     0.001 A 
HETATM   23  C   UNK N   1      25.437  22.651  -6.864  0.00  0.00     0.009 A 
ENDBRANCH   2  18
TORSDOF 5
ENDMDL
MODEL 9
REMARK VINA RESULT:      -5.8      2.261      5.667
REMARK  5 active torsions:
REMARK  status: ('A' for Active; 'I' for Inactive)
REMARK    1  A    between atoms: N_2  and  C_14 
REMARK    2  A    between atoms: C_3  and  C_7 
REMARK    3  A    between atoms: C_3  and  C_8 
REMARK    4  A    between atoms: C_7  and  C_9 
REMARK    5  A    between atoms: C_9  and  C_14 
ROOT
HETATM    1  S   UNK N   1      27.579  15.449   4.915  0.00  0.00    -0.135 SA
HETATM    2  C   UNK N   1      28.245  16.973   5.701  0.00  0.00     0.064 C 
HETATM    3  C   UNK N   1      26.311  16.316   3.925  0.00  0.00     0.030 C 
HETATM    4  C   UNK N   1      27.568  18.119   4.978  0.00  0.00    -0.027 A 
HETATM    5  C   UNK N   1      26.567  17.768   4.088  0.00  0.00    -0.032 A 
HETATM    6  C   UNK N   1      24.929  15.961   4.443  0.00  0.00     0.032 C 
HETATM    7  C   UNK N   1      26.448  15.916   2.467  0.00  0.00     0.032 C 
HETATM    8  C   UNK N   1      27.852  19.473   5.208  0.00  0.00     0.010 A 
HETATM    9  C   UNK N   1      25.824  18.759   3.425  0.00  0.00     0.009 A 
HETATM   10  C   UNK N   1      27.129  20.466   4.539  0.00  0.00     0.001 A 
HETATM   11  C   UNK N   1      26.111  20.108   3.651  0.00  0.00     0.001 A 
ENDROOT
BRANCH   2  12
HETATM   12  C   UNK N   1      27.814  16.923   7.184  0.00  0.00     0.032 C 
BRANCH  12  13
HETATM   13  C   UNK N   1      28.330  18.024   8.111  0.00  0.00     0.032 C 
BRANCH  13  14
HETATM   14  C   UNK N   1      28.441  17.591   9.566  0.00  0.00     0.269 C 
BRANCH  14  15
HETATM   15  N   UNK N   1      29.730  17.997  10.110  0.00  0.00     0.079 N 
HETATM   16  C   UNK N   1      30.369  18.828   9.108  0.00  0.00     0.306 C 
HETATM   17  H   UNK N   1      29.579  18.608  10.947  0.00  0.00     0.315 HD
ENDBRANCH  14  15
ENDBRANCH  13  14
ENDBRANCH  12  13
ENDBRANCH   2  12
BRANCH   2  18
HETATM   18  C   UNK N   1      29.768  16.942   5.602  0.00  0.00    -0.035 A 
HETATM   19  C   UNK N   1      30.569  16.236   6.516  0.00  0.00     0.009 A 
HETATM   20  C   UNK N   1      31.960  16.203   6.362  0.00  0.00     0.001 A 
HETATM   21  C   UNK N   1      32.566  16.878   5.299  0.00  0.00     0.000 A 
HETATM   22  C   UNK N   1      31.783  17.591   4.390  0.00  0.00     0.001 A 
HETATM   23  C   UNK N   1      30.395  17.620   4.538  0.00  0.00     0.009 A 
ENDBRANCH   2  18
TORSDOF 5
ENDMDL
