REMARK  7 active torsions:
REMARK  status: ('A' for Active; 'I' for Inactive)
REMARK    1  A    between atoms: C_12  and  C_2 
REMARK    2  A    between atoms: C_12  and  C_8 
REMARK    3  A    between atoms: O_17  and  C_9 
REMARK    4  A    between atoms: O_18  and  C_10 
REMARK    5  A    between atoms: C_28  and  C_27 
REMARK    6  A    between atoms: C_29  and  C_27 
REMARK    7  A    between atoms: N_30  and  C_28 
ROOT
HETATM    1  C   UNK N   1       5.569  -3.486  -0.500  0.00  0.00     0.000 C 
HETATM    2  C   UNK N   1       6.841  -2.936   0.140  0.00  0.00     0.000 C 
HETATM    3  C   UNK N   1       4.364  -2.635  -0.107  0.00  0.00     0.000 C 
HETATM    4  C   UNK N   1       7.055  -1.481  -0.270  0.00  0.00     0.005 C 
HETATM    5  C   UNK N   1       4.586  -1.185  -0.529  0.00  0.00     0.005 C 
HETATM    6  C   UNK N   1       5.850  -0.640   0.140  0.00  0.00    -0.013 C 
ENDROOT
BRANCH   6   7
HETATM    7  C   UNK N   1       6.106   0.821  -0.225  0.00  0.00     0.029 C 
BRANCH   7   8
HETATM    8  C   UNK N   1       5.007   1.773   0.244  0.00  0.00     0.072 C 
HETATM    9  C   UNK N   1       4.811   1.643   1.752  0.00  0.00     0.031 C 
BRANCH   8  10
HETATM   10  N   UNK N   1       5.399   3.139  -0.098  0.00  0.00    -0.422 N 
HETATM   11  C   UNK N   1       4.293   4.055   0.158  0.00  0.00     0.140 C 
HETATM   12  H   UNK N   1       6.313   3.412  -0.462  0.00  0.00     0.153 HD
ENDBRANCH   8  10
ENDBRANCH   7   8
ENDBRANCH   6   7
TORSDOF 7
