MODEL 1
REMARK VINA RESULT:      -6.5      0.000      0.000
REMARK  2 active torsions:
REMARK  status: ('A' for Active; 'I' for Inactive)
REMARK    1  A    between atoms: C_1  and  C_6 
REMARK    2  A    between atoms: C_7  and  N_8 
ROOT
HETATM    1  C   UNK N   1      27.068  25.411  -4.086  0.00  0.00     0.054 C 
HETATM    2  C   UNK N   1      26.662  25.256  -5.550  0.00  0.00    -0.043 A 
HETATM    3  C   UNK N   1      25.866  26.258  -6.164  0.00  0.00    -0.049 A 
HETATM    4  C   UNK N   1      27.155  26.884  -3.701  0.00  0.00     0.039 C 
HETATM    5  C   UNK N   1      25.446  27.506  -5.433  0.00  0.00     0.063 C 
HETATM    6  C   UNK N   1      25.788  27.508  -3.941  0.00  0.00     0.081 C 
HETATM    7  C   UNK N   1      27.025  24.127  -6.297  0.00  0.00     0.008 A 
HETATM    8  C   UNK N   1      25.482  26.117  -7.502  0.00  0.00     0.007 A 
HETATM    9  C   UNK N   1      26.634  23.996  -7.632  0.00  0.00     0.001 A 
HETATM   10  C   UNK N   1      25.863  24.992  -8.234  0.00  0.00     0.001 A 
ENDROOT
BRANCH   1  11
HETATM   11  C   UNK N   1      28.237  24.624  -3.524  0.00  0.00    -0.050 A 
HETATM   12  C   UNK N   1      28.074  23.541  -2.646  0.00  0.00     0.008 A 
HETATM   13  C   UNK N   1      29.186  22.858  -2.143  0.00  0.00     0.001 A 
HETATM   14  C   UNK N   1      30.474  23.247  -2.521  0.00  0.00     0.000 A 
HETATM   15  C   UNK N   1      30.649  24.317  -3.399  0.00  0.00     0.001 A 
HETATM   16  C   UNK N   1      29.538  25.005  -3.894  0.00  0.00     0.008 A 
ENDBRANCH   1  11
BRANCH   6  17
HETATM   17  N   UNK N   1      25.751  28.871  -3.438  0.00  0.00    -0.421 N 
HETATM   18  C   UNK N   1      26.674  29.665  -4.235  0.00  0.00     0.140 C 
HETATM   19  H   UNK N   1      25.180  29.212  -2.665  0.00  0.00     0.153 HD
ENDBRANCH   6  17
TORSDOF 2
ENDMDL
MODEL 2
REMARK VINA RESULT:      -6.4      1.816      3.820
REMARK  2 active torsions:
REMARK  status: ('A' for Active; 'I' for Inactive)
REMARK    1  A    between atoms: C_1  and  C_6 
REMARK    2  A    between atoms: C_7  and  N_8 
ROOT
HETATM    1  C   UNK N   1      27.831  25.012  -4.998  0.00  0.00     0.054 C 
HETATM    2  C   UNK N   1      27.181  26.330  -4.582  0.00  0.00    -0.043 A 
HETATM    3  C   UNK N   1      26.002  26.766  -5.240  0.00  0.00    -0.049 A 
HETATM    4  C   UNK N   1      26.789  24.045  -5.550  0.00  0.00     0.039 C 
HETATM    5  C   UNK N   1      25.331  25.944  -6.310  0.00  0.00     0.063 C 
HETATM    6  C   UNK N   1      26.125  24.712  -6.747  0.00  0.00     0.081 C 
HETATM    7  C   UNK N   1      27.741  27.143  -3.587  0.00  0.00     0.008 A 
HETATM    8  C   UNK N   1      25.408  27.978  -4.871  0.00  0.00     0.007 A 
HETATM    9  C   UNK N   1      27.141  28.352  -3.228  0.00  0.00     0.001 A 
HETATM   10  C   UNK N   1      25.973  28.768  -3.869  0.00  0.00     0.001 A 
ENDROOT
BRANCH   1  11
HETATM   11  C   UNK N   1      28.802  24.306  -4.072  0.00  0.00    -0.050 A 
HETATM   12  C   UNK N   1      30.191  24.304  -4.282  0.00  0.00     0.008 A 
HETATM   13  C   UNK N   1      31.042  23.624  -3.405  0.00  0.00     0.001 A 
HETATM   14  C   UNK N   1      30.514  22.946  -2.304  0.00  0.00     0.000 A 
HETATM   15  C   UNK N   1      29.136  22.946  -2.080  0.00  0.00     0.001 A 
HETATM   16  C   UNK N   1      28.285  23.618  -2.961  0.00  0.00     0.008 A 
ENDBRANCH   1  11
BRANCH   6  17
HETATM   17  N   UNK N   1      25.238  23.781  -7.426  0.00  0.00    -0.421 N 
HETATM   18  C   UNK N   1      25.595  22.436  -7.001  0.00  0.00     0.140 C 
HETATM   19  H   UNK N   1      24.497  24.026  -8.082  0.00  0.00     0.153 HD
ENDBRANCH   6  17
TORSDOF 2
ENDMDL
MODEL 3
REMARK VINA RESULT:      -6.4     10.713     14.304
REMARK  2 active torsions:
REMARK  status: ('A' for Active; 'I' for Inactive)
REMARK    1  A    between atoms: C_1  and  C_6 
REMARK    2  A    between atoms: C_7  and  N_8 
ROOT
HETATM    1  C   UNK N   1      28.848  17.528   5.377  0.00  0.00     0.054 C 
HETATM    2  C   UNK N   1      29.098  17.761   6.866  0.00  0.00    -0.043 A 
HETATM    3  C   UNK N   1      30.333  17.360   7.438  0.00  0.00    -0.049 A 
HETATM    4  C   UNK N   1      30.160  17.540   4.600  0.00  0.00     0.039 C 
HETATM    5  C   UNK N   1      31.439  16.753   6.613  0.00  0.00     0.063 C 
HETATM    6  C   UNK N   1      31.046  16.441   5.167  0.00  0.00     0.081 C 
HETATM    7  C   UNK N   1      28.121  18.330   7.694  0.00  0.00     0.008 A 
HETATM    8  C   UNK N   1      30.565  17.560   8.803  0.00  0.00     0.007 A 
HETATM    9  C   UNK N   1      28.363  18.523   9.057  0.00  0.00     0.001 A 
HETATM   10  C   UNK N   1      29.585  18.140   9.610  0.00  0.00     0.001 A 
ENDROOT
BRANCH   1  11
HETATM   11  C   UNK N   1      27.767  18.303   4.648  0.00  0.00    -0.050 A 
HETATM   12  C   UNK N   1      27.847  19.684   4.411  0.00  0.00     0.008 A 
HETATM   13  C   UNK N   1      26.815  20.354   3.747  0.00  0.00     0.001 A 
HETATM   14  C   UNK N   1      25.695  19.646   3.305  0.00  0.00     0.000 A 
HETATM   15  C   UNK N   1      25.606  18.271   3.527  0.00  0.00     0.001 A 
HETATM   16  C   UNK N   1      26.634  17.604   4.199  0.00  0.00     0.008 A 
ENDBRANCH   1  11
BRANCH   6  17
HETATM   17  N   UNK N   1      32.247  16.284   4.363  0.00  0.00    -0.421 N 
HETATM   18  C   UNK N   1      32.918  17.574   4.310  0.00  0.00     0.140 C 
HETATM   19  H   UNK N   1      32.564  15.424   3.917  0.00  0.00     0.153 HD
ENDBRANCH   6  17
TORSDOF 2
ENDMDL
MODEL 4
REMARK VINA RESULT:      -6.3     22.670     26.328
REMARK  2 active torsions:
REMARK  status: ('A' for Active; 'I' for Inactive)
REMARK    1  A    between atoms: C_1  and  C_6 
REMARK    2  A    between atoms: C_7  and  N_8 
ROOT
HETATM    1  C   UNK N   1      35.137  12.163  15.677  0.00  0.00     0.054 C 
HETATM    2  C   UNK N   1      35.525  10.779  16.194  0.00  0.00    -0.043 A 
HETATM    3  C   UNK N   1      35.319   9.642  15.370  0.00  0.00    -0.049 A 
HETATM    4  C   UNK N   1      35.231  12.218  14.156  0.00  0.00     0.039 C 
HETATM    5  C   UNK N   1      34.773   9.756  13.970  0.00  0.00     0.063 C 
HETATM    6  C   UNK N   1      34.293  11.159  13.594  0.00  0.00     0.081 C 
HETATM    7  C   UNK N   1      36.049  10.597  17.481  0.00  0.00     0.008 A 
HETATM    8  C   UNK N   1      35.663   8.370  15.842  0.00  0.00     0.007 A 
HETATM    9  C   UNK N   1      36.387   9.322  17.942  0.00  0.00     0.001 A 
HETATM   10  C   UNK N   1      36.195   8.209  17.121  0.00  0.00     0.001 A 
ENDROOT
BRANCH   1  11
HETATM   11  C   UNK N   1      35.716  13.412  16.312  0.00  0.00    -0.050 A 
HETATM   12  C   UNK N   1      35.276  13.914  17.547  0.00  0.00     0.008 A 
HETATM   13  C   UNK N   1      35.833  15.080  18.081  0.00  0.00     0.001 A 
HETATM   14  C   UNK N   1      36.844  15.752  17.389  0.00  0.00     0.000 A 
HETATM   15  C   UNK N   1      37.296  15.259  16.164  0.00  0.00     0.001 A 
HETATM   16  C   UNK N   1      36.732  14.099  15.626  0.00  0.00     0.008 A 
ENDBRANCH   1  11
BRANCH   6  17
HETATM   17  N   UNK N   1      34.205  11.268  12.147  0.00  0.00    -0.421 N 
HETATM   18  C   UNK N   1      35.024  12.398  11.735  0.00  0.00     0.140 C 
HETATM   19  H   UNK N   1      33.666  10.661  11.530  0.00  0.00     0.153 HD
ENDBRANCH   6  17
TORSDOF 2
ENDMDL
MODEL 5
REMARK VINA RESULT:      -6.1      2.814      4.330
REMARK  2 active torsions:
REMARK  status: ('A' for Active; 'I' for Inactive)
REMARK    1  A    between atoms: C_1  and  C_6 
REMARK    2  A    between atoms: C_7  and  N_8 
ROOT
HETATM    1  C   UNK N   1      26.243  26.873  -6.510  0.00  0.00     0.054 C 
HETATM    2  C   UNK N   1      27.375  27.671  -7.154  0.00  0.00    -0.043 A 
HETATM    3  C   UNK N   1      27.846  28.851  -6.521  0.00  0.00    -0.049 A 
HETATM    4  C   UNK N   1      26.249  27.050  -4.996  0.00  0.00     0.039 C 
HETATM    5  C   UNK N   1      27.300  29.322  -5.198  0.00  0.00     0.063 C 
HETATM    6  C   UNK N   1      26.086  28.535  -4.702  0.00  0.00     0.081 C 
HETATM    7  C   UNK N   1      27.940  27.288  -8.378  0.00  0.00     0.008 A 
HETATM    8  C   UNK N   1      28.876  29.592  -7.111  0.00  0.00     0.007 A 
HETATM    9  C   UNK N   1      28.966  28.037  -8.959  0.00  0.00     0.001 A 
HETATM   10  C   UNK N   1      29.434  29.188  -8.324  0.00  0.00     0.001 A 
ENDROOT
BRANCH   1  11
HETATM   11  C   UNK N   1      26.006  25.425  -6.896  0.00  0.00    -0.050 A 
HETATM   12  C   UNK N   1      26.236  24.355  -6.016  0.00  0.00     0.008 A 
HETATM   13  C   UNK N   1      26.016  23.037  -6.426  0.00  0.00     0.001 A 
HETATM   14  C   UNK N   1      25.555  22.775  -7.719  0.00  0.00     0.000 A 
HETATM   15  C   UNK N   1      25.316  23.830  -8.601  0.00  0.00     0.001 A 
HETATM   16  C   UNK N   1      25.544  25.147  -8.193  0.00  0.00     0.008 A 
ENDBRANCH   1  11
BRANCH   6  17
HETATM   17  N   UNK N   1      25.914  28.759  -3.276  0.00  0.00    -0.421 N 
HETATM   18  C   UNK N   1      27.205  29.147  -2.728  0.00  0.00     0.140 C 
HETATM   19  H   UNK N   1      25.045  28.662  -2.752  0.00  0.00     0.153 HD
ENDBRANCH   6  17
TORSDOF 2
ENDMDL
MODEL 6
REMARK VINA RESULT:      -6.0     17.253     18.674
REMARK  2 active torsions:
REMARK  status: ('A' for Active; 'I' for Inactive)
REMARK    1  A    between atoms: C_1  and  C_6 
REMARK    2  A    between atoms: C_7  and  N_8 
ROOT
HETATM    1  C   UNK N   1      21.268  13.753   8.914  0.00  0.00     0.054 C 
HETATM    2  C   UNK N   1      21.058  13.253   7.486  0.00  0.00    -0.043 A 
HETATM    3  C   UNK N   1      20.373  14.073   6.552  0.00  0.00    -0.049 A 
HETATM    4  C   UNK N   1      21.334  15.276   8.949  0.00  0.00     0.039 C 
HETATM    5  C   UNK N   1      19.886  15.454   6.905  0.00  0.00     0.063 C 
HETATM    6  C   UNK N   1      20.025  15.811   8.386  0.00  0.00     0.081 C 
HETATM    7  C   UNK N   1      21.494  11.983   7.082  0.00  0.00     0.008 A 
HETATM    8  C   UNK N   1      20.168  13.615   5.245  0.00  0.00     0.007 A 
HETATM    9  C   UNK N   1      21.281  11.537   5.775  0.00  0.00     0.001 A 
HETATM   10  C   UNK N   1      20.620  12.354   4.857  0.00  0.00     0.001 A 
ENDROOT
BRANCH   1  11
HETATM   11  C   UNK N   1      22.333  13.134   9.798  0.00  0.00    -0.050 A 
HETATM   12  C   UNK N   1      23.702  13.180   9.488  0.00  0.00     0.008 A 
HETATM   13  C   UNK N   1      24.643  12.579  10.330  0.00  0.00     0.001 A 
HETATM   14  C   UNK N   1      24.225  11.933  11.496  0.00  0.00     0.000 A 
HETATM   15  C   UNK N   1      22.868  11.887  11.819  0.00  0.00     0.001 A 
HETATM   16  C   UNK N   1      21.927  12.480  10.973  0.00  0.00     0.008 A 
ENDBRANCH   1  11
BRANCH   6  17
HETATM   17  N   UNK N   1      19.950  17.254   8.544  0.00  0.00    -0.421 N 
HETATM   18  C   UNK N   1      18.657  17.571   9.131  0.00  0.00     0.140 C 
HETATM   19  H   UNK N   1      20.674  17.925   8.289  0.00  0.00     0.153 HD
ENDBRANCH   6  17
TORSDOF 2
ENDMDL
MODEL 7
REMARK VINA RESULT:      -6.0     22.260     26.053
REMARK  2 active torsions:
REMARK  status: ('A' for Active; 'I' for Inactive)
REMARK    1  A    between atoms: C_1  and  C_6 
REMARK    2  A    between atoms: C_7  and  N_8 
ROOT
HETATM    1  C   UNK N   1      35.465  11.560  15.228  0.00  0.00     0.054 C 
HETATM    2  C   UNK N   1      36.609  10.671  14.741  0.00  0.00    -0.043 A 
HETATM    3  C   UNK N   1      36.907  10.614  13.355  0.00  0.00    -0.049 A 
HETATM    4  C   UNK N   1      35.266  12.746  14.291  0.00  0.00     0.039 C 
HETATM    5  C   UNK N   1      36.165  11.444  12.341  0.00  0.00     0.063 C 
HETATM    6  C   UNK N   1      34.959  12.197  12.905  0.00  0.00     0.081 C 
HETATM    7  C   UNK N   1      37.351   9.879  15.628  0.00  0.00     0.008 A 
HETATM    8  C   UNK N   1      37.947   9.793  12.902  0.00  0.00     0.007 A 
HETATM    9  C   UNK N   1      38.385   9.062  15.164  0.00  0.00     0.001 A 
HETATM   10  C   UNK N   1      38.683   9.021  13.801  0.00  0.00     0.001 A 
ENDROOT
BRANCH   1  11
HETATM   11  C   UNK N   1      35.386  11.986  16.681  0.00  0.00    -0.050 A 
HETATM   12  C   UNK N   1      35.366  11.068  17.744  0.00  0.00     0.008 A 
HETATM   13  C   UNK N   1      35.276  11.512  19.067  0.00  0.00     0.001 A 
HETATM   14  C   UNK N   1      35.213  12.881  19.341  0.00  0.00     0.000 A 
HETATM   15  C   UNK N   1      35.239  13.804  18.294  0.00  0.00     0.001 A 
HETATM   16  C   UNK N   1      35.321  13.359  16.972  0.00  0.00     0.008 A 
ENDBRANCH   1  11
BRANCH   6  17
HETATM   17  N   UNK N   1      34.592  13.271  11.997  0.00  0.00    -0.421 N 
HETATM   18  C   UNK N   1      35.441  14.414  12.294  0.00  0.00     0.140 C 
HETATM   19  H   UNK N   1      33.868  13.232  11.280  0.00  0.00     0.153 HD
ENDBRANCH   6  17
TORSDOF 2
ENDMDL
MODEL 8
REMARK VINA RESULT:      -5.9     12.864     16.084
REMARK  2 active torsions:
REMARK  status: ('A' for Active; 'I' for Inactive)
REMARK    1  A    between atoms: C_1  and  C_6 
REMARK    2  A    between atoms: C_7  and  N_8 
ROOT
HETATM    1  C   UNK N   1      32.006  16.982   7.442  0.00  0.00     0.054 C 
HETATM    2  C   UNK N   1      30.641  17.530   7.853  0.00  0.00    -0.043 A 
HETATM    3  C   UNK N   1      29.585  17.559   6.905  0.00  0.00    -0.049 A 
HETATM    4  C   UNK N   1      31.861  15.942   6.337  0.00  0.00     0.039 C 
HETATM    5  C   UNK N   1      29.748  17.017   5.509  0.00  0.00     0.063 C 
HETATM    6  C   UNK N   1      31.180  16.614   5.153  0.00  0.00     0.081 C 
HETATM    7  C   UNK N   1      30.411  18.041   9.138  0.00  0.00     0.008 A 
HETATM    8  C   UNK N   1      28.335  18.069   7.272  0.00  0.00     0.007 A 
HETATM    9  C   UNK N   1      29.160  18.550   9.493  0.00  0.00     0.001 A 
HETATM   10  C   UNK N   1      28.122  18.562   8.560  0.00  0.00     0.001 A 
ENDROOT
BRANCH   1  11
HETATM   11  C   UNK N   1      33.005  16.535   8.493  0.00  0.00    -0.050 A 
HETATM   12  C   UNK N   1      34.095  17.325   8.891  0.00  0.00     0.008 A 
HETATM   13  C   UNK N   1      34.997  16.860   9.854  0.00  0.00     0.001 A 
HETATM   14  C   UNK N   1      34.811  15.602  10.434  0.00  0.00     0.000 A 
HETATM   15  C   UNK N   1      33.727  14.811  10.052  0.00  0.00     0.001 A 
HETATM   16  C   UNK N   1      32.831  15.273   9.084  0.00  0.00     0.008 A 
ENDBRANCH   1  11
BRANCH   6  17
HETATM   17  N   UNK N   1      31.161  15.727   4.001  0.00  0.00    -0.421 N 
HETATM   18  C   UNK N   1      30.245  16.290   3.021  0.00  0.00     0.140 C 
HETATM   19  H   UNK N   1      31.693  14.863   3.898  0.00  0.00     0.153 HD
ENDBRANCH   6  17
TORSDOF 2
ENDMDL
MODEL 9
REMARK VINA RESULT:      -5.9     24.646     27.816
REMARK  2 active torsions:
REMARK  status: ('A' for Active; 'I' for Inactive)
REMARK    1  A    between atoms: C_1  and  C_6 
REMARK    2  A    between atoms: C_7  and  N_8 
ROOT
HETATM    1  C   UNK N   1      34.693  10.105  16.474  0.00  0.00     0.054 C 
HETATM    2  C   UNK N   1      34.944  11.372  17.289  0.00  0.00    -0.043 A 
HETATM    3  C   UNK N   1      35.132  11.274  18.692  0.00  0.00    -0.049 A 
HETATM    4  C   UNK N   1      35.347   8.898  17.136  0.00  0.00     0.039 C 
HETATM    5  C   UNK N   1      35.145   9.948  19.408  0.00  0.00     0.063 C 
HETATM    6  C   UNK N   1      34.756   8.756  18.531  0.00  0.00     0.081 C 
HETATM    7  C   UNK N   1      34.957  12.640  16.691  0.00  0.00     0.008 A 
HETATM    8  C   UNK N   1      35.352  12.432  19.447  0.00  0.00     0.007 A 
HETATM    9  C   UNK N   1      35.175  13.789  17.455  0.00  0.00     0.001 A 
HETATM   10  C   UNK N   1      35.374  13.685  18.832  0.00  0.00     0.001 A 
ENDROOT
BRANCH   1  11
HETATM   11  C   UNK N   1      34.914  10.099  14.973  0.00  0.00    -0.050 A 
HETATM   12  C   UNK N   1      36.145   9.765  14.386  0.00  0.00     0.008 A 
HETATM   13  C   UNK N   1      36.301   9.790  12.996  0.00  0.00     0.001 A 
HETATM   14  C   UNK N   1      35.224  10.142  12.179  0.00  0.00     0.000 A 
HETATM   15  C   UNK N   1      33.993  10.469  12.750  0.00  0.00     0.001 A 
HETATM   16  C   UNK N   1      33.840  10.453  14.139  0.00  0.00     0.008 A 
ENDBRANCH   1  11
BRANCH   6  17
HETATM   17  N   UNK N   1      35.210   7.526  19.159  0.00  0.00    -0.421 N 
HETATM   18  C   UNK N   1      36.551   7.759  19.674  0.00  0.00     0.140 C 
HETATM   19  H   UNK N   1      34.684   6.655  19.226  0.00  0.00     0.153 HD
ENDBRANCH   6  17
TORSDOF 2
ENDMDL
