REMARK  7 active torsions:
REMARK  status: ('A' for Active; 'I' for Inactive)
REMARK    1  A    between atoms: C_1  and  C_2 
REMARK    2  A    between atoms: C_1  and  O_3 
REMARK    3  A    between atoms: C_1  and  C_4 
REMARK    4  A    between atoms: O_3  and  C_7 
REMARK    5  A    between atoms: C_4  and  C_8 
REMARK    6  A    between atoms: C_8  and  N_13 
REMARK    7  A    between atoms: C_12  and  O_19 
ROOT
HETATM    1  C   UNK N   1      -0.506   0.521   0.032  0.00  0.00     0.163 C 
ENDROOT
BRANCH   1   2
HETATM    2  C   UNK N   1      -0.778  -0.972   0.101  0.00  0.00    -0.029 A 
HETATM    3  C   UNK N   1      -1.850  -1.529  -0.616  0.00  0.00     0.010 A 
HETATM    4  C   UNK N   1      -2.132  -2.894  -0.534  0.00  0.00     0.001 A 
HETATM    5  C   UNK N   1      -1.340  -3.721   0.264  0.00  0.00     0.000 A 
HETATM    6  C   UNK N   1      -0.274  -3.179   0.987  0.00  0.00     0.001 A 
HETATM    7  C   UNK N   1      -0.001  -1.808   0.916  0.00  0.00     0.010 A 
ENDBRANCH   1   2
BRANCH   1   8
HETATM    8  O   UNK N   1       0.746   0.998   0.396  0.00  0.00    -0.338 OA
BRANCH   8   9
HETATM    9  C   UNK N   1       1.953   0.635  -0.111  0.00  0.00     0.103 A 
HETATM   10  C   UNK N   1       2.134  -0.572  -0.809  0.00  0.00     0.040 A 
HETATM   11  C   UNK N   1       3.393  -0.933  -1.292  0.00  0.00     0.003 A 
HETATM   12  C   UNK N   1       4.485  -0.086  -1.098  0.00  0.00     0.003 A 
HETATM   13  C   UNK N   1       4.315   1.127  -0.428  0.00  0.00     0.039 A 
HETATM   14  C   UNK N   1       3.053   1.494   0.070  0.00  0.00     0.101 A 
BRANCH  14  15
HETATM   15  O   UNK N   1       2.868   2.679   0.707  0.00  0.00    -0.353 OA
HETATM   16  C   UNK N   1       3.857   3.628   0.838  0.00  0.00     0.210 C 
ENDBRANCH  14  15
ENDBRANCH   8   9
ENDBRANCH   1   8
BRANCH   1  17
HETATM   17  C   UNK N   1      -1.169   1.376  -1.055  0.00  0.00     0.056 C 
BRANCH  17  18
HETATM   18  C   UNK N   1      -2.692   1.287  -1.045  0.00  0.00     0.116 C 
BRANCH  18  19
HETATM   19  N   UNK N   1      -3.222   1.618   0.267  0.00  0.00    -0.425 N 
HETATM   20  C   UNK N   1      -4.490   0.920   0.385  0.00  0.00     0.139 C 
HETATM   21  H   UNK N   1      -2.790   2.223   0.966  0.00  0.00     0.152 HD
ENDBRANCH  18  19
ENDBRANCH  17  18
ENDBRANCH   1  17
TORSDOF 7
