MODEL 1
REMARK VINA RESULT:      -8.9      0.000      0.000
REMARK  12 active torsions:
REMARK  status: ('A' for Active; 'I' for Inactive)
REMARK    1  A    between atoms: O_1  and  C_23 
REMARK    2  A    between atoms: O_1  and  C_32 
REMARK    3  A    between atoms: O_3  and  C_40 
REMARK    4  A    between atoms: N_7  and  C_17 
REMARK    5  A    between atoms: N_9  and  C_42 
REMARK    6  A    between atoms: C_10  and  C_15 
REMARK    7  A    between atoms: C_10  and  C_16 
REMARK    8  A    between atoms: C_17  and  C_18 
REMARK    9  A    between atoms: C_18  and  C_23 
REMARK   10  A    between atoms: C_30  and  C_35 
REMARK   11  A    between atoms: C_31  and  C_32 
REMARK   12  A    between atoms: C_33  and  C_40 
ROOT
HETATM    1  O   UNK N   1      21.521  18.276   6.120  0.00  0.00    -0.259 OA
HETATM    2  C   UNK N   1      22.049  18.312   5.021  0.00  0.00     0.292 C 
ENDROOT
BRANCH   2   3
HETATM    3  O   UNK N   1      23.294  18.828   4.907  0.00  0.00    -0.318 OA
BRANCH   3   4
HETATM    4  C   UNK N   1      24.171  18.472   3.901  0.00  0.00     0.180 C 
BRANCH   4   5
HETATM    5  C   UNK N   1      25.301  17.626   4.485  0.00  0.00     0.057 C 
BRANCH   5   6
HETATM    6  C   UNK N   1      25.948  16.699   3.442  0.00  0.00     0.274 C 
BRANCH   6   7
HETATM    7  N   UNK N   1      26.898  15.769   4.059  0.00  0.00     0.088 N 
HETATM    8  C   UNK N   1      28.178  15.765   3.341  0.00  0.00     0.273 C 
HETATM    9  C   UNK N   1      29.000  16.991   3.683  0.00  0.00     0.049 C 
HETATM   10  C   UNK N   1      29.169  17.198   5.202  0.00  0.00     0.017 C 
HETATM   11  C   UNK N   1      28.438  16.101   6.003  0.00  0.00     0.049 C 
HETATM   12  C   UNK N   1      26.986  15.994   5.512  0.00  0.00     0.273 C 
BRANCH  10  13
HETATM   13  C   UNK N   1      28.543  18.534   5.597  0.00  0.00    -0.045 A 
HETATM   14  C   UNK N   1      28.187  18.799   6.930  0.00  0.00     0.008 A 
HETATM   15  C   UNK N   1      27.548  19.997   7.263  0.00  0.00     0.001 A 
HETATM   16  C   UNK N   1      27.217  20.920   6.267  0.00  0.00     0.000 A 
HETATM   17  C   UNK N   1      27.527  20.650   4.935  0.00  0.00     0.001 A 
HETATM   18  C   UNK N   1      28.186  19.468   4.605  0.00  0.00     0.008 A 
ENDBRANCH  10  13
BRANCH  10  19
HETATM   19  C   UNK N   1      30.670  17.127   5.404  0.00  0.00    -0.045 A 
HETATM   20  C   UNK N   1      31.537  17.424   4.335  0.00  0.00     0.008 A 
HETATM   21  C   UNK N   1      32.911  17.563   4.551  0.00  0.00     0.001 A 
HETATM   22  C   UNK N   1      33.430  17.445   5.842  0.00  0.00     0.000 A 
HETATM   23  C   UNK N   1      32.575  17.185   6.916  0.00  0.00     0.001 A 
HETATM   24  C   UNK N   1      31.204  17.045   6.700  0.00  0.00     0.008 A 
ENDBRANCH  10  19
ENDBRANCH   6   7
ENDBRANCH   5   6
ENDBRANCH   4   5
ENDBRANCH   3   4
ENDBRANCH   2   3
BRANCH   2  25
HETATM   25  C   UNK N   1      21.275  17.862   3.839  0.00  0.00     0.052 C 
HETATM   26  C   UNK N   1      21.317  16.401   3.444  0.00  0.00     0.101 C 
HETATM   27  C   UNK N   1      20.762  16.030   2.061  0.00  0.00     0.052 C 
HETATM   28  C   UNK N   1      20.052  16.984   1.384  0.00  0.00     0.018 C 
HETATM   29  N   UNK N   1      19.897  18.298   1.918  0.00  0.00    -0.362 N 
HETATM   30  C   UNK N   1      19.460  16.732   0.029  0.00  0.00     0.069 C 
HETATM   31  C   UNK N   1      20.592  18.739   3.078  0.00  0.00     0.018 C 
HETATM   32  H   UNK N   1      19.355  18.989   1.376  0.00  0.00     0.165 HD
HETATM   33  C   UNK N   1      20.540  20.195   3.434  0.00  0.00     0.069 C 
BRANCH  26  34
HETATM   34  C   UNK N   1      21.832  15.404   4.472  0.00  0.00    -0.042 A 
HETATM   35  C   UNK N   1      21.038  14.988   5.539  0.00  0.00     0.044 A 
HETATM   36  C   UNK N   1      21.515  14.066   6.479  0.00  0.00     0.103 A 
HETATM   37  C   UNK N   1      22.783  13.493   6.303  0.00  0.00     0.036 A 
HETATM   38  C   UNK N   1      23.579  13.883   5.227  0.00  0.00     0.003 A 
HETATM   39  C   UNK N   1      23.116  14.856   4.341  0.00  0.00     0.008 A 
BRANCH  36  40
HETATM   40  N   UNK N   1      20.751  13.762   7.634  0.00  0.00    -0.116 N 
HETATM   41  O   UNK N   1      21.011  12.685   8.339  0.00  0.00    -0.532 OA
HETATM   42  O   UNK N   1      19.938  14.546   8.036  0.00  0.00    -0.532 OA
ENDBRANCH  36  40
ENDBRANCH  26  34
BRANCH  27  43
HETATM   43  C   UNK N   1      21.047  14.682   1.440  0.00  0.00     0.291 C 
HETATM   44  O   UNK N   1      20.425  13.699   1.804  0.00  0.00    -0.260 OA
BRANCH  43  45
HETATM   45  O   UNK N   1      22.045  14.526   0.538  0.00  0.00    -0.323 OA
HETATM   46  C   UNK N   1      23.179  13.794   0.812  0.00  0.00     0.213 C 
ENDBRANCH  43  45
ENDBRANCH  27  43
ENDBRANCH   2  25
TORSDOF 12
ENDMDL
MODEL 2
REMARK VINA RESULT:      -8.6      1.719      2.190
REMARK  12 active torsions:
REMARK  status: ('A' for Active; 'I' for Inactive)
REMARK    1  A    between atoms: O_1  and  C_23 
REMARK    2  A    between atoms: O_1  and  C_32 
REMARK    3  A    between atoms: O_3  and  C_40 
REMARK    4  A    between atoms: N_7  and  C_17 
REMARK    5  A    between atoms: N_9  and  C_42 
REMARK    6  A    between atoms: C_10  and  C_15 
REMARK    7  A    between atoms: C_10  and  C_16 
REMARK    8  A    between atoms: C_17  and  C_18 
REMARK    9  A    between atoms: C_18  and  C_23 
REMARK   10  A    between atoms: C_30  and  C_35 
REMARK   11  A    between atoms: C_31  and  C_32 
REMARK   12  A    between atoms: C_33  and  C_40 
ROOT
HETATM    1  O   UNK N   1      20.856  19.475   4.979  0.00  0.00    -0.259 OA
HETATM    2  C   UNK N   1      21.493  18.527   4.549  0.00  0.00     0.292 C 
ENDROOT
BRANCH   2   3
HETATM    3  O   UNK N   1      22.827  18.478   4.766  0.00  0.00    -0.318 OA
BRANCH   3   4
HETATM    4  C   UNK N   1      23.719  17.929   3.867  0.00  0.00     0.180 C 
BRANCH   4   5
HETATM    5  C   UNK N   1      24.745  17.082   4.619  0.00  0.00     0.057 C 
BRANCH   5   6
HETATM    6  C   UNK N   1      25.724  16.360   3.678  0.00  0.00     0.274 C 
BRANCH   6   7
HETATM    7  N   UNK N   1      26.751  15.628   4.424  0.00  0.00     0.088 N 
HETATM    8  C   UNK N   1      28.019  15.596   3.684  0.00  0.00     0.273 C 
HETATM    9  C   UNK N   1      28.745  16.922   3.787  0.00  0.00     0.049 C 
HETATM   10  C   UNK N   1      28.914  17.405   5.242  0.00  0.00     0.017 C 
HETATM   11  C   UNK N   1      28.282  16.413   6.240  0.00  0.00     0.049 C 
HETATM   12  C   UNK N   1      26.839  16.110   5.812  0.00  0.00     0.273 C 
BRANCH  10  13
HETATM   13  C   UNK N   1      28.189  18.738   5.414  0.00  0.00    -0.045 A 
HETATM   14  C   UNK N   1      27.945  19.267   6.692  0.00  0.00     0.008 A 
HETATM   15  C   UNK N   1      27.214  20.451   6.836  0.00  0.00     0.001 A 
HETATM   16  C   UNK N   1      26.683  21.092   5.713  0.00  0.00     0.000 A 
HETATM   17  C   UNK N   1      26.883  20.554   4.443  0.00  0.00     0.001 A 
HETATM   18  C   UNK N   1      27.631  19.388   4.296  0.00  0.00     0.008 A 
ENDBRANCH  10  13
BRANCH  10  19
HETATM   19  C   UNK N   1      30.419  17.485   5.415  0.00  0.00    -0.045 A 
HETATM   20  C   UNK N   1      31.006  17.115   6.640  0.00  0.00     0.008 A 
HETATM   21  C   UNK N   1      32.393  16.988   6.754  0.00  0.00     0.001 A 
HETATM   22  C   UNK N   1      33.207  17.189   5.637  0.00  0.00     0.000 A 
HETATM   23  C   UNK N   1      32.633  17.521   4.407  0.00  0.00     0.001 A 
HETATM   24  C   UNK N   1      31.249  17.650   4.293  0.00  0.00     0.008 A 
ENDBRANCH  10  19
ENDBRANCH   6   7
ENDBRANCH   5   6
ENDBRANCH   4   5
ENDBRANCH   3   4
ENDBRANCH   2   3
BRANCH   2  25
HETATM   25  C   UNK N   1      20.792  17.504   3.735  0.00  0.00     0.052 C 
HETATM   26  C   UNK N   1      20.524  16.141   4.338  0.00  0.00     0.101 C 
HETATM   27  C   UNK N   1      20.080  15.024   3.381  0.00  0.00     0.052 C 
HETATM   28  C   UNK N   1      19.722  15.381   2.110  0.00  0.00     0.018 C 
HETATM   29  N   UNK N   1      19.827  16.735   1.672  0.00  0.00    -0.362 N 
HETATM   30  C   UNK N   1      19.268  14.377   1.093  0.00  0.00     0.069 C 
HETATM   31  C   UNK N   1      20.452  17.745   2.454  0.00  0.00     0.018 C 
HETATM   32  H   UNK N   1      19.548  16.963   0.705  0.00  0.00     0.165 HD
HETATM   33  C   UNK N   1      20.714  19.080   1.823  0.00  0.00     0.069 C 
BRANCH  26  34
HETATM   34  C   UNK N   1      20.639  16.000   5.848  0.00  0.00    -0.042 A 
HETATM   35  C   UNK N   1      19.612  16.414   6.695  0.00  0.00     0.044 A 
HETATM   36  C   UNK N   1      19.721  16.276   8.085  0.00  0.00     0.103 A 
HETATM   37  C   UNK N   1      20.846  15.642   8.630  0.00  0.00     0.036 A 
HETATM   38  C   UNK N   1      21.870  15.201   7.793  0.00  0.00     0.003 A 
HETATM   39  C   UNK N   1      21.778  15.412   6.417  0.00  0.00     0.008 A 
BRANCH  36  40
HETATM   40  N   UNK N   1      18.733  16.831   8.937  0.00  0.00    -0.116 N 
HETATM   41  O   UNK N   1      18.890  18.034   9.442  0.00  0.00    -0.532 OA
HETATM   42  O   UNK N   1      17.699  16.251   9.111  0.00  0.00    -0.532 OA
ENDBRANCH  36  40
ENDBRANCH  26  34
BRANCH  27  43
HETATM   43  C   UNK N   1      20.102  13.575   3.809  0.00  0.00     0.291 C 
HETATM   44  O   UNK N   1      19.131  13.086   4.358  0.00  0.00    -0.260 OA
BRANCH  43  45
HETATM   45  O   UNK N   1      21.220  12.822   3.666  0.00  0.00    -0.323 OA
HETATM   46  C   UNK N   1      21.536  11.800   4.533  0.00  0.00     0.213 C 
ENDBRANCH  43  45
ENDBRANCH  27  43
ENDBRANCH   2  25
TORSDOF 12
ENDMDL
MODEL 3
REMARK VINA RESULT:      -8.6      1.201      1.487
REMARK  12 active torsions:
REMARK  status: ('A' for Active; 'I' for Inactive)
REMARK    1  A    between atoms: O_1  and  C_23 
REMARK    2  A    between atoms: O_1  and  C_32 
REMARK    3  A    between atoms: O_3  and  C_40 
REMARK    4  A    between atoms: N_7  and  C_17 
REMARK    5  A    between atoms: N_9  and  C_42 
REMARK    6  A    between atoms: C_10  and  C_15 
REMARK    7  A    between atoms: C_10  and  C_16 
REMARK    8  A    between atoms: C_17  and  C_18 
REMARK    9  A    between atoms: C_18  and  C_23 
REMARK   10  A    between atoms: C_30  and  C_35 
REMARK   11  A    between atoms: C_31  and  C_32 
REMARK   12  A    between atoms: C_33  and  C_40 
ROOT
HETATM    1  O   UNK N   1      21.078  18.550   6.178  0.00  0.00    -0.259 OA
HETATM    2  C   UNK N   1      21.758  18.387   5.179  0.00  0.00     0.292 C 
ENDROOT
BRANCH   2   3
HETATM    3  O   UNK N   1      23.080  18.668   5.230  0.00  0.00    -0.318 OA
BRANCH   3   4
HETATM    4  C   UNK N   1      23.945  18.432   4.179  0.00  0.00     0.180 C 
BRANCH   4   5
HETATM    5  C   UNK N   1      25.152  17.641   4.680  0.00  0.00     0.057 C 
BRANCH   5   6
HETATM    6  C   UNK N   1      25.759  16.734   3.595  0.00  0.00     0.274 C 
BRANCH   6   7
HETATM    7  N   UNK N   1      26.737  15.799   4.157  0.00  0.00     0.088 N 
HETATM    8  C   UNK N   1      27.968  15.778   3.358  0.00  0.00     0.273 C 
HETATM    9  C   UNK N   1      28.822  16.998   3.638  0.00  0.00     0.049 C 
HETATM   10  C   UNK N   1      29.090  17.212   5.142  0.00  0.00     0.017 C 
HETATM   11  C   UNK N   1      28.401  16.127   5.995  0.00  0.00     0.049 C 
HETATM   12  C   UNK N   1      26.921  16.031   5.599  0.00  0.00     0.273 C 
BRANCH  10  13
HETATM   13  C   UNK N   1      28.504  18.557   5.567  0.00  0.00    -0.045 A 
HETATM   14  C   UNK N   1      28.217  18.825   6.916  0.00  0.00     0.008 A 
HETATM   15  C   UNK N   1      27.611  20.032   7.281  0.00  0.00     0.001 A 
HETATM   16  C   UNK N   1      27.247  20.961   6.301  0.00  0.00     0.000 A 
HETATM   17  C   UNK N   1      27.489  20.688   4.956  0.00  0.00     0.001 A 
HETATM   18  C   UNK N   1      28.114  19.497   4.594  0.00  0.00     0.008 A 
ENDBRANCH  10  13
BRANCH  10  19
HETATM   19  C   UNK N   1      30.600  17.127   5.247  0.00  0.00    -0.045 A 
HETATM   20  C   UNK N   1      31.404  17.523   4.161  0.00  0.00     0.008 A 
HETATM   21  C   UNK N   1      32.789  17.645   4.307  0.00  0.00     0.001 A 
HETATM   22  C   UNK N   1      33.382  17.411   5.550  0.00  0.00     0.000 A 
HETATM   23  C   UNK N   1      32.592  17.052   6.644  0.00  0.00     0.001 A 
HETATM   24  C   UNK N   1      31.210  16.929   6.498  0.00  0.00     0.008 A 
ENDBRANCH  10  19
ENDBRANCH   6   7
ENDBRANCH   5   6
ENDBRANCH   4   5
ENDBRANCH   3   4
ENDBRANCH   2   3
BRANCH   2  25
HETATM   25  C   UNK N   1      21.094  17.965   3.922  0.00  0.00     0.052 C 
HETATM   26  C   UNK N   1      21.112  16.502   3.536  0.00  0.00     0.101 C 
HETATM   27  C   UNK N   1      20.690  16.147   2.101  0.00  0.00     0.052 C 
HETATM   28  C   UNK N   1      20.101  17.127   1.351  0.00  0.00     0.018 C 
HETATM   29  N   UNK N   1      19.949  18.450   1.864  0.00  0.00    -0.362 N 
HETATM   30  C   UNK N   1      19.645  16.894  -0.058  0.00  0.00     0.069 C 
HETATM   31  C   UNK N   1      20.536  18.867   3.091  0.00  0.00     0.018 C 
HETATM   32  H   UNK N   1      19.500  19.162   1.266  0.00  0.00     0.165 HD
HETATM   33  C   UNK N   1      20.513  20.327   3.437  0.00  0.00     0.069 C 
BRANCH  26  34
HETATM   34  C   UNK N   1      21.469  15.489   4.614  0.00  0.00    -0.042 A 
HETATM   35  C   UNK N   1      22.761  14.977   4.727  0.00  0.00     0.044 A 
HETATM   36  C   UNK N   1      23.086  14.050   5.726  0.00  0.00     0.103 A 
HETATM   37  C   UNK N   1      22.118  13.688   6.674  0.00  0.00     0.036 A 
HETATM   38  C   UNK N   1      20.828  14.211   6.586  0.00  0.00     0.003 A 
HETATM   39  C   UNK N   1      20.503  15.078   5.542  0.00  0.00     0.008 A 
BRANCH  36  40
HETATM   40  N   UNK N   1      24.362  13.432   5.740  0.00  0.00    -0.116 N 
HETATM   41  O   UNK N   1      25.015  13.280   6.869  0.00  0.00    -0.532 OA
HETATM   42  O   UNK N   1      24.801  12.946   4.737  0.00  0.00    -0.532 OA
ENDBRANCH  36  40
ENDBRANCH  26  34
BRANCH  27  43
HETATM   43  C   UNK N   1      20.978  14.783   1.517  0.00  0.00     0.291 C 
HETATM   44  O   UNK N   1      20.273  13.833   1.808  0.00  0.00    -0.260 OA
BRANCH  43  45
HETATM   45  O   UNK N   1      22.063  14.574   0.734  0.00  0.00    -0.323 OA
HETATM   46  C   UNK N   1      23.112  13.772   1.125  0.00  0.00     0.213 C 
ENDBRANCH  43  45
ENDBRANCH  27  43
ENDBRANCH   2  25
TORSDOF 12
ENDMDL
MODEL 4
REMARK VINA RESULT:      -8.3      1.697      4.573
REMARK  12 active torsions:
REMARK  status: ('A' for Active; 'I' for Inactive)
REMARK    1  A    between atoms: O_1  and  C_23 
REMARK    2  A    between atoms: O_1  and  C_32 
REMARK    3  A    between atoms: O_3  and  C_40 
REMARK    4  A    between atoms: N_7  and  C_17 
REMARK    5  A    between atoms: N_9  and  C_42 
REMARK    6  A    between atoms: C_10  and  C_15 
REMARK    7  A    between atoms: C_10  and  C_16 
REMARK    8  A    between atoms: C_17  and  C_18 
REMARK    9  A    between atoms: C_18  and  C_23 
REMARK   10  A    between atoms: C_30  and  C_35 
REMARK   11  A    between atoms: C_31  and  C_32 
REMARK   12  A    between atoms: C_33  and  C_40 
ROOT
HETATM    1  O   UNK N   1      21.857  15.317   0.856  0.00  0.00    -0.259 OA
HETATM    2  C   UNK N   1      22.565  14.586   1.529  0.00  0.00     0.292 C 
ENDROOT
BRANCH   2   3
HETATM    3  O   UNK N   1      23.794  14.256   1.071  0.00  0.00    -0.318 OA
BRANCH   3   4
HETATM    4  C   UNK N   1      24.884  15.097   1.159  0.00  0.00     0.180 C 
BRANCH   4   5
HETATM    5  C   UNK N   1      25.921  14.492   2.104  0.00  0.00     0.057 C 
BRANCH   5   6
HETATM    6  C   UNK N   1      26.741  15.559   2.848  0.00  0.00     0.274 C 
BRANCH   6   7
HETATM    7  N   UNK N   1      27.753  14.955   3.719  0.00  0.00     0.088 N 
HETATM    8  C   UNK N   1      29.105  15.175   3.191  0.00  0.00     0.273 C 
HETATM    9  C   UNK N   1      29.572  16.590   3.461  0.00  0.00     0.049 C 
HETATM   10  C   UNK N   1      29.436  16.997   4.943  0.00  0.00     0.017 C 
HETATM   11  C   UNK N   1      28.837  15.853   5.786  0.00  0.00     0.049 C 
HETATM   12  C   UNK N   1      27.547  15.352   5.121  0.00  0.00     0.273 C 
BRANCH  10  13
HETATM   13  C   UNK N   1      28.478  18.182   5.049  0.00  0.00    -0.045 A 
HETATM   14  C   UNK N   1      28.015  18.842   3.899  0.00  0.00     0.008 A 
HETATM   15  C   UNK N   1      27.198  19.971   4.016  0.00  0.00     0.001 A 
HETATM   16  C   UNK N   1      26.873  20.478   5.277  0.00  0.00     0.000 A 
HETATM   17  C   UNK N   1      27.361  19.856   6.426  0.00  0.00     0.001 A 
HETATM   18  C   UNK N   1      28.155  18.718   6.311  0.00  0.00     0.008 A 
ENDBRANCH  10  13
BRANCH  10  19
HETATM   19  C   UNK N   1      30.862  17.306   5.357  0.00  0.00    -0.045 A 
HETATM   20  C   UNK N   1      31.283  17.044   6.674  0.00  0.00     0.008 A 
HETATM   21  C   UNK N   1      32.635  17.130   7.019  0.00  0.00     0.001 A 
HETATM   22  C   UNK N   1      33.586  17.439   6.044  0.00  0.00     0.000 A 
HETATM   23  C   UNK N   1      33.184  17.666   4.725  0.00  0.00     0.001 A 
HETATM   24  C   UNK N   1      31.834  17.582   4.381  0.00  0.00     0.008 A 
ENDBRANCH  10  19
ENDBRANCH   6   7
ENDBRANCH   5   6
ENDBRANCH   4   5
ENDBRANCH   3   4
ENDBRANCH   2   3
BRANCH   2  25
HETATM   25  C   UNK N   1      22.018  14.020   2.786  0.00  0.00     0.052 C 
HETATM   26  C   UNK N   1      22.158  14.811   4.070  0.00  0.00     0.101 C 
HETATM   27  C   UNK N   1      21.861  14.074   5.386  0.00  0.00     0.052 C 
HETATM   28  C   UNK N   1      21.262  12.847   5.305  0.00  0.00     0.018 C 
HETATM   29  N   UNK N   1      20.990  12.246   4.041  0.00  0.00    -0.362 N 
HETATM   30  C   UNK N   1      20.922  12.040   6.523  0.00  0.00     0.069 C 
HETATM   31  C   UNK N   1      21.462  12.794   2.816  0.00  0.00     0.018 C 
HETATM   32  H   UNK N   1      20.538  11.317   4.023  0.00  0.00     0.165 HD
HETATM   33  C   UNK N   1      21.319  11.979   1.564  0.00  0.00     0.069 C 
BRANCH  26  34
HETATM   34  C   UNK N   1      22.504  16.288   3.958  0.00  0.00    -0.042 A 
HETATM   35  C   UNK N   1      21.525  17.243   3.691  0.00  0.00     0.044 A 
HETATM   36  C   UNK N   1      21.849  18.603   3.595  0.00  0.00     0.103 A 
HETATM   37  C   UNK N   1      23.164  19.019   3.847  0.00  0.00     0.036 A 
HETATM   38  C   UNK N   1      24.149  18.077   4.138  0.00  0.00     0.003 A 
HETATM   39  C   UNK N   1      23.823  16.720   4.159  0.00  0.00     0.008 A 
BRANCH  36  40
HETATM   40  N   UNK N   1      20.871  19.543   3.182  0.00  0.00    -0.116 N 
HETATM   41  O   UNK N   1      20.302  19.436   2.003  0.00  0.00    -0.532 OA
HETATM   42  O   UNK N   1      20.477  20.373   3.951  0.00  0.00    -0.532 OA
ENDBRANCH  36  40
ENDBRANCH  26  34
BRANCH  27  43
HETATM   43  C   UNK N   1      22.277  14.655   6.717  0.00  0.00     0.291 C 
HETATM   44  O   UNK N   1      23.416  14.504   7.120  0.00  0.00    -0.260 OA
BRANCH  43  45
HETATM   45  O   UNK N   1      21.378  15.276   7.519  0.00  0.00    -0.323 OA
HETATM   46  C   UNK N   1      21.057  16.608   7.374  0.00  0.00     0.213 C 
ENDBRANCH  43  45
ENDBRANCH  27  43
ENDBRANCH   2  25
TORSDOF 12
ENDMDL
MODEL 5
REMARK VINA RESULT:      -8.2      1.848      4.985
REMARK  12 active torsions:
REMARK  status: ('A' for Active; 'I' for Inactive)
REMARK    1  A    between atoms: O_1  and  C_23 
REMARK    2  A    between atoms: O_1  and  C_32 
REMARK    3  A    between atoms: O_3  and  C_40 
REMARK    4  A    between atoms: N_7  and  C_17 
REMARK    5  A    between atoms: N_9  and  C_42 
REMARK    6  A    between atoms: C_10  and  C_15 
REMARK    7  A    between atoms: C_10  and  C_16 
REMARK    8  A    between atoms: C_17  and  C_18 
REMARK    9  A    between atoms: C_18  and  C_23 
REMARK   10  A    between atoms: C_30  and  C_35 
REMARK   11  A    between atoms: C_31  and  C_32 
REMARK   12  A    between atoms: C_33  and  C_40 
ROOT
HETATM    1  O   UNK N   1      23.828  15.103   3.077  0.00  0.00    -0.259 OA
HETATM    2  C   UNK N   1      24.107  15.578   4.165  0.00  0.00     0.292 C 
ENDROOT
BRANCH   2   3
HETATM    3  O   UNK N   1      25.146  16.439   4.260  0.00  0.00    -0.318 OA
BRANCH   3   4
HETATM    4  C   UNK N   1      26.083  16.607   3.261  0.00  0.00     0.180 C 
BRANCH   4   5
HETATM    5  C   UNK N   1      26.954  15.355   3.163  0.00  0.00     0.057 C 
BRANCH   5   6
HETATM    6  C   UNK N   1      28.419  15.675   2.820  0.00  0.00     0.274 C 
BRANCH   6   7
HETATM    7  N   UNK N   1      29.347  15.010   3.737  0.00  0.00     0.088 N 
HETATM    8  C   UNK N   1      30.716  15.509   3.559  0.00  0.00     0.273 C 
HETATM    9  C   UNK N   1      30.891  16.867   4.207  0.00  0.00     0.049 C 
HETATM   10  C   UNK N   1      30.432  16.895   5.679  0.00  0.00     0.017 C 
HETATM   11  C   UNK N   1      29.891  15.521   6.125  0.00  0.00     0.049 C 
HETATM   12  C   UNK N   1      28.837  15.039   5.117  0.00  0.00     0.273 C 
BRANCH  10  13
HETATM   13  C   UNK N   1      29.290  17.898   5.828  0.00  0.00    -0.045 A 
HETATM   14  C   UNK N   1      28.842  18.650   4.730  0.00  0.00     0.008 A 
HETATM   15  C   UNK N   1      27.846  19.617   4.897  0.00  0.00     0.001 A 
HETATM   16  C   UNK N   1      27.320  19.873   6.167  0.00  0.00     0.000 A 
HETATM   17  C   UNK N   1      27.786  19.162   7.272  0.00  0.00     0.001 A 
HETATM   18  C   UNK N   1      28.760  18.182   7.102  0.00  0.00     0.008 A 
ENDBRANCH  10  13
BRANCH  10  19
HETATM   19  C   UNK N   1      31.693  17.267   6.435  0.00  0.00    -0.045 A 
HETATM   20  C   UNK N   1      31.714  17.205   7.841  0.00  0.00     0.008 A 
HETATM   21  C   UNK N   1      32.916  17.345   8.542  0.00  0.00     0.001 A 
HETATM   22  C   UNK N   1      34.114  17.511   7.845  0.00  0.00     0.000 A 
HETATM   23  C   UNK N   1      34.111  17.539   6.449  0.00  0.00     0.001 A 
HETATM   24  C   UNK N   1      32.912  17.401   5.749  0.00  0.00     0.008 A 
ENDBRANCH  10  19
ENDBRANCH   6   7
ENDBRANCH   5   6
ENDBRANCH   4   5
ENDBRANCH   3   4
ENDBRANCH   2   3
BRANCH   2  25
HETATM   25  C   UNK N   1      23.347  15.131   5.357  0.00  0.00     0.052 C 
HETATM   26  C   UNK N   1      22.021  15.790   5.674  0.00  0.00     0.101 C 
HETATM   27  C   UNK N   1      21.417  15.523   7.062  0.00  0.00     0.052 C 
HETATM   28  C   UNK N   1      21.978  14.531   7.819  0.00  0.00     0.018 C 
HETATM   29  N   UNK N   1      23.127  13.821   7.361  0.00  0.00    -0.362 N 
HETATM   30  C   UNK N   1      21.468  14.181   9.186  0.00  0.00     0.069 C 
HETATM   31  C   UNK N   1      23.846  14.200   6.194  0.00  0.00     0.018 C 
HETATM   32  H   UNK N   1      23.521  13.080   7.964  0.00  0.00     0.165 HD
HETATM   33  C   UNK N   1      25.163  13.537   5.916  0.00  0.00     0.069 C 
BRANCH  26  34
HETATM   34  C   UNK N   1      21.351  16.599   4.574  0.00  0.00    -0.042 A 
HETATM   35  C   UNK N   1      21.585  17.966   4.436  0.00  0.00     0.044 A 
HETATM   36  C   UNK N   1      20.970  18.705   3.416  0.00  0.00     0.103 A 
HETATM   37  C   UNK N   1      20.168  18.047   2.473  0.00  0.00     0.036 A 
HETATM   38  C   UNK N   1      19.945  16.676   2.586  0.00  0.00     0.003 A 
HETATM   39  C   UNK N   1      20.507  15.968   3.650  0.00  0.00     0.008 A 
BRANCH  36  40
HETATM   40  N   UNK N   1      21.105  20.116   3.376  0.00  0.00    -0.116 N 
HETATM   41  O   UNK N   1      20.130  20.889   3.797  0.00  0.00    -0.532 OA
HETATM   42  O   UNK N   1      22.152  20.608   3.064  0.00  0.00    -0.532 OA
ENDBRANCH  36  40
ENDBRANCH  26  34
BRANCH  27  43
HETATM   43  C   UNK N   1      20.287  16.371   7.598  0.00  0.00     0.291 C 
HETATM   44  O   UNK N   1      19.133  16.096   7.320  0.00  0.00    -0.260 OA
BRANCH  43  45
HETATM   45  O   UNK N   1      20.536  17.490   8.320  0.00  0.00    -0.323 OA
HETATM   46  C   UNK N   1      19.557  18.132   9.045  0.00  0.00     0.213 C 
ENDBRANCH  43  45
ENDBRANCH  27  43
ENDBRANCH   2  25
TORSDOF 12
ENDMDL
MODEL 6
REMARK VINA RESULT:      -8.1      1.762      4.904
REMARK  12 active torsions:
REMARK  status: ('A' for Active; 'I' for Inactive)
REMARK    1  A    between atoms: O_1  and  C_23 
REMARK    2  A    between atoms: O_1  and  C_32 
REMARK    3  A    between atoms: O_3  and  C_40 
REMARK    4  A    between atoms: N_7  and  C_17 
REMARK    5  A    between atoms: N_9  and  C_42 
REMARK    6  A    between atoms: C_10  and  C_15 
REMARK    7  A    between atoms: C_10  and  C_16 
REMARK    8  A    between atoms: C_17  and  C_18 
REMARK    9  A    between atoms: C_18  and  C_23 
REMARK   10  A    between atoms: C_30  and  C_35 
REMARK   11  A    between atoms: C_31  and  C_32 
REMARK   12  A    between atoms: C_33  and  C_40 
ROOT
HETATM    1  O   UNK N   1      22.774  12.793   3.915  0.00  0.00    -0.259 OA
HETATM    2  C   UNK N   1      22.971  13.687   4.722  0.00  0.00     0.292 C 
ENDROOT
BRANCH   2   3
HETATM    3  O   UNK N   1      23.985  14.556   4.506  0.00  0.00    -0.318 OA
BRANCH   3   4
HETATM    4  C   UNK N   1      24.054  15.377   3.398  0.00  0.00     0.180 C 
BRANCH   4   5
HETATM    5  C   UNK N   1      24.976  16.558   3.695  0.00  0.00     0.057 C 
BRANCH   5   6
HETATM    6  C   UNK N   1      26.326  16.456   2.965  0.00  0.00     0.274 C 
BRANCH   6   7
HETATM    7  N   UNK N   1      27.293  15.659   3.725  0.00  0.00     0.088 N 
HETATM    8  C   UNK N   1      28.640  15.775   3.152  0.00  0.00     0.273 C 
HETATM    9  C   UNK N   1      29.281  17.096   3.528  0.00  0.00     0.049 C 
HETATM   10  C   UNK N   1      29.251  17.369   5.046  0.00  0.00     0.017 C 
HETATM   11  C   UNK N   1      28.555  16.224   5.809  0.00  0.00     0.049 C 
HETATM   12  C   UNK N   1      27.190  15.939   5.166  0.00  0.00     0.273 C 
BRANCH  10  13
HETATM   13  C   UNK N   1      28.444  18.639   5.309  0.00  0.00    -0.045 A 
HETATM   14  C   UNK N   1      28.143  19.045   6.620  0.00  0.00     0.008 A 
HETATM   15  C   UNK N   1      27.340  20.168   6.843  0.00  0.00     0.001 A 
HETATM   16  C   UNK N   1      26.795  20.869   5.763  0.00  0.00     0.000 A 
HETATM   17  C   UNK N   1      27.053  20.452   4.459  0.00  0.00     0.001 A 
HETATM   18  C   UNK N   1      27.871  19.348   4.235  0.00  0.00     0.008 A 
ENDBRANCH  10  13
BRANCH  10  19
HETATM   19  C   UNK N   1      30.718  17.473   5.414  0.00  0.00    -0.045 A 
HETATM   20  C   UNK N   1      31.140  17.149   6.718  0.00  0.00     0.008 A 
HETATM   21  C   UNK N   1      32.501  17.043   7.020  0.00  0.00     0.001 A 
HETATM   22  C   UNK N   1      33.454  17.219   6.015  0.00  0.00     0.000 A 
HETATM   23  C   UNK N   1      33.047  17.507   4.710  0.00  0.00     0.001 A 
HETATM   24  C   UNK N   1      31.689  17.615   4.409  0.00  0.00     0.008 A 
ENDBRANCH  10  19
ENDBRANCH   6   7
ENDBRANCH   5   6
ENDBRANCH   4   5
ENDBRANCH   3   4
ENDBRANCH   2   3
BRANCH   2  25
HETATM   25  C   UNK N   1      22.143  13.738   5.951  0.00  0.00     0.052 C 
HETATM   26  C   UNK N   1      21.110  14.835   6.097  0.00  0.00     0.101 C 
HETATM   27  C   UNK N   1      20.493  15.040   7.489  0.00  0.00     0.052 C 
HETATM   28  C   UNK N   1      20.725  14.078   8.435  0.00  0.00     0.018 C 
HETATM   29  N   UNK N   1      21.569  12.964   8.153  0.00  0.00    -0.362 N 
HETATM   30  C   UNK N   1      20.170  14.170   9.825  0.00  0.00     0.069 C 
HETATM   31  C   UNK N   1      22.338  12.867   6.961  0.00  0.00     0.018 C 
HETATM   32  H   UNK N   1      21.720  12.260   8.895  0.00  0.00     0.165 HD
HETATM   33  C   UNK N   1      23.361  11.776   6.853  0.00  0.00     0.069 C 
BRANCH  26  34
HETATM   34  C   UNK N   1      20.706  15.599   4.845  0.00  0.00    -0.042 A 
HETATM   35  C   UNK N   1      21.008  16.951   4.692  0.00  0.00     0.044 A 
HETATM   36  C   UNK N   1      20.639  17.648   3.534  0.00  0.00     0.103 A 
HETATM   37  C   UNK N   1      20.025  16.958   2.479  0.00  0.00     0.036 A 
HETATM   38  C   UNK N   1      19.739  15.600   2.609  0.00  0.00     0.003 A 
HETATM   39  C   UNK N   1      20.048  14.939   3.798  0.00  0.00     0.008 A 
BRANCH  36  40
HETATM   40  N   UNK N   1      20.824  19.052   3.455  0.00  0.00    -0.116 N 
HETATM   41  O   UNK N   1      20.845  19.782   4.547  0.00  0.00    -0.532 OA
HETATM   42  O   UNK N   1      21.075  19.563   2.400  0.00  0.00    -0.532 OA
ENDBRANCH  36  40
ENDBRANCH  26  34
BRANCH  27  43
HETATM   43  C   UNK N   1      19.714  16.291   7.822  0.00  0.00     0.291 C 
HETATM   44  O   UNK N   1      18.548  16.393   7.483  0.00  0.00    -0.260 OA
BRANCH  43  45
HETATM   45  O   UNK N   1      20.312  17.346   8.425  0.00  0.00    -0.323 OA
HETATM   46  C   UNK N   1      19.604  18.290   9.134  0.00  0.00     0.213 C 
ENDBRANCH  43  45
ENDBRANCH  27  43
ENDBRANCH   2  25
TORSDOF 12
ENDMDL
MODEL 7
REMARK VINA RESULT:      -8.1      1.812      2.963
REMARK  12 active torsions:
REMARK  status: ('A' for Active; 'I' for Inactive)
REMARK    1  A    between atoms: O_1  and  C_23 
REMARK    2  A    between atoms: O_1  and  C_32 
REMARK    3  A    between atoms: O_3  and  C_40 
REMARK    4  A    between atoms: N_7  and  C_17 
REMARK    5  A    between atoms: N_9  and  C_42 
REMARK    6  A    between atoms: C_10  and  C_15 
REMARK    7  A    between atoms: C_10  and  C_16 
REMARK    8  A    between atoms: C_17  and  C_18 
REMARK    9  A    between atoms: C_18  and  C_23 
REMARK   10  A    between atoms: C_30  and  C_35 
REMARK   11  A    between atoms: C_31  and  C_32 
REMARK   12  A    between atoms: C_33  and  C_40 
ROOT
HETATM    1  O   UNK N   1      20.839  19.780   4.775  0.00  0.00    -0.259 OA
HETATM    2  C   UNK N   1      21.457  18.817   4.352  0.00  0.00     0.292 C 
ENDROOT
BRANCH   2   3
HETATM    3  O   UNK N   1      22.774  18.703   4.637  0.00  0.00    -0.318 OA
BRANCH   3   4
HETATM    4  C   UNK N   1      23.732  18.416   3.686  0.00  0.00     0.180 C 
BRANCH   4   5
HETATM    5  C   UNK N   1      25.084  18.213   4.368  0.00  0.00     0.057 C 
BRANCH   5   6
HETATM    6  C   UNK N   1      25.565  19.465   5.119  0.00  0.00     0.274 C 
BRANCH   6   7
HETATM    7  N   UNK N   1      26.989  19.723   4.885  0.00  0.00     0.088 N 
HETATM    8  C   UNK N   1      27.686  20.020   6.142  0.00  0.00     0.273 C 
HETATM    9  C   UNK N   1      27.942  18.755   6.936  0.00  0.00     0.049 C 
HETATM   10  C   UNK N   1      28.642  17.656   6.108  0.00  0.00     0.017 C 
HETATM   11  C   UNK N   1      28.896  18.120   4.660  0.00  0.00     0.049 C 
HETATM   12  C   UNK N   1      27.588  18.661   4.062  0.00  0.00     0.273 C 
BRANCH  10  13
HETATM   13  C   UNK N   1      27.733  16.431   6.034  0.00  0.00    -0.045 A 
HETATM   14  C   UNK N   1      26.687  16.251   6.955  0.00  0.00     0.008 A 
HETATM   15  C   UNK N   1      25.911  15.089   6.920  0.00  0.00     0.001 A 
HETATM   16  C   UNK N   1      26.198  14.077   5.999  0.00  0.00     0.000 A 
HETATM   17  C   UNK N   1      27.259  14.226   5.108  0.00  0.00     0.001 A 
HETATM   18  C   UNK N   1      28.018  15.394   5.126  0.00  0.00     0.008 A 
ENDBRANCH  10  13
BRANCH  10  19
HETATM   19  C   UNK N   1      29.942  17.426   6.855  0.00  0.00    -0.045 A 
HETATM   20  C   UNK N   1      31.104  17.062   6.147  0.00  0.00     0.008 A 
HETATM   21  C   UNK N   1      32.348  17.045   6.784  0.00  0.00     0.001 A 
HETATM   22  C   UNK N   1      32.452  17.428   8.122  0.00  0.00     0.000 A 
HETATM   23  C   UNK N   1      31.312  17.825   8.825  0.00  0.00     0.001 A 
HETATM   24  C   UNK N   1      30.070  17.842   8.191  0.00  0.00     0.008 A 
ENDBRANCH  10  19
ENDBRANCH   6   7
ENDBRANCH   5   6
ENDBRANCH   4   5
ENDBRANCH   3   4
ENDBRANCH   2   3
BRANCH   2  25
HETATM   25  C   UNK N   1      20.759  17.849   3.472  0.00  0.00     0.052 C 
HETATM   26  C   UNK N   1      20.581  16.422   3.943  0.00  0.00     0.101 C 
HETATM   27  C   UNK N   1      20.135  15.386   2.899  0.00  0.00     0.052 C 
HETATM   28  C   UNK N   1      19.695  15.852   1.690  0.00  0.00     0.018 C 
HETATM   29  N   UNK N   1      19.720  17.246   1.389  0.00  0.00    -0.362 N 
HETATM   30  C   UNK N   1      19.231  14.935   0.598  0.00  0.00     0.069 C 
HETATM   31  C   UNK N   1      20.341  18.202   2.240  0.00  0.00     0.018 C 
HETATM   32  H   UNK N   1      19.381  17.557   0.464  0.00  0.00     0.165 HD
HETATM   33  C   UNK N   1      20.514  19.605   1.737  0.00  0.00     0.069 C 
BRANCH  26  34
HETATM   34  C   UNK N   1      20.781  16.135   5.424  0.00  0.00    -0.042 A 
HETATM   35  C   UNK N   1      19.805  16.462   6.363  0.00  0.00     0.044 A 
HETATM   36  C   UNK N   1      19.991  16.190   7.725  0.00  0.00     0.103 A 
HETATM   37  C   UNK N   1      21.144  15.509   8.141  0.00  0.00     0.036 A 
HETATM   38  C   UNK N   1      22.118  15.155   7.209  0.00  0.00     0.003 A 
HETATM   39  C   UNK N   1      21.948  15.498   5.867  0.00  0.00     0.008 A 
BRANCH  36  40
HETATM   40  N   UNK N   1      19.055  16.657   8.682  0.00  0.00    -0.116 N 
HETATM   41  O   UNK N   1      19.103  17.898   9.108  0.00  0.00    -0.532 OA
HETATM   42  O   UNK N   1      18.147  15.953   9.022  0.00  0.00    -0.532 OA
ENDBRANCH  36  40
ENDBRANCH  26  34
BRANCH  27  43
HETATM   43  C   UNK N   1      20.241  13.904   3.173  0.00  0.00     0.291 C 
HETATM   44  O   UNK N   1      19.366  13.336   3.803  0.00  0.00    -0.260 OA
BRANCH  43  45
HETATM   45  O   UNK N   1      21.338  13.202   2.801  0.00  0.00    -0.323 OA
HETATM   46  C   UNK N   1      22.116  12.516   3.706  0.00  0.00     0.213 C 
ENDBRANCH  43  45
ENDBRANCH  27  43
ENDBRANCH   2  25
TORSDOF 12
ENDMDL
MODEL 8
REMARK VINA RESULT:      -8.1      1.939      5.081
REMARK  12 active torsions:
REMARK  status: ('A' for Active; 'I' for Inactive)
REMARK    1  A    between atoms: O_1  and  C_23 
REMARK    2  A    between atoms: O_1  and  C_32 
REMARK    3  A    between atoms: O_3  and  C_40 
REMARK    4  A    between atoms: N_7  and  C_17 
REMARK    5  A    between atoms: N_9  and  C_42 
REMARK    6  A    between atoms: C_10  and  C_15 
REMARK    7  A    between atoms: C_10  and  C_16 
REMARK    8  A    between atoms: C_17  and  C_18 
REMARK    9  A    between atoms: C_18  and  C_23 
REMARK   10  A    between atoms: C_30  and  C_35 
REMARK   11  A    between atoms: C_31  and  C_32 
REMARK   12  A    between atoms: C_33  and  C_40 
ROOT
HETATM    1  O   UNK N   1      23.379  14.324   1.162  0.00  0.00    -0.259 OA
HETATM    2  C   UNK N   1      23.788  14.659   2.261  0.00  0.00     0.292 C 
ENDROOT
BRANCH   2   3
HETATM    3  O   UNK N   1      24.894  15.432   2.344  0.00  0.00    -0.318 OA
BRANCH   3   4
HETATM    4  C   UNK N   1      26.012  15.239   1.558  0.00  0.00     0.180 C 
BRANCH   4   5
HETATM    5  C   UNK N   1      27.159  14.717   2.421  0.00  0.00     0.057 C 
BRANCH   5   6
HETATM    6  C   UNK N   1      28.525  15.284   2.002  0.00  0.00     0.274 C 
BRANCH   6   7
HETATM    7  N   UNK N   1      29.548  15.046   3.024  0.00  0.00     0.088 N 
HETATM    8  C   UNK N   1      30.274  16.281   3.344  0.00  0.00     0.273 C 
HETATM    9  C   UNK N   1      29.448  17.185   4.236  0.00  0.00     0.049 C 
HETATM   10  C   UNK N   1      28.912  16.465   5.491  0.00  0.00     0.017 C 
HETATM   11  C   UNK N   1      29.344  14.984   5.516  0.00  0.00     0.049 C 
HETATM   12  C   UNK N   1      28.983  14.326   4.177  0.00  0.00     0.273 C 
BRANCH  10  13
HETATM   13  C   UNK N   1      27.385  16.487   5.465  0.00  0.00    -0.045 A 
HETATM   14  C   UNK N   1      26.689  17.519   4.816  0.00  0.00     0.008 A 
HETATM   15  C   UNK N   1      25.292  17.566   4.864  0.00  0.00     0.001 A 
HETATM   16  C   UNK N   1      24.581  16.611   5.597  0.00  0.00     0.000 A 
HETATM   17  C   UNK N   1      25.263  15.606   6.281  0.00  0.00     0.001 A 
HETATM   18  C   UNK N   1      26.652  15.545   6.213  0.00  0.00     0.008 A 
ENDBRANCH  10  13
BRANCH  10  19
HETATM   19  C   UNK N   1      29.530  17.244   6.636  0.00  0.00    -0.045 A 
HETATM   20  C   UNK N   1      28.724  18.083   7.430  0.00  0.00     0.008 A 
HETATM   21  C   UNK N   1      29.227  18.647   8.606  0.00  0.00     0.001 A 
HETATM   22  C   UNK N   1      30.526  18.349   9.022  0.00  0.00     0.000 A 
HETATM   23  C   UNK N   1      31.323  17.491   8.261  0.00  0.00     0.001 A 
HETATM   24  C   UNK N   1      30.822  16.928   7.087  0.00  0.00     0.008 A 
ENDBRANCH  10  19
ENDBRANCH   6   7
ENDBRANCH   5   6
ENDBRANCH   4   5
ENDBRANCH   3   4
ENDBRANCH   2   3
BRANCH   2  25
HETATM   25  C   UNK N   1      23.102  14.139   3.469  0.00  0.00     0.052 C 
HETATM   26  C   UNK N   1      21.998  14.961   4.100  0.00  0.00     0.101 C 
HETATM   27  C   UNK N   1      21.526  14.547   5.502  0.00  0.00     0.052 C 
HETATM   28  C   UNK N   1      21.949  13.338   5.984  0.00  0.00     0.018 C 
HETATM   29  N   UNK N   1      22.853  12.527   5.235  0.00  0.00    -0.362 N 
HETATM   30  C   UNK N   1      21.548  12.829   7.336  0.00  0.00     0.069 C 
HETATM   31  C   UNK N   1      23.488  12.985   4.047  0.00  0.00     0.018 C 
HETATM   32  H   UNK N   1      23.149  11.622   5.635  0.00  0.00     0.165 HD
HETATM   33  C   UNK N   1      24.586  12.153   3.456  0.00  0.00     0.069 C 
BRANCH  26  34
HETATM   34  C   UNK N   1      21.388  16.082   3.271  0.00  0.00    -0.042 A 
HETATM   35  C   UNK N   1      21.673  17.419   3.540  0.00  0.00     0.044 A 
HETATM   36  C   UNK N   1      21.113  18.447   2.770  0.00  0.00     0.103 A 
HETATM   37  C   UNK N   1      20.315  18.125   1.663  0.00  0.00     0.036 A 
HETATM   38  C   UNK N   1      20.040  16.790   1.369  0.00  0.00     0.003 A 
HETATM   39  C   UNK N   1      20.548  15.782   2.190  0.00  0.00     0.008 A 
BRANCH  36  40
HETATM   40  N   UNK N   1      21.298  19.802   3.145  0.00  0.00    -0.116 N 
HETATM   41  O   UNK N   1      22.099  20.580   2.452  0.00  0.00    -0.532 OA
HETATM   42  O   UNK N   1      20.639  20.274   4.027  0.00  0.00    -0.532 OA
ENDBRANCH  36  40
ENDBRANCH  26  34
BRANCH  27  43
HETATM   43  C   UNK N   1      20.679  15.471   6.346  0.00  0.00     0.291 C 
HETATM   44  O   UNK N   1      21.211  16.296   7.068  0.00  0.00    -0.260 OA
BRANCH  43  45
HETATM   45  O   UNK N   1      19.331  15.346   6.380  0.00  0.00    -0.323 OA
HETATM   46  C   UNK N   1      18.525  15.755   5.341  0.00  0.00     0.213 C 
ENDBRANCH  43  45
ENDBRANCH  27  43
ENDBRANCH   2  25
TORSDOF 12
ENDMDL
MODEL 9
REMARK VINA RESULT:      -8.0     12.819     15.286
REMARK  12 active torsions:
REMARK  status: ('A' for Active; 'I' for Inactive)
REMARK    1  A    between atoms: O_1  and  C_23 
REMARK    2  A    between atoms: O_1  and  C_32 
REMARK    3  A    between atoms: O_3  and  C_40 
REMARK    4  A    between atoms: N_7  and  C_17 
REMARK    5  A    between atoms: N_9  and  C_42 
REMARK    6  A    between atoms: C_10  and  C_15 
REMARK    7  A    between atoms: C_10  and  C_16 
REMARK    8  A    between atoms: C_17  and  C_18 
REMARK    9  A    between atoms: C_18  and  C_23 
REMARK   10  A    between atoms: C_30  and  C_35 
REMARK   11  A    between atoms: C_31  and  C_32 
REMARK   12  A    between atoms: C_33  and  C_40 
ROOT
HETATM    1  O   UNK N   1      24.510  26.109  -5.821  0.00  0.00    -0.259 OA
HETATM    2  C   UNK N   1      25.648  26.217  -5.395  0.00  0.00     0.292 C 
ENDROOT
BRANCH   2   3
HETATM    3  O   UNK N   1      26.089  25.340  -4.465  0.00  0.00    -0.318 OA
BRANCH   3   4
HETATM    4  C   UNK N   1      26.552  24.077  -4.775  0.00  0.00     0.180 C 
BRANCH   4   5
HETATM    5  C   UNK N   1      28.072  24.039  -4.625  0.00  0.00     0.057 C 
BRANCH   5   6
HETATM    6  C   UNK N   1      28.520  23.631  -3.212  0.00  0.00     0.274 C 
BRANCH   6   7
HETATM    7  N   UNK N   1      29.900  24.039  -2.942  0.00  0.00     0.088 N 
HETATM    8  C   UNK N   1      30.646  22.971  -2.268  0.00  0.00     0.273 C 
HETATM    9  C   UNK N   1      31.051  21.886  -3.245  0.00  0.00     0.049 C 
HETATM   10  C   UNK N   1      31.786  22.437  -4.485  0.00  0.00     0.017 C 
HETATM   11  C   UNK N   1      31.914  23.973  -4.426  0.00  0.00     0.049 C 
HETATM   12  C   UNK N   1      30.533  24.588  -4.153  0.00  0.00     0.273 C 
BRANCH  10  13
HETATM   13  C   UNK N   1      30.977  22.102  -5.735  0.00  0.00    -0.045 A 
HETATM   14  C   UNK N   1      30.143  20.972  -5.774  0.00  0.00     0.008 A 
HETATM   15  C   UNK N   1      29.465  20.636  -6.951  0.00  0.00     0.001 A 
HETATM   16  C   UNK N   1      29.648  21.397  -8.110  0.00  0.00     0.000 A 
HETATM   17  C   UNK N   1      30.505  22.496  -8.095  0.00  0.00     0.001 A 
HETATM   18  C   UNK N   1      31.161  22.845  -6.917  0.00  0.00     0.008 A 
ENDBRANCH  10  13
BRANCH  10  19
HETATM   19  C   UNK N   1      33.143  21.763  -4.419  0.00  0.00    -0.045 A 
HETATM   20  C   UNK N   1      33.241  20.418  -4.013  0.00  0.00     0.008 A 
HETATM   21  C   UNK N   1      34.446  19.722  -4.139  0.00  0.00     0.001 A 
HETATM   22  C   UNK N   1      35.557  20.349  -4.709  0.00  0.00     0.000 A 
HETATM   23  C   UNK N   1      35.463  21.671  -5.148  0.00  0.00     0.001 A 
HETATM   24  C   UNK N   1      34.260  22.367  -5.020  0.00  0.00     0.008 A 
ENDBRANCH  10  19
ENDBRANCH   6   7
ENDBRANCH   5   6
ENDBRANCH   4   5
ENDBRANCH   3   4
ENDBRANCH   2   3
BRANCH   2  25
HETATM   25  C   UNK N   1      26.479  27.356  -5.855  0.00  0.00     0.052 C 
HETATM   26  C   UNK N   1      27.215  27.245  -7.173  0.00  0.00     0.101 C 
HETATM   27  C   UNK N   1      28.293  28.300  -7.469  0.00  0.00     0.052 C 
HETATM   28  C   UNK N   1      28.349  29.396  -6.652  0.00  0.00     0.018 C 
HETATM   29  N   UNK N   1      27.482  29.516  -5.526  0.00  0.00    -0.362 N 
HETATM   30  C   UNK N   1      29.355  30.491  -6.849  0.00  0.00     0.069 C 
HETATM   31  C   UNK N   1      26.640  28.455  -5.092  0.00  0.00     0.018 C 
HETATM   32  H   UNK N   1      27.557  30.359  -4.934  0.00  0.00     0.165 HD
HETATM   33  C   UNK N   1      25.935  28.592  -3.775  0.00  0.00     0.069 C 
BRANCH  26  34
HETATM   34  C   UNK N   1      26.783  26.148  -8.135  0.00  0.00    -0.042 A 
HETATM   35  C   UNK N   1      25.879  26.404  -9.165  0.00  0.00     0.044 A 
HETATM   36  C   UNK N   1      25.489  25.392 -10.052  0.00  0.00     0.103 A 
HETATM   37  C   UNK N   1      26.074  24.122  -9.952  0.00  0.00     0.036 A 
HETATM   38  C   UNK N   1      26.997  23.859  -8.940  0.00  0.00     0.003 A 
HETATM   39  C   UNK N   1      27.319  24.858  -8.021  0.00  0.00     0.008 A 
BRANCH  36  40
HETATM   40  N   UNK N   1      24.464  25.631 -11.002  0.00  0.00    -0.116 N 
HETATM   41  O   UNK N   1      23.855  26.794 -11.045  0.00  0.00    -0.532 OA
HETATM   42  O   UNK N   1      24.225  24.812 -11.844  0.00  0.00    -0.532 OA
ENDBRANCH  36  40
ENDBRANCH  26  34
BRANCH  27  43
HETATM   43  C   UNK N   1      29.297  28.101  -8.580  0.00  0.00     0.291 C 
HETATM   44  O   UNK N   1      28.997  28.370  -9.729  0.00  0.00    -0.260 OA
BRANCH  43  45
HETATM   45  O   UNK N   1      30.509  27.547  -8.334  0.00  0.00    -0.323 OA
HETATM   46  C   UNK N   1      30.691  26.557  -7.395  0.00  0.00     0.213 C 
ENDBRANCH  43  45
ENDBRANCH  27  43
ENDBRANCH   2  25
TORSDOF 12
ENDMDL
