MODEL 1
REMARK VINA RESULT:      -6.1      0.000      0.000
REMARK  16 active torsions:
REMARK  status: ('A' for Active; 'I' for Inactive)
REMARK    1  A    between atoms: O_1  and  C_17 
REMARK    2  A    between atoms: O_1  and  C_26 
REMARK    3  A    between atoms: O_2  and  C_18 
REMARK    4  A    between atoms: O_2  and  C_27 
REMARK    5  A    between atoms: O_5  and  C_28 
REMARK    6  A    between atoms: O_5  and  C_30 
REMARK    7  A    between atoms: O_6  and  C_29 
REMARK    8  A    between atoms: O_6  and  C_31 
REMARK    9  A    between atoms: N_10  and  C_23 
REMARK   10  A    between atoms: C_11  and  C_14 
REMARK   11  A    between atoms: C_12  and  C_17 
REMARK   12  A    between atoms: C_13  and  C_18 
REMARK   13  A    between atoms: C_26  and  C_28 
REMARK   14  A    between atoms: C_27  and  C_29 
REMARK   15  A    between atoms: C_30  and  C_32 
REMARK   16  A    between atoms: C_31  and  C_33 
ROOT
HETATM    1  N   UNK N   1      19.850  17.916   0.724  0.00  0.00    -0.362 N 
HETATM    2  C   UNK N   1      20.910  16.781   3.131  0.00  0.00     0.101 A 
HETATM    3  C   UNK N   1      20.979  18.315   2.820  0.00  0.00     0.052 A 
HETATM    4  C   UNK N   1      20.203  15.892   2.026  0.00  0.00     0.052 A 
HETATM    5  C   UNK N   1      20.449  18.781   1.656  0.00  0.00     0.018 A 
HETATM    6  C   UNK N   1      19.738  16.521   0.897  0.00  0.00     0.018 A 
HETATM    7  C   UNK N   1      20.526  20.226   1.243  0.00  0.00     0.069 C 
HETATM    8  C   UNK N   1      19.071  15.801  -0.239  0.00  0.00     0.069 C 
HETATM    9  H   UNK N   1      19.502  18.324  -0.158  0.00  0.00     0.165 HD
ENDROOT
BRANCH   2  10
HETATM   10  C   UNK N   1      21.182  16.308   4.596  0.00  0.00    -0.042 A 
HETATM   11  C   UNK N   1      20.292  16.613   5.648  0.00  0.00     0.044 A 
HETATM   12  C   UNK N   1      20.604  16.326   6.993  0.00  0.00     0.103 A 
HETATM   13  C   UNK N   1      21.790  15.652   7.290  0.00  0.00     0.036 A 
HETATM   14  C   UNK N   1      22.672  15.319   6.269  0.00  0.00     0.003 A 
HETATM   15  C   UNK N   1      22.386  15.692   4.954  0.00  0.00     0.008 A 
BRANCH  12  16
HETATM   16  N   UNK N   1      19.769  16.790   8.050  0.00  0.00    -0.116 N 
HETATM   17  O   UNK N   1      20.009  17.957   8.614  0.00  0.00    -0.532 OA
HETATM   18  O   UNK N   1      18.782  16.190   8.346  0.00  0.00    -0.532 OA
ENDBRANCH  12  16
ENDBRANCH   2  10
BRANCH   3  19
HETATM   19  C   UNK N   1      21.685  19.306   3.713  0.00  0.00     0.292 C 
HETATM   20  O   UNK N   1      21.066  19.919   4.571  0.00  0.00    -0.259 OA
BRANCH  19  21
HETATM   21  O   UNK N   1      23.033  19.448   3.628  0.00  0.00    -0.316 OA
BRANCH  21  22
HETATM   22  C   UNK N   1      23.642  20.494   2.983  0.00  0.00     0.205 C 
BRANCH  22  23
HETATM   23  C   UNK N   1      25.141  20.263   2.890  0.00  0.00     0.194 C 
BRANCH  23  24
HETATM   24  O   UNK N   1      25.658  19.894   4.139  0.00  0.00    -0.389 OA
BRANCH  24  25
HETATM   25  C   UNK N   1      27.017  20.247   4.122  0.00  0.00     0.167 C 
BRANCH  25  26
HETATM   26  C   UNK N   1      27.606  20.233   5.522  0.00  0.00     0.022 C 
HETATM   27  C   UNK N   1      27.270  21.522   6.247  0.00  0.00     0.007 C 
ENDBRANCH  25  26
ENDBRANCH  24  25
ENDBRANCH  23  24
ENDBRANCH  22  23
ENDBRANCH  21  22
ENDBRANCH  19  21
ENDBRANCH   3  19
BRANCH   4  28
HETATM   28  C   UNK N   1      20.052  14.370   2.108  0.00  0.00     0.292 C 
HETATM   29  O   UNK N   1      20.980  13.621   1.896  0.00  0.00    -0.259 OA
BRANCH  28  30
HETATM   30  O   UNK N   1      18.859  13.806   2.392  0.00  0.00    -0.316 OA
BRANCH  30  31
HETATM   31  C   UNK N   1      18.626  12.485   2.092  0.00  0.00     0.205 C 
BRANCH  31  32
HETATM   32  C   UNK N   1      18.007  11.773   3.273  0.00  0.00     0.194 C 
BRANCH  32  33
HETATM   33  O   UNK N   1      18.468  12.337   4.463  0.00  0.00    -0.389 OA
BRANCH  33  34
HETATM   34  C   UNK N   1      19.520  11.515   4.869  0.00  0.00     0.167 C 
BRANCH  34  35
HETATM   35  C   UNK N   1      20.704  12.358   5.315  0.00  0.00     0.022 C 
HETATM   36  C   UNK N   1      21.157  11.948   6.704  0.00  0.00     0.007 C 
ENDBRANCH  34  35
ENDBRANCH  33  34
ENDBRANCH  32  33
ENDBRANCH  31  32
ENDBRANCH  30  31
ENDBRANCH  28  30
ENDBRANCH   4  28
TORSDOF 16
ENDMDL
MODEL 2
REMARK VINA RESULT:      -6.1      1.650      6.318
REMARK  16 active torsions:
REMARK  status: ('A' for Active; 'I' for Inactive)
REMARK    1  A    between atoms: O_1  and  C_17 
REMARK    2  A    between atoms: O_1  and  C_26 
REMARK    3  A    between atoms: O_2  and  C_18 
REMARK    4  A    between atoms: O_2  and  C_27 
REMARK    5  A    between atoms: O_5  and  C_28 
REMARK    6  A    between atoms: O_5  and  C_30 
REMARK    7  A    between atoms: O_6  and  C_29 
REMARK    8  A    between atoms: O_6  and  C_31 
REMARK    9  A    between atoms: N_10  and  C_23 
REMARK   10  A    between atoms: C_11  and  C_14 
REMARK   11  A    between atoms: C_12  and  C_17 
REMARK   12  A    between atoms: C_13  and  C_18 
REMARK   13  A    between atoms: C_26  and  C_28 
REMARK   14  A    between atoms: C_27  and  C_29 
REMARK   15  A    between atoms: C_30  and  C_32 
REMARK   16  A    between atoms: C_31  and  C_33 
ROOT
HETATM    1  N   UNK N   1      20.068  17.777   0.740  0.00  0.00    -0.362 N 
HETATM    2  C   UNK N   1      20.810  16.806   3.331  0.00  0.00     0.101 A 
HETATM    3  C   UNK N   1      20.223  15.874   2.217  0.00  0.00     0.052 A 
HETATM    4  C   UNK N   1      20.978  18.329   2.927  0.00  0.00     0.052 A 
HETATM    5  C   UNK N   1      19.898  16.407   1.007  0.00  0.00     0.018 A 
HETATM    6  C   UNK N   1      20.581  18.706   1.667  0.00  0.00     0.018 A 
HETATM    7  C   UNK N   1      19.269  15.604  -0.098  0.00  0.00     0.069 C 
HETATM    8  C   UNK N   1      20.660  20.118   1.160  0.00  0.00     0.069 C 
HETATM    9  H   UNK N   1      19.766  18.128  -0.182  0.00  0.00     0.165 HD
ENDROOT
BRANCH   2  10
HETATM   10  C   UNK N   1      21.510  16.142   4.561  0.00  0.00    -0.042 A 
HETATM   11  C   UNK N   1      20.790  15.799   5.725  0.00  0.00     0.044 A 
HETATM   12  C   UNK N   1      21.436  15.344   6.892  0.00  0.00     0.103 A 
HETATM   13  C   UNK N   1      22.819  15.153   6.877  0.00  0.00     0.036 A 
HETATM   14  C   UNK N   1      23.548  15.461   5.735  0.00  0.00     0.003 A 
HETATM   15  C   UNK N   1      22.901  15.994   4.619  0.00  0.00     0.008 A 
BRANCH  12  16
HETATM   16  N   UNK N   1      20.709  15.162   8.104  0.00  0.00    -0.116 N 
HETATM   17  O   UNK N   1      20.532  16.179   8.925  0.00  0.00    -0.532 OA
HETATM   18  O   UNK N   1      20.153  14.130   8.325  0.00  0.00    -0.532 OA
ENDBRANCH  12  16
ENDBRANCH   2  10
BRANCH   3  19
HETATM   19  C   UNK N   1      19.916  14.413   2.442  0.00  0.00     0.292 C 
HETATM   20  O   UNK N   1      18.787  14.056   2.746  0.00  0.00    -0.259 OA
BRANCH  19  21
HETATM   21  O   UNK N   1      20.875  13.480   2.210  0.00  0.00    -0.316 OA
BRANCH  21  22
HETATM   22  C   UNK N   1      20.926  12.717   1.071  0.00  0.00     0.205 C 
BRANCH  22  23
HETATM   23  C   UNK N   1      22.281  12.851   0.399  0.00  0.00     0.194 C 
BRANCH  23  24
HETATM   24  O   UNK N   1      22.694  14.189   0.392  0.00  0.00    -0.389 OA
BRANCH  24  25
HETATM   25  C   UNK N   1      24.087  14.173   0.573  0.00  0.00     0.167 C 
BRANCH  25  26
HETATM   26  C   UNK N   1      24.448  14.035   2.042  0.00  0.00     0.022 C 
HETATM   27  C   UNK N   1      25.746  14.762   2.335  0.00  0.00     0.007 C 
ENDBRANCH  25  26
ENDBRANCH  24  25
ENDBRANCH  23  24
ENDBRANCH  22  23
ENDBRANCH  21  22
ENDBRANCH  19  21
ENDBRANCH   3  19
BRANCH   4  28
HETATM   28  C   UNK N   1      21.502  19.420   3.866  0.00  0.00     0.292 C 
HETATM   29  O   UNK N   1      20.920  19.724   4.883  0.00  0.00    -0.259 OA
BRANCH  28  30
HETATM   30  O   UNK N   1      22.627  20.106   3.572  0.00  0.00    -0.316 OA
BRANCH  30  31
HETATM   31  C   UNK N   1      23.845  19.468   3.560  0.00  0.00     0.205 C 
BRANCH  31  32
HETATM   32  C   UNK N   1      24.926  20.397   3.054  0.00  0.00     0.194 C 
BRANCH  32  33
HETATM   33  O   UNK N   1      26.182  19.898   3.400  0.00  0.00    -0.389 OA
BRANCH  33  34
HETATM   34  C   UNK N   1      26.220  19.954   4.794  0.00  0.00     0.167 C 
BRANCH  34  35
HETATM   35  C   UNK N   1      27.528  20.576   5.259  0.00  0.00     0.022 C 
HETATM   36  C   UNK N   1      27.269  21.617   6.334  0.00  0.00     0.007 C 
ENDBRANCH  34  35
ENDBRANCH  33  34
ENDBRANCH  32  33
ENDBRANCH  31  32
ENDBRANCH  30  31
ENDBRANCH  28  30
ENDBRANCH   4  28
TORSDOF 16
ENDMDL
MODEL 3
REMARK VINA RESULT:      -6.0      1.571      2.585
REMARK  16 active torsions:
REMARK  status: ('A' for Active; 'I' for Inactive)
REMARK    1  A    between atoms: O_1  and  C_17 
REMARK    2  A    between atoms: O_1  and  C_26 
REMARK    3  A    between atoms: O_2  and  C_18 
REMARK    4  A    between atoms: O_2  and  C_27 
REMARK    5  A    between atoms: O_5  and  C_28 
REMARK    6  A    between atoms: O_5  and  C_30 
REMARK    7  A    between atoms: O_6  and  C_29 
REMARK    8  A    between atoms: O_6  and  C_31 
REMARK    9  A    between atoms: N_10  and  C_23 
REMARK   10  A    between atoms: C_11  and  C_14 
REMARK   11  A    between atoms: C_12  and  C_17 
REMARK   12  A    between atoms: C_13  and  C_18 
REMARK   13  A    between atoms: C_26  and  C_28 
REMARK   14  A    between atoms: C_27  and  C_29 
REMARK   15  A    between atoms: C_30  and  C_32 
REMARK   16  A    between atoms: C_31  and  C_33 
ROOT
HETATM    1  N   UNK N   1      19.937  17.961   0.834  0.00  0.00    -0.362 N 
HETATM    2  C   UNK N   1      20.854  16.730   3.253  0.00  0.00     0.101 A 
HETATM    3  C   UNK N   1      21.034  18.260   2.964  0.00  0.00     0.052 A 
HETATM    4  C   UNK N   1      20.118  15.904   2.119  0.00  0.00     0.052 A 
HETATM    5  C   UNK N   1      20.567  18.774   1.793  0.00  0.00     0.018 A 
HETATM    6  C   UNK N   1      19.727  16.576   0.987  0.00  0.00     0.018 A 
HETATM    7  C   UNK N   1      20.753  20.214   1.401  0.00  0.00     0.069 C 
HETATM    8  C   UNK N   1      19.043  15.915  -0.176  0.00  0.00     0.069 C 
HETATM    9  H   UNK N   1      19.641  18.402  -0.050  0.00  0.00     0.165 HD
ENDROOT
BRANCH   2  10
HETATM   10  C   UNK N   1      21.054  16.224   4.718  0.00  0.00    -0.042 A 
HETATM   11  C   UNK N   1      20.165  16.585   5.753  0.00  0.00     0.044 A 
HETATM   12  C   UNK N   1      20.421  16.261   7.101  0.00  0.00     0.103 A 
HETATM   13  C   UNK N   1      21.547  15.497   7.418  0.00  0.00     0.036 A 
HETATM   14  C   UNK N   1      22.425  15.109   6.414  0.00  0.00     0.003 A 
HETATM   15  C   UNK N   1      22.200  15.515   5.097  0.00  0.00     0.008 A 
BRANCH  12  16
HETATM   16  N   UNK N   1      19.598  16.777   8.144  0.00  0.00    -0.116 N 
HETATM   17  O   UNK N   1      18.341  16.392   8.242  0.00  0.00    -0.532 OA
HETATM   18  O   UNK N   1      20.070  17.457   9.003  0.00  0.00    -0.532 OA
ENDBRANCH  12  16
ENDBRANCH   2  10
BRANCH   3  19
HETATM   19  C   UNK N   1      21.781  19.191   3.888  0.00  0.00     0.292 C 
HETATM   20  O   UNK N   1      21.207  19.731   4.822  0.00  0.00    -0.259 OA
BRANCH  19  21
HETATM   21  O   UNK N   1      23.121  19.355   3.740  0.00  0.00    -0.316 OA
BRANCH  21  22
HETATM   22  C   UNK N   1      24.051  18.643   4.453  0.00  0.00     0.205 C 
BRANCH  22  23
HETATM   23  C   UNK N   1      25.367  18.578   3.697  0.00  0.00     0.194 C 
BRANCH  23  24
HETATM   24  O   UNK N   1      25.789  19.864   3.336  0.00  0.00    -0.389 OA
BRANCH  24  25
HETATM   25  C   UNK N   1      27.045  20.049   3.936  0.00  0.00     0.167 C 
BRANCH  25  26
HETATM   26  C   UNK N   1      26.938  20.913   5.181  0.00  0.00     0.022 C 
HETATM   27  C   UNK N   1      27.536  20.192   6.374  0.00  0.00     0.007 C 
ENDBRANCH  25  26
ENDBRANCH  24  25
ENDBRANCH  23  24
ENDBRANCH  22  23
ENDBRANCH  21  22
ENDBRANCH  19  21
ENDBRANCH   3  19
BRANCH   4  28
HETATM   28  C   UNK N   1      19.863  14.394   2.177  0.00  0.00     0.292 C 
HETATM   29  O   UNK N   1      18.844  13.934   2.644  0.00  0.00    -0.259 OA
BRANCH  28  30
HETATM   30  O   UNK N   1      20.787  13.517   1.732  0.00  0.00    -0.316 OA
BRANCH  30  31
HETATM   31  C   UNK N   1      21.498  12.747   2.621  0.00  0.00     0.205 C 
BRANCH  31  32
HETATM   32  C   UNK N   1      22.978  13.036   2.510  0.00  0.00     0.194 C 
BRANCH  32  33
HETATM   33  O   UNK N   1      23.340  13.150   1.167  0.00  0.00    -0.389 OA
BRANCH  33  34
HETATM   34  C   UNK N   1      23.755  14.475   1.017  0.00  0.00     0.167 C 
BRANCH  34  35
HETATM   35  C   UNK N   1      24.578  14.907   2.220  0.00  0.00     0.022 C 
HETATM   36  C   UNK N   1      26.007  15.208   1.805  0.00  0.00     0.007 C 
ENDBRANCH  34  35
ENDBRANCH  33  34
ENDBRANCH  32  33
ENDBRANCH  31  32
ENDBRANCH  30  31
ENDBRANCH  28  30
ENDBRANCH   4  28
TORSDOF 16
ENDMDL
MODEL 4
REMARK VINA RESULT:      -5.9      2.176      5.052
REMARK  16 active torsions:
REMARK  status: ('A' for Active; 'I' for Inactive)
REMARK    1  A    between atoms: O_1  and  C_17 
REMARK    2  A    between atoms: O_1  and  C_26 
REMARK    3  A    between atoms: O_2  and  C_18 
REMARK    4  A    between atoms: O_2  and  C_27 
REMARK    5  A    between atoms: O_5  and  C_28 
REMARK    6  A    between atoms: O_5  and  C_30 
REMARK    7  A    between atoms: O_6  and  C_29 
REMARK    8  A    between atoms: O_6  and  C_31 
REMARK    9  A    between atoms: N_10  and  C_23 
REMARK   10  A    between atoms: C_11  and  C_14 
REMARK   11  A    between atoms: C_12  and  C_17 
REMARK   12  A    between atoms: C_13  and  C_18 
REMARK   13  A    between atoms: C_26  and  C_28 
REMARK   14  A    between atoms: C_27  and  C_29 
REMARK   15  A    between atoms: C_30  and  C_32 
REMARK   16  A    between atoms: C_31  and  C_33 
ROOT
HETATM    1  N   UNK N   1      23.920  13.900   6.396  0.00  0.00    -0.362 N 
HETATM    2  C   UNK N   1      22.759  15.987   4.813  0.00  0.00     0.101 A 
HETATM    3  C   UNK N   1      24.029  15.189   4.358  0.00  0.00     0.052 A 
HETATM    4  C   UNK N   1      22.148  15.556   6.210  0.00  0.00     0.052 A 
HETATM    5  C   UNK N   1      24.520  14.207   5.163  0.00  0.00     0.018 A 
HETATM    6  C   UNK N   1      22.780  14.555   6.906  0.00  0.00     0.018 A 
HETATM    7  C   UNK N   1      25.770  13.435   4.839  0.00  0.00     0.069 C 
HETATM    8  C   UNK N   1      22.326  14.064   8.251  0.00  0.00     0.069 C 
HETATM    9  H   UNK N   1      24.362  13.173   6.979  0.00  0.00     0.165 HD
ENDROOT
BRANCH   2  10
HETATM   10  C   UNK N   1      21.998  16.840   3.748  0.00  0.00    -0.042 A 
HETATM   11  C   UNK N   1      22.008  18.250   3.786  0.00  0.00     0.044 A 
HETATM   12  C   UNK N   1      21.202  19.023   2.924  0.00  0.00     0.103 A 
HETATM   13  C   UNK N   1      20.429  18.383   1.954  0.00  0.00     0.036 A 
HETATM   14  C   UNK N   1      20.421  16.995   1.881  0.00  0.00     0.003 A 
HETATM   15  C   UNK N   1      21.157  16.245   2.800  0.00  0.00     0.008 A 
BRANCH  12  16
HETATM   16  N   UNK N   1      21.103  20.435   3.091  0.00  0.00    -0.116 N 
HETATM   17  O   UNK N   1      20.139  20.945   3.833  0.00  0.00    -0.532 OA
HETATM   18  O   UNK N   1      21.956  21.153   2.667  0.00  0.00    -0.532 OA
ENDBRANCH  12  16
ENDBRANCH   2  10
BRANCH   3  19
HETATM   19  C   UNK N   1      24.797  15.510   3.099  0.00  0.00     0.292 C 
HETATM   20  O   UNK N   1      24.466  15.022   2.028  0.00  0.00    -0.259 OA
BRANCH  19  21
HETATM   21  O   UNK N   1      25.802  16.423   3.137  0.00  0.00    -0.316 OA
BRANCH  21  22
HETATM   22  C   UNK N   1      25.778  17.538   3.936  0.00  0.00     0.205 C 
BRANCH  22  23
HETATM   23  C   UNK N   1      27.169  18.133   4.063  0.00  0.00     0.194 C 
BRANCH  23  24
HETATM   24  O   UNK N   1      27.135  19.513   3.823  0.00  0.00    -0.389 OA
BRANCH  24  25
HETATM   25  C   UNK N   1      28.026  20.094   4.739  0.00  0.00     0.167 C 
BRANCH  25  26
HETATM   26  C   UNK N   1      27.398  20.214   6.117  0.00  0.00     0.022 C 
HETATM   27  C   UNK N   1      26.806  21.598   6.307  0.00  0.00     0.007 C 
ENDBRANCH  25  26
ENDBRANCH  24  25
ENDBRANCH  23  24
ENDBRANCH  22  23
ENDBRANCH  21  22
ENDBRANCH  19  21
ENDBRANCH   3  19
BRANCH   4  28
HETATM   28  C   UNK N   1      20.930  16.218   6.862  0.00  0.00     0.292 C 
HETATM   29  O   UNK N   1      21.022  17.246   7.495  0.00  0.00    -0.259 OA
BRANCH  28  30
HETATM   30  O   UNK N   1      19.706  15.656   6.775  0.00  0.00    -0.316 OA
BRANCH  30  31
HETATM   31  C   UNK N   1      18.896  15.917   5.695  0.00  0.00     0.205 C 
BRANCH  31  32
HETATM   32  C   UNK N   1      18.752  14.687   4.829  0.00  0.00     0.194 C 
BRANCH  32  33
HETATM   33  O   UNK N   1      19.331  13.588   5.464  0.00  0.00    -0.389 OA
BRANCH  33  34
HETATM   34  C   UNK N   1      19.659  12.707   4.431  0.00  0.00     0.167 C 
BRANCH  34  35
HETATM   35  C   UNK N   1      21.143  12.380   4.471  0.00  0.00     0.022 C 
HETATM   36  C   UNK N   1      21.773  12.598   3.107  0.00  0.00     0.007 C 
ENDBRANCH  34  35
ENDBRANCH  33  34
ENDBRANCH  32  33
ENDBRANCH  31  32
ENDBRANCH  30  31
ENDBRANCH  28  30
ENDBRANCH   4  28
TORSDOF 16
ENDMDL
MODEL 5
REMARK VINA RESULT:      -5.9      7.006     11.437
REMARK  16 active torsions:
REMARK  status: ('A' for Active; 'I' for Inactive)
REMARK    1  A    between atoms: O_1  and  C_17 
REMARK    2  A    between atoms: O_1  and  C_26 
REMARK    3  A    between atoms: O_2  and  C_18 
REMARK    4  A    between atoms: O_2  and  C_27 
REMARK    5  A    between atoms: O_5  and  C_28 
REMARK    6  A    between atoms: O_5  and  C_30 
REMARK    7  A    between atoms: O_6  and  C_29 
REMARK    8  A    between atoms: O_6  and  C_31 
REMARK    9  A    between atoms: N_10  and  C_23 
REMARK   10  A    between atoms: C_11  and  C_14 
REMARK   11  A    between atoms: C_12  and  C_17 
REMARK   12  A    between atoms: C_13  and  C_18 
REMARK   13  A    between atoms: C_26  and  C_28 
REMARK   14  A    between atoms: C_27  and  C_29 
REMARK   15  A    between atoms: C_30  and  C_32 
REMARK   16  A    between atoms: C_31  and  C_33 
ROOT
HETATM    1  N   UNK N   1      31.810  18.145   8.882  0.00  0.00    -0.362 N 
HETATM    2  C   UNK N   1      30.789  17.200   6.378  0.00  0.00     0.101 A 
HETATM    3  C   UNK N   1      32.324  17.308   6.677  0.00  0.00     0.052 A 
HETATM    4  C   UNK N   1      29.832  17.640   7.560  0.00  0.00     0.052 A 
HETATM    5  C   UNK N   1      32.733  17.763   7.893  0.00  0.00     0.018 A 
HETATM    6  C   UNK N   1      30.411  18.094   8.720  0.00  0.00     0.018 A 
HETATM    7  C   UNK N   1      34.182  17.961   8.246  0.00  0.00     0.069 C 
HETATM    8  C   UNK N   1      29.626  18.566   9.911  0.00  0.00     0.069 C 
HETATM    9  H   UNK N   1      32.182  18.519   9.769  0.00  0.00     0.165 HD
ENDROOT
BRANCH   2  10
HETATM   10  C   UNK N   1      30.332  16.352   5.147  0.00  0.00    -0.042 A 
HETATM   11  C   UNK N   1      30.171  14.952   5.233  0.00  0.00     0.044 A 
HETATM   12  C   UNK N   1      29.909  14.163   4.094  0.00  0.00     0.103 A 
HETATM   13  C   UNK N   1      29.728  14.786   2.858  0.00  0.00     0.036 A 
HETATM   14  C   UNK N   1      29.857  16.165   2.752  0.00  0.00     0.003 A 
HETATM   15  C   UNK N   1      30.204  16.920   3.874  0.00  0.00     0.008 A 
BRANCH  12  16
HETATM   16  N   UNK N   1      29.916  12.740   4.176  0.00  0.00    -0.116 N 
HETATM   17  O   UNK N   1      30.626  12.138   5.109  0.00  0.00    -0.532 OA
HETATM   18  O   UNK N   1      29.188  12.093   3.487  0.00  0.00    -0.532 OA
ENDBRANCH  12  16
ENDBRANCH   2  10
BRANCH   3  19
HETATM   19  C   UNK N   1      33.387  17.012   5.647  0.00  0.00     0.292 C 
HETATM   20  O   UNK N   1      33.718  17.863   4.834  0.00  0.00    -0.259 OA
BRANCH  19  21
HETATM   21  O   UNK N   1      34.050  15.828   5.685  0.00  0.00    -0.316 OA
BRANCH  21  22
HETATM   22  C   UNK N   1      33.864  14.829   4.764  0.00  0.00     0.205 C 
BRANCH  22  23
HETATM   23  C   UNK N   1      34.083  13.468   5.402  0.00  0.00     0.194 C 
BRANCH  23  24
HETATM   24  O   UNK N   1      33.283  13.327   6.543  0.00  0.00    -0.389 OA
BRANCH  24  25
HETATM   25  C   UNK N   1      34.131  12.870   7.565  0.00  0.00     0.167 C 
BRANCH  25  26
HETATM   26  C   UNK N   1      33.629  13.306   8.931  0.00  0.00     0.022 C 
HETATM   27  C   UNK N   1      32.479  14.283   8.782  0.00  0.00     0.007 C 
ENDBRANCH  25  26
ENDBRANCH  24  25
ENDBRANCH  23  24
ENDBRANCH  22  23
ENDBRANCH  21  22
ENDBRANCH  19  21
ENDBRANCH   3  19
BRANCH   4  28
HETATM   28  C   UNK N   1      28.302  17.644   7.478  0.00  0.00     0.292 C 
HETATM   29  O   UNK N   1      27.624  16.859   8.104  0.00  0.00    -0.259 OA
BRANCH  28  30
HETATM   30  O   UNK N   1      27.653  18.513   6.674  0.00  0.00    -0.316 OA
BRANCH  30  31
HETATM   31  C   UNK N   1      27.600  19.849   6.995  0.00  0.00     0.205 C 
BRANCH  31  32
HETATM   32  C   UNK N   1      27.399  20.686   5.752  0.00  0.00     0.194 C 
BRANCH  32  33
HETATM   33  O   UNK N   1      26.363  20.155   4.983  0.00  0.00    -0.389 OA
BRANCH  33  34
HETATM   34  C   UNK N   1      26.824  20.214   3.667  0.00  0.00     0.167 C 
BRANCH  34  35
HETATM   35  C   UNK N   1      25.669  20.490   2.718  0.00  0.00     0.022 C 
HETATM   36  C   UNK N   1      24.341  20.293   3.424  0.00  0.00     0.007 C 
ENDBRANCH  34  35
ENDBRANCH  33  34
ENDBRANCH  32  33
ENDBRANCH  31  32
ENDBRANCH  30  31
ENDBRANCH  28  30
ENDBRANCH   4  28
TORSDOF 16
ENDMDL
MODEL 6
REMARK VINA RESULT:      -5.8      2.944      6.581
REMARK  16 active torsions:
REMARK  status: ('A' for Active; 'I' for Inactive)
REMARK    1  A    between atoms: O_1  and  C_17 
REMARK    2  A    between atoms: O_1  and  C_26 
REMARK    3  A    between atoms: O_2  and  C_18 
REMARK    4  A    between atoms: O_2  and  C_27 
REMARK    5  A    between atoms: O_5  and  C_28 
REMARK    6  A    between atoms: O_5  and  C_30 
REMARK    7  A    between atoms: O_6  and  C_29 
REMARK    8  A    between atoms: O_6  and  C_31 
REMARK    9  A    between atoms: N_10  and  C_23 
REMARK   10  A    between atoms: C_11  and  C_14 
REMARK   11  A    between atoms: C_12  and  C_17 
REMARK   12  A    between atoms: C_13  and  C_18 
REMARK   13  A    between atoms: C_26  and  C_28 
REMARK   14  A    between atoms: C_27  and  C_29 
REMARK   15  A    between atoms: C_30  and  C_32 
REMARK   16  A    between atoms: C_31  and  C_33 
ROOT
HETATM    1  N   UNK N   1      23.348  12.753   5.159  0.00  0.00    -0.362 N 
HETATM    2  C   UNK N   1      22.328  15.213   4.103  0.00  0.00     0.101 A 
HETATM    3  C   UNK N   1      23.662  14.566   3.596  0.00  0.00     0.052 A 
HETATM    4  C   UNK N   1      21.569  14.409   5.237  0.00  0.00     0.052 A 
HETATM    5  C   UNK N   1      24.081  13.392   4.143  0.00  0.00     0.018 A 
HETATM    6  C   UNK N   1      22.141  13.246   5.693  0.00  0.00     0.018 A 
HETATM    7  C   UNK N   1      25.379  12.732   3.766  0.00  0.00     0.069 C 
HETATM    8  C   UNK N   1      21.545  12.398   6.780  0.00  0.00     0.069 C 
HETATM    9  H   UNK N   1      23.738  11.886   5.560  0.00  0.00     0.165 HD
ENDROOT
BRANCH   2  10
HETATM   10  C   UNK N   1      21.675  16.340   3.239  0.00  0.00    -0.042 A 
HETATM   11  C   UNK N   1      21.866  17.706   3.539  0.00  0.00     0.044 A 
HETATM   12  C   UNK N   1      21.159  18.721   2.862  0.00  0.00     0.103 A 
HETATM   13  C   UNK N   1      20.304  18.377   1.814  0.00  0.00     0.036 A 
HETATM   14  C   UNK N   1      20.117  17.040   1.484  0.00  0.00     0.003 A 
HETATM   15  C   UNK N   1      20.757  16.044   2.224  0.00  0.00     0.008 A 
BRANCH  12  16
HETATM   16  N   UNK N   1      21.243  20.078   3.292  0.00  0.00    -0.116 N 
HETATM   17  O   UNK N   1      22.161  20.874   2.782  0.00  0.00    -0.532 OA
HETATM   18  O   UNK N   1      20.412  20.532   4.017  0.00  0.00    -0.532 OA
ENDBRANCH  12  16
ENDBRANCH   2  10
BRANCH   3  19
HETATM   19  C   UNK N   1      24.563  15.225   2.580  0.00  0.00     0.292 C 
HETATM   20  O   UNK N   1      25.332  16.114   2.916  0.00  0.00    -0.259 OA
BRANCH  19  21
HETATM   21  O   UNK N   1      24.592  14.761   1.304  0.00  0.00    -0.316 OA
BRANCH  21  22
HETATM   22  C   UNK N   1      23.516  14.169   0.693  0.00  0.00     0.205 C 
BRANCH  22  23
HETATM   23  C   UNK N   1      23.851  12.744   0.288  0.00  0.00     0.194 C 
BRANCH  23  24
HETATM   24  O   UNK N   1      22.699  11.946   0.310  0.00  0.00    -0.389 OA
BRANCH  24  25
HETATM   25  C   UNK N   1      21.754  12.640   1.083  0.00  0.00     0.167 C 
BRANCH  25  26
HETATM   26  C   UNK N   1      21.276  11.798   2.253  0.00  0.00     0.022 C 
HETATM   27  C   UNK N   1      19.944  12.314   2.763  0.00  0.00     0.007 C 
ENDBRANCH  25  26
ENDBRANCH  24  25
ENDBRANCH  23  24
ENDBRANCH  22  23
ENDBRANCH  21  22
ENDBRANCH  19  21
ENDBRANCH   3  19
BRANCH   4  28
HETATM   28  C   UNK N   1      20.266  14.870   5.900  0.00  0.00     0.292 C 
HETATM   29  O   UNK N   1      19.198  14.364   5.633  0.00  0.00    -0.259 OA
BRANCH  28  30
HETATM   30  O   UNK N   1      20.262  15.885   6.789  0.00  0.00    -0.316 OA
BRANCH  30  31
HETATM   31  C   UNK N   1      21.055  15.828   7.911  0.00  0.00     0.205 C 
BRANCH  31  32
HETATM   32  C   UNK N   1      20.334  15.123   9.036  0.00  0.00     0.194 C 
BRANCH  32  33
HETATM   33  O   UNK N   1      21.237  14.351   9.769  0.00  0.00    -0.389 OA
BRANCH  33  34
HETATM   34  C   UNK N   1      20.484  13.283  10.259  0.00  0.00     0.167 C 
BRANCH  34  35
HETATM   35  C   UNK N   1      21.368  12.340  11.060  0.00  0.00     0.022 C 
HETATM   36  C   UNK N   1      22.676  12.090  10.332  0.00  0.00     0.007 C 
ENDBRANCH  34  35
ENDBRANCH  33  34
ENDBRANCH  32  33
ENDBRANCH  31  32
ENDBRANCH  30  31
ENDBRANCH  28  30
ENDBRANCH   4  28
TORSDOF 16
ENDMDL
MODEL 7
REMARK VINA RESULT:      -5.7      2.829      5.919
REMARK  16 active torsions:
REMARK  status: ('A' for Active; 'I' for Inactive)
REMARK    1  A    between atoms: O_1  and  C_17 
REMARK    2  A    between atoms: O_1  and  C_26 
REMARK    3  A    between atoms: O_2  and  C_18 
REMARK    4  A    between atoms: O_2  and  C_27 
REMARK    5  A    between atoms: O_5  and  C_28 
REMARK    6  A    between atoms: O_5  and  C_30 
REMARK    7  A    between atoms: O_6  and  C_29 
REMARK    8  A    between atoms: O_6  and  C_31 
REMARK    9  A    between atoms: N_10  and  C_23 
REMARK   10  A    between atoms: C_11  and  C_14 
REMARK   11  A    between atoms: C_12  and  C_17 
REMARK   12  A    between atoms: C_13  and  C_18 
REMARK   13  A    between atoms: C_26  and  C_28 
REMARK   14  A    between atoms: C_27  and  C_29 
REMARK   15  A    between atoms: C_30  and  C_32 
REMARK   16  A    between atoms: C_31  and  C_33 
ROOT
HETATM    1  N   UNK N   1      25.165  18.965   3.737  0.00  0.00    -0.362 N 
HETATM    2  C   UNK N   1      22.978  17.208   4.316  0.00  0.00     0.101 A 
HETATM    3  C   UNK N   1      24.474  16.793   4.532  0.00  0.00     0.052 A 
HETATM    4  C   UNK N   1      22.750  18.674   3.763  0.00  0.00     0.052 A 
HETATM    5  C   UNK N   1      25.459  17.686   4.239  0.00  0.00     0.018 A 
HETATM    6  C   UNK N   1      23.859  19.441   3.500  0.00  0.00     0.018 A 
HETATM    7  C   UNK N   1      26.922  17.354   4.353  0.00  0.00     0.069 C 
HETATM    8  C   UNK N   1      23.792  20.837   2.950  0.00  0.00     0.069 C 
HETATM    9  H   UNK N   1      25.957  19.582   3.497  0.00  0.00     0.165 HD
ENDROOT
BRANCH   2  10
HETATM   10  C   UNK N   1      21.864  16.339   4.984  0.00  0.00    -0.042 A 
HETATM   11  C   UNK N   1      21.429  16.582   6.305  0.00  0.00     0.044 A 
HETATM   12  C   UNK N   1      20.539  15.712   6.967  0.00  0.00     0.103 A 
HETATM   13  C   UNK N   1      20.011  14.619   6.276  0.00  0.00     0.036 A 
HETATM   14  C   UNK N   1      20.405  14.372   4.967  0.00  0.00     0.003 A 
HETATM   15  C   UNK N   1      21.355  15.194   4.359  0.00  0.00     0.008 A 
BRANCH  12  16
HETATM   16  N   UNK N   1      20.244  15.885   8.351  0.00  0.00    -0.116 N 
HETATM   17  O   UNK N   1      19.699  14.900   9.036  0.00  0.00    -0.532 OA
HETATM   18  O   UNK N   1      20.600  16.869   8.924  0.00  0.00    -0.532 OA
ENDBRANCH  12  16
ENDBRANCH   2  10
BRANCH   3  19
HETATM   19  C   UNK N   1      24.891  15.411   4.975  0.00  0.00     0.292 C 
HETATM   20  O   UNK N   1      25.307  14.599   4.162  0.00  0.00    -0.259 OA
BRANCH  19  21
HETATM   21  O   UNK N   1      24.897  15.101   6.296  0.00  0.00    -0.316 OA
BRANCH  21  22
HETATM   22  C   UNK N   1      25.562  14.019   6.814  0.00  0.00     0.205 C 
BRANCH  22  23
HETATM   23  C   UNK N   1      25.232  13.844   8.287  0.00  0.00     0.194 C 
BRANCH  23  24
HETATM   24  O   UNK N   1      24.365  12.759   8.469  0.00  0.00    -0.389 OA
BRANCH  24  25
HETATM   25  C   UNK N   1      23.168  13.292   8.974  0.00  0.00     0.167 C 
BRANCH  25  26
HETATM   26  C   UNK N   1      22.910  12.817  10.393  0.00  0.00     0.022 C 
HETATM   27  C   UNK N   1      21.478  12.337  10.535  0.00  0.00     0.007 C 
ENDBRANCH  25  26
ENDBRANCH  24  25
ENDBRANCH  23  24
ENDBRANCH  22  23
ENDBRANCH  21  22
ENDBRANCH  19  21
ENDBRANCH   3  19
BRANCH   4  28
HETATM   28  C   UNK N   1      21.377  19.276   3.449  0.00  0.00     0.292 C 
HETATM   29  O   UNK N   1      20.788  19.977   4.243  0.00  0.00    -0.259 OA
BRANCH  28  30
HETATM   30  O   UNK N   1      20.758  19.019   2.278  0.00  0.00    -0.316 OA
BRANCH  30  31
HETATM   31  C   UNK N   1      20.017  17.871   2.122  0.00  0.00     0.205 C 
BRANCH  31  32
HETATM   32  C   UNK N   1      20.052  17.407   0.684  0.00  0.00     0.194 C 
BRANCH  32  33
HETATM   33  O   UNK N   1      20.817  16.244   0.578  0.00  0.00    -0.389 OA
BRANCH  33  34
HETATM   34  C   UNK N   1      19.941  15.207   0.905  0.00  0.00     0.167 C 
BRANCH  34  35
HETATM   35  C   UNK N   1      20.688  13.883   0.943  0.00  0.00     0.022 C 
HETATM   36  C   UNK N   1      22.187  14.115   0.884  0.00  0.00     0.007 C 
ENDBRANCH  34  35
ENDBRANCH  33  34
ENDBRANCH  32  33
ENDBRANCH  31  32
ENDBRANCH  30  31
ENDBRANCH  28  30
ENDBRANCH   4  28
TORSDOF 16
ENDMDL
MODEL 8
REMARK VINA RESULT:      -5.7      2.408      7.661
REMARK  16 active torsions:
REMARK  status: ('A' for Active; 'I' for Inactive)
REMARK    1  A    between atoms: O_1  and  C_17 
REMARK    2  A    between atoms: O_1  and  C_26 
REMARK    3  A    between atoms: O_2  and  C_18 
REMARK    4  A    between atoms: O_2  and  C_27 
REMARK    5  A    between atoms: O_5  and  C_28 
REMARK    6  A    between atoms: O_5  and  C_30 
REMARK    7  A    between atoms: O_6  and  C_29 
REMARK    8  A    between atoms: O_6  and  C_31 
REMARK    9  A    between atoms: N_10  and  C_23 
REMARK   10  A    between atoms: C_11  and  C_14 
REMARK   11  A    between atoms: C_12  and  C_17 
REMARK   12  A    between atoms: C_13  and  C_18 
REMARK   13  A    between atoms: C_26  and  C_28 
REMARK   14  A    between atoms: C_27  and  C_29 
REMARK   15  A    between atoms: C_30  and  C_32 
REMARK   16  A    between atoms: C_31  and  C_33 
ROOT
HETATM    1  N   UNK N   1      23.658  14.620   6.655  0.00  0.00    -0.362 N 
HETATM    2  C   UNK N   1      23.522  16.893   4.916  0.00  0.00     0.101 A 
HETATM    3  C   UNK N   1      22.466  16.628   6.043  0.00  0.00     0.052 A 
HETATM    4  C   UNK N   1      24.684  15.822   4.805  0.00  0.00     0.052 A 
HETATM    5  C   UNK N   1      22.600  15.528   6.834  0.00  0.00     0.018 A 
HETATM    6  C   UNK N   1      24.659  14.756   5.672  0.00  0.00     0.018 A 
HETATM    7  C   UNK N   1      21.600  15.159   7.895  0.00  0.00     0.069 C 
HETATM    8  C   UNK N   1      25.681  13.655   5.664  0.00  0.00     0.069 C 
HETATM    9  H   UNK N   1      23.682  13.785   7.260  0.00  0.00     0.165 HD
ENDROOT
BRANCH   2  10
HETATM   10  C   UNK N   1      23.574  18.314   4.267  0.00  0.00    -0.042 A 
HETATM   11  C   UNK N   1      22.464  18.856   3.585  0.00  0.00     0.044 A 
HETATM   12  C   UNK N   1      22.551  20.067   2.867  0.00  0.00     0.103 A 
HETATM   13  C   UNK N   1      23.744  20.792   2.892  0.00  0.00     0.036 A 
HETATM   14  C   UNK N   1      24.844  20.291   3.578  0.00  0.00     0.003 A 
HETATM   15  C   UNK N   1      24.765  19.048   4.208  0.00  0.00     0.008 A 
BRANCH  12  16
HETATM   16  N   UNK N   1      21.470  20.509   2.051  0.00  0.00    -0.116 N 
HETATM   17  O   UNK N   1      21.617  20.574   0.742  0.00  0.00    -0.532 OA
HETATM   18  O   UNK N   1      20.395  20.704   2.529  0.00  0.00    -0.532 OA
ENDBRANCH  12  16
ENDBRANCH   2  10
BRANCH   3  19
HETATM   19  C   UNK N   1      21.245  17.493   6.248  0.00  0.00     0.292 C 
HETATM   20  O   UNK N   1      21.275  18.432   7.029  0.00  0.00    -0.259 OA
BRANCH  19  21
HETATM   21  O   UNK N   1      20.139  17.286   5.490  0.00  0.00    -0.316 OA
BRANCH  21  22
HETATM   22  C   UNK N   1      19.780  16.056   4.998  0.00  0.00     0.205 C 
BRANCH  22  23
HETATM   23  C   UNK N   1      20.059  15.976   3.507  0.00  0.00     0.194 C 
BRANCH  23  24
HETATM   24  O   UNK N   1      19.497  14.812   2.966  0.00  0.00    -0.389 OA
BRANCH  24  25
HETATM   25  C   UNK N   1      20.538  14.143   2.303  0.00  0.00     0.167 C 
BRANCH  25  26
HETATM   26  C   UNK N   1      21.745  15.048   2.121  0.00  0.00     0.022 C 
HETATM   27  C   UNK N   1      22.702  14.450   1.108  0.00  0.00     0.007 C 
ENDBRANCH  25  26
ENDBRANCH  24  25
ENDBRANCH  23  24
ENDBRANCH  22  23
ENDBRANCH  21  22
ENDBRANCH  19  21
ENDBRANCH   3  19
BRANCH   4  28
HETATM   28  C   UNK N   1      25.803  15.865   3.760  0.00  0.00     0.292 C 
HETATM   29  O   UNK N   1      25.572  15.843   2.572  0.00  0.00    -0.259 OA
BRANCH  28  30
HETATM   30  O   UNK N   1      27.100  15.899   4.134  0.00  0.00    -0.316 OA
BRANCH  30  31
HETATM   31  C   UNK N   1      27.854  17.029   3.920  0.00  0.00     0.205 C 
BRANCH  31  32
HETATM   32  C   UNK N   1      28.352  17.592   5.231  0.00  0.00     0.194 C 
BRANCH  32  33
HETATM   33  O   UNK N   1      28.530  18.971   5.120  0.00  0.00    -0.389 OA
BRANCH  33  34
HETATM   34  C   UNK N   1      27.789  19.516   6.170  0.00  0.00     0.167 C 
BRANCH  34  35
HETATM   35  C   UNK N   1      27.551  20.999   5.931  0.00  0.00     0.022 C 
HETATM   36  C   UNK N   1      26.437  21.511   6.826  0.00  0.00     0.007 C 
ENDBRANCH  34  35
ENDBRANCH  33  34
ENDBRANCH  32  33
ENDBRANCH  31  32
ENDBRANCH  30  31
ENDBRANCH  28  30
ENDBRANCH   4  28
TORSDOF 16
ENDMDL
MODEL 9
REMARK VINA RESULT:      -5.7     10.733     14.930
REMARK  16 active torsions:
REMARK  status: ('A' for Active; 'I' for Inactive)
REMARK    1  A    between atoms: O_1  and  C_17 
REMARK    2  A    between atoms: O_1  and  C_26 
REMARK    3  A    between atoms: O_2  and  C_18 
REMARK    4  A    between atoms: O_2  and  C_27 
REMARK    5  A    between atoms: O_5  and  C_28 
REMARK    6  A    between atoms: O_5  and  C_30 
REMARK    7  A    between atoms: O_6  and  C_29 
REMARK    8  A    between atoms: O_6  and  C_31 
REMARK    9  A    between atoms: N_10  and  C_23 
REMARK   10  A    between atoms: C_11  and  C_14 
REMARK   11  A    between atoms: C_12  and  C_17 
REMARK   12  A    between atoms: C_13  and  C_18 
REMARK   13  A    between atoms: C_26  and  C_28 
REMARK   14  A    between atoms: C_27  and  C_29 
REMARK   15  A    between atoms: C_30  and  C_32 
REMARK   16  A    between atoms: C_31  and  C_33 
ROOT
HETATM    1  N   UNK N   1      36.380  12.274   8.276  0.00  0.00    -0.362 N 
HETATM    2  C   UNK N   1      34.489  14.416   8.479  0.00  0.00     0.101 A 
HETATM    3  C   UNK N   1      35.715  14.278   9.446  0.00  0.00     0.052 A 
HETATM    4  C   UNK N   1      34.367  13.293   7.369  0.00  0.00     0.052 A 
HETATM    5  C   UNK N   1      36.574  13.234   9.283  0.00  0.00     0.018 A 
HETATM    6  C   UNK N   1      35.312  12.297   7.356  0.00  0.00     0.018 A 
HETATM    7  C   UNK N   1      37.739  12.985  10.202  0.00  0.00     0.069 C 
HETATM    8  C   UNK N   1      35.305  11.158   6.377  0.00  0.00     0.069 C 
HETATM    9  H   UNK N   1      37.043  11.485   8.229  0.00  0.00     0.165 HD
ENDROOT
BRANCH   2  10
HETATM   10  C   UNK N   1      33.731  15.782   8.433  0.00  0.00    -0.042 A 
HETATM   11  C   UNK N   1      32.363  15.881   8.767  0.00  0.00     0.044 A 
HETATM   12  C   UNK N   1      31.636  17.074   8.581  0.00  0.00     0.103 A 
HETATM   13  C   UNK N   1      32.301  18.215   8.127  0.00  0.00     0.036 A 
HETATM   14  C   UNK N   1      33.653  18.151   7.815  0.00  0.00     0.003 A 
HETATM   15  C   UNK N   1      34.335  16.937   7.921  0.00  0.00     0.008 A 
BRANCH  12  16
HETATM   16  N   UNK N   1      30.224  17.104   8.766  0.00  0.00    -0.116 N 
HETATM   17  O   UNK N   1      29.722  17.303   9.968  0.00  0.00    -0.532 OA
HETATM   18  O   UNK N   1      29.492  17.074   7.825  0.00  0.00    -0.532 OA
ENDBRANCH  12  16
ENDBRANCH   2  10
BRANCH   3  19
HETATM   19  C   UNK N   1      35.952  15.204  10.614  0.00  0.00     0.292 C 
HETATM   20  O   UNK N   1      36.651  16.199  10.486  0.00  0.00    -0.259 OA
BRANCH  19  21
HETATM   21  O   UNK N   1      35.307  14.984  11.789  0.00  0.00    -0.316 OA
BRANCH  21  22
HETATM   22  C   UNK N   1      35.955  14.694  12.962  0.00  0.00     0.205 C 
BRANCH  22  23
HETATM   23  C   UNK N   1      35.436  13.394  13.551  0.00  0.00     0.194 C 
BRANCH  23  24
HETATM   24  O   UNK N   1      35.479  13.438  14.950  0.00  0.00    -0.389 OA
BRANCH  24  25
HETATM   25  C   UNK N   1      36.800  13.765  15.294  0.00  0.00     0.167 C 
BRANCH  25  26
HETATM   26  C   UNK N   1      36.842  14.695  16.494  0.00  0.00     0.022 C 
HETATM   27  C   UNK N   1      37.487  16.015  16.115  0.00  0.00     0.007 C 
ENDBRANCH  25  26
ENDBRANCH  24  25
ENDBRANCH  23  24
ENDBRANCH  22  23
ENDBRANCH  21  22
ENDBRANCH  19  21
ENDBRANCH   3  19
BRANCH   4  28
HETATM   28  C   UNK N   1      33.234  13.214   6.340  0.00  0.00     0.292 C 
HETATM   29  O   UNK N   1      32.409  12.328   6.362  0.00  0.00    -0.259 OA
BRANCH  28  30
HETATM   30  O   UNK N   1      33.134  14.123   5.347  0.00  0.00    -0.316 OA
BRANCH  30  31
HETATM   31  C   UNK N   1      34.177  14.311   4.471  0.00  0.00     0.205 C 
BRANCH  31  32
HETATM   32  C   UNK N   1      33.659  14.655   3.094  0.00  0.00     0.194 C 
BRANCH  32  33
HETATM   33  O   UNK N   1      32.494  15.416   3.200  0.00  0.00    -0.389 OA
BRANCH  33  34
HETATM   34  C   UNK N   1      32.901  16.731   2.966  0.00  0.00     0.167 C 
BRANCH  34  35
HETATM   35  C   UNK N   1      32.673  17.581   4.206  0.00  0.00     0.022 C 
HETATM   36  C   UNK N   1      31.295  17.318   4.784  0.00  0.00     0.007 C 
ENDBRANCH  34  35
ENDBRANCH  33  34
ENDBRANCH  32  33
ENDBRANCH  31  32
ENDBRANCH  30  31
ENDBRANCH  28  30
ENDBRANCH   4  28
TORSDOF 16
ENDMDL
