REMARK  5 active torsions:
REMARK  status: ('A' for Active; 'I' for Inactive)
REMARK    1  A    between atoms: C_13  and  C_8 
REMARK    2  A    between atoms: C_14  and  C_8 
REMARK    3  A    between atoms: C_19  and  C_13 
REMARK    4  A    between atoms: N_20  and  C_14 
REMARK    5  A    between atoms: N_21  and  C_15 
ROOT
HETATM    1  C   UNK N   1      -0.674   2.833  -1.772  0.00  0.00     0.031 C 
HETATM    2  C   UNK N   1      -4.417   1.860   0.453  0.00  0.00     0.001 A 
HETATM    3  C   UNK N   1      -4.466   0.458   0.576  0.00  0.00     0.002 A 
HETATM    4  C   UNK N   1      -3.207   2.503   0.143  0.00  0.00     0.011 A 
HETATM    5  C   UNK N   1      -3.305  -0.309   0.393  0.00  0.00     0.031 A 
HETATM    6  C   UNK N   1      -2.062   1.721  -0.037  0.00  0.00    -0.013 A 
HETATM    7  C   UNK N   1      -2.112   0.352   0.085  0.00  0.00     0.050 A 
HETATM    8  C   UNK N   1       0.006   0.813  -0.427  0.00  0.00     0.242 A 
HETATM    9  C   UNK N   1      -0.667   2.179  -0.396  0.00  0.00     0.067 A 
HETATM   10  N   UNK N   1      -0.845  -0.207  -0.145  0.00  0.00    -0.281 N 
HETATM   11  O   UNK N   1       1.186   0.647  -0.697  0.00  0.00    -0.271 OA
ENDROOT
BRANCH   9  12
HETATM   12  C   UNK N   1      -0.082   3.109   0.678  0.00  0.00     0.025 C 
BRANCH  12  13
HETATM   13  C   UNK N   1       1.267   3.714   0.287  0.00  0.00     0.021 C 
BRANCH  13  14
HETATM   14  C   UNK N   1       2.428   2.957   0.905  0.00  0.00     0.113 C 
BRANCH  14  15
HETATM   15  N   UNK N   1       3.334   2.531  -0.148  0.00  0.00    -0.425 N 
HETATM   16  C   UNK N   1       4.683   2.646   0.372  0.00  0.00     0.139 C 
HETATM   17  H   UNK N   1       3.070   2.210  -1.080  0.00  0.00     0.152 HD
ENDBRANCH  14  15
ENDBRANCH  13  14
ENDBRANCH  12  13
ENDBRANCH   9  12
BRANCH  10  18
HETATM   18  C   UNK N   1      -0.505  -1.605  -0.097  0.00  0.00     0.042 A 
HETATM   19  C   UNK N   1       0.829  -2.027  -0.248  0.00  0.00     0.030 A 
HETATM   20  C   UNK N   1       1.162  -3.382  -0.193  0.00  0.00     0.002 A 
HETATM   21  C   UNK N   1       0.165  -4.338   0.007  0.00  0.00     0.000 A 
HETATM   22  C   UNK N   1      -1.164  -3.938   0.156  0.00  0.00     0.002 A 
HETATM   23  C   UNK N   1      -1.495  -2.580   0.108  0.00  0.00     0.030 A 
ENDBRANCH  10  18
TORSDOF 5
