REMARK  5 active torsions:
REMARK  status: ('A' for Active; 'I' for Inactive)
REMARK    1  A    between atoms: N_2  and  C_14 
REMARK    2  A    between atoms: C_3  and  C_7 
REMARK    3  A    between atoms: C_3  and  C_8 
REMARK    4  A    between atoms: C_7  and  C_9 
REMARK    5  A    between atoms: C_9  and  C_14 
ROOT
HETATM    1  O   UNK N   1       1.061  -1.512   1.360  0.00  0.00    -0.355 OA
HETATM    2  C   UNK N   1       0.326  -0.366   0.908  0.00  0.00     0.117 A 
HETATM    3  C   UNK N   1       0.479  -2.698   0.811  0.00  0.00     0.083 A 
HETATM    4  C   UNK N   1      -0.748  -0.914   0.032  0.00  0.00    -0.010 A 
HETATM    5  C   UNK N   1      -0.660  -2.253  -0.007  0.00  0.00    -0.015 A 
HETATM    6  C   UNK N   1       1.499  -3.419  -0.053  0.00  0.00     0.051 C 
HETATM    7  C   UNK N   1       0.012  -3.607   1.933  0.00  0.00     0.051 C 
HETATM    8  C   UNK N   1      -1.741  -0.231  -0.681  0.00  0.00     0.011 A 
HETATM    9  C   UNK N   1      -1.560  -3.029  -0.747  0.00  0.00     0.011 A 
HETATM   10  C   UNK N   1      -2.665  -0.974  -1.431  0.00  0.00     0.001 A 
HETATM   11  C   UNK N   1      -2.577  -2.377  -1.461  0.00  0.00     0.001 A 
ENDROOT
BRANCH   2  12
HETATM   12  C   UNK N   1      -0.259   0.320   2.172  0.00  0.00     0.050 C 
BRANCH  12  13
HETATM   13  C   UNK N   1      -1.568   1.097   2.006  0.00  0.00     0.033 C 
BRANCH  13  14
HETATM   14  C   UNK N   1      -1.401   2.410   1.263  0.00  0.00     0.269 C 
BRANCH  14  15
HETATM   15  N   UNK N   1      -2.551   2.635   0.399  0.00  0.00     0.079 N 
HETATM   16  C   UNK N   1      -2.417   3.964  -0.165  0.00  0.00     0.306 C 
HETATM   17  H   UNK N   1      -3.424   2.624   0.974  0.00  0.00     0.315 HD
ENDBRANCH  14  15
ENDBRANCH  13  14
ENDBRANCH  12  13
ENDBRANCH   2  12
BRANCH   2  18
HETATM   18  C   UNK N   1       1.286   0.520   0.127  0.00  0.00    -0.019 A 
HETATM   19  C   UNK N   1       1.555   1.843   0.517  0.00  0.00     0.010 A 
HETATM   20  C   UNK N   1       2.482   2.617  -0.187  0.00  0.00     0.001 A 
HETATM   21  C   UNK N   1       3.161   2.074  -1.280  0.00  0.00     0.000 A 
HETATM   22  C   UNK N   1       2.908   0.759  -1.675  0.00  0.00     0.001 A 
HETATM   23  C   UNK N   1       1.977  -0.014  -0.975  0.00  0.00     0.010 A 
ENDBRANCH   2  18
TORSDOF 5
