MODEL 1
REMARK VINA RESULT:      -6.4      0.000      0.000
REMARK  0 active torsions:
REMARK  status: ('A' for Active; 'I' for Inactive)
ROOT
HETATM    1  N   UNK N   1      23.978  17.603   4.719  0.00  0.00    -0.367 N 
HETATM    2  C   UNK N   1      22.549  17.758   4.415  0.00  0.00     0.152 A 
HETATM    3  C   UNK N   1      21.889  18.875   3.655  0.00  0.00     0.036 A 
HETATM    4  N   UNK N   1      22.440  19.956   3.094  0.00  0.00    -0.354 N 
HETATM    5  C   UNK N   1      25.055  18.506   4.341  0.00  0.00     0.038 A 
HETATM    6  C   UNK N   1      24.961  19.732   3.599  0.00  0.00    -0.013 A 
HETATM    7  C   UNK N   1      23.792  20.434   3.010  0.00  0.00     0.169 A 
HETATM    8  C   UNK N   1      24.427  16.432   5.479  0.00  0.00     0.143 A 
HETATM    9  C   UNK N   1      21.543  16.704   4.893  0.00  0.00     0.147 A 
HETATM   10  N   UNK N   1      22.075  15.585   5.636  0.00  0.00    -0.413 N 
HETATM   11  C   UNK N   1      21.453  20.670   2.525  0.00  0.00     0.091 A 
HETATM   12  C   UNK N   1      20.516  18.898   3.438  0.00  0.00     0.029 A 
HETATM   13  C   UNK N   1      20.245  20.041   2.719  0.00  0.00     0.019 A 
HETATM   14  C   UNK N   1      23.460  15.372   5.967  0.00  0.00     0.136 A 
HETATM   15  C   UNK N   1      26.136  20.457   3.342  0.00  0.00     0.011 A 
HETATM   16  C   UNK N   1      26.359  18.125   4.760  0.00  0.00     0.030 A 
HETATM   17  C   UNK N   1      21.130  14.583   6.091  0.00  0.00     0.143 C 
HETATM   18  C   UNK N   1      27.385  20.040   3.774  0.00  0.00     0.001 A 
HETATM   19  C   UNK N   1      27.498  18.866   4.488  0.00  0.00     0.002 A 
ENDROOT
TORSDOF 0
ENDMDL
MODEL 2
REMARK VINA RESULT:      -6.2     15.977     18.622
REMARK  0 active torsions:
REMARK  status: ('A' for Active; 'I' for Inactive)
ROOT
HETATM    1  N   UNK N   1      35.816  12.408  14.982  0.00  0.00    -0.367 N 
HETATM    2  C   UNK N   1      35.960  11.250  14.091  0.00  0.00     0.152 A 
HETATM    3  C   UNK N   1      35.920   9.794  14.464  0.00  0.00     0.036 A 
HETATM    4  N   UNK N   1      35.749   9.235  15.665  0.00  0.00    -0.354 N 
HETATM    5  C   UNK N   1      35.604  12.382  16.421  0.00  0.00     0.038 A 
HETATM    6  C   UNK N   1      35.490  11.234  17.278  0.00  0.00    -0.013 A 
HETATM    7  C   UNK N   1      35.549   9.780  16.980  0.00  0.00     0.169 A 
HETATM    8  C   UNK N   1      35.884  13.760  14.419  0.00  0.00     0.143 A 
HETATM    9  C   UNK N   1      36.179  11.460  12.587  0.00  0.00     0.147 A 
HETATM   10  N   UNK N   1      36.233  12.826  12.121  0.00  0.00    -0.413 N 
HETATM   11  C   UNK N   1      35.787   7.900  15.506  0.00  0.00     0.091 A 
HETATM   12  C   UNK N   1      36.071   8.792  13.512  0.00  0.00     0.029 A 
HETATM   13  C   UNK N   1      35.986   7.590  14.180  0.00  0.00     0.019 A 
HETATM   14  C   UNK N   1      36.100  14.004  12.939  0.00  0.00     0.136 A 
HETATM   15  C   UNK N   1      35.285  11.434  18.652  0.00  0.00     0.011 A 
HETATM   16  C   UNK N   1      35.497  13.649  17.056  0.00  0.00     0.030 A 
HETATM   17  C   UNK N   1      36.440  13.033  10.701  0.00  0.00     0.143 C 
HETATM   18  C   UNK N   1      35.188  12.694  19.221  0.00  0.00     0.001 A 
HETATM   19  C   UNK N   1      35.294  13.810  18.418  0.00  0.00     0.002 A 
ENDROOT
TORSDOF 0
ENDMDL
MODEL 3
REMARK VINA RESULT:      -6.2      3.788      6.806
REMARK  0 active torsions:
REMARK  status: ('A' for Active; 'I' for Inactive)
ROOT
HETATM    1  N   UNK N   1      23.715  13.811   7.514  0.00  0.00    -0.367 N 
HETATM    2  C   UNK N   1      23.460  14.989   6.674  0.00  0.00     0.152 A 
HETATM    3  C   UNK N   1      22.330  15.974   6.793  0.00  0.00     0.036 A 
HETATM    4  N   UNK N   1      21.322  16.001   7.671  0.00  0.00    -0.354 N 
HETATM    5  C   UNK N   1      22.918  13.354   8.642  0.00  0.00     0.038 A 
HETATM    6  C   UNK N   1      21.723  13.944   9.178  0.00  0.00    -0.013 A 
HETATM    7  C   UNK N   1      20.958  15.150   8.770  0.00  0.00     0.169 A 
HETATM    8  C   UNK N   1      24.881  12.969   7.233  0.00  0.00     0.143 A 
HETATM    9  C   UNK N   1      24.408  15.328   5.517  0.00  0.00     0.147 A 
HETATM   10  N   UNK N   1      25.531  14.443   5.314  0.00  0.00    -0.413 N 
HETATM   11  C   UNK N   1      20.558  17.070   7.385  0.00  0.00     0.091 A 
HETATM   12  C   UNK N   1      22.206  17.052   5.925  0.00  0.00     0.029 A 
HETATM   13  C   UNK N   1      21.079  17.745   6.306  0.00  0.00     0.019 A 
HETATM   14  C   UNK N   1      25.839  13.274   6.099  0.00  0.00     0.136 A 
HETATM   15  C   UNK N   1      21.106  13.335  10.283  0.00  0.00     0.011 A 
HETATM   16  C   UNK N   1      23.383  12.178   9.293  0.00  0.00     0.030 A 
HETATM   17  C   UNK N   1      26.433  14.756   4.223  0.00  0.00     0.143 C 
HETATM   18  C   UNK N   1      21.601  12.187  10.881  0.00  0.00     0.001 A 
HETATM   19  C   UNK N   1      22.747  11.605  10.383  0.00  0.00     0.002 A 
ENDROOT
TORSDOF 0
ENDMDL
MODEL 4
REMARK VINA RESULT:      -6.2      4.882      7.767
REMARK  0 active torsions:
REMARK  status: ('A' for Active; 'I' for Inactive)
ROOT
HETATM    1  N   UNK N   1      28.556  16.821   5.733  0.00  0.00    -0.367 N 
HETATM    2  C   UNK N   1      29.358  16.620   4.518  0.00  0.00     0.152 A 
HETATM    3  C   UNK N   1      30.841  16.810   4.356  0.00  0.00     0.036 A 
HETATM    4  N   UNK N   1      31.746  17.195   5.261  0.00  0.00    -0.354 N 
HETATM    5  C   UNK N   1      29.038  17.246   7.038  0.00  0.00     0.038 A 
HETATM    6  C   UNK N   1      30.386  17.561   7.423  0.00  0.00    -0.013 A 
HETATM    7  C   UNK N   1      31.653  17.553   6.649  0.00  0.00     0.169 A 
HETATM    8  C   UNK N   1      27.111  16.581   5.685  0.00  0.00     0.143 A 
HETATM    9  C   UNK N   1      28.684  16.166   3.218  0.00  0.00     0.147 A 
HETATM   10  N   UNK N   1      27.255  15.954   3.264  0.00  0.00    -0.413 N 
HETATM   11  C   UNK N   1      32.946  17.220   4.654  0.00  0.00     0.091 A 
HETATM   12  C   UNK N   1      31.478  16.584   3.142  0.00  0.00     0.029 A 
HETATM   13  C   UNK N   1      32.815  16.846   3.337  0.00  0.00     0.019 A 
HETATM   14  C   UNK N   1      26.412  16.131   4.418  0.00  0.00     0.136 A 
HETATM   15  C   UNK N   1      30.635  17.956   8.748  0.00  0.00     0.011 A 
HETATM   16  C   UNK N   1      28.052  17.365   8.055  0.00  0.00     0.030 A 
HETATM   17  C   UNK N   1      26.610  15.524   2.039  0.00  0.00     0.143 C 
HETATM   18  C   UNK N   1      29.634  18.055   9.702  0.00  0.00     0.001 A 
HETATM   19  C   UNK N   1      28.334  17.758   9.354  0.00  0.00     0.002 A 
ENDROOT
TORSDOF 0
ENDMDL
MODEL 5
REMARK VINA RESULT:      -6.0     11.351     12.866
REMARK  0 active torsions:
REMARK  status: ('A' for Active; 'I' for Inactive)
ROOT
HETATM    1  N   UNK N   1      27.887  24.328  -4.884  0.00  0.00    -0.367 N 
HETATM    2  C   UNK N   1      28.158  23.294  -5.892  0.00  0.00     0.152 A 
HETATM    3  C   UNK N   1      27.498  23.123  -7.232  0.00  0.00     0.036 A 
HETATM    4  N   UNK N   1      26.535  23.856  -7.798  0.00  0.00    -0.354 N 
HETATM    5  C   UNK N   1      26.914  25.406  -4.979  0.00  0.00     0.038 A 
HETATM    6  C   UNK N   1      26.017  25.695  -6.063  0.00  0.00    -0.013 A 
HETATM    7  C   UNK N   1      25.807  25.018  -7.368  0.00  0.00     0.169 A 
HETATM    8  C   UNK N   1      28.645  24.324  -3.630  0.00  0.00     0.143 A 
HETATM    9  C   UNK N   1      29.226  22.225  -5.628  0.00  0.00     0.147 A 
HETATM   10  N   UNK N   1      29.923  22.299  -4.365  0.00  0.00    -0.413 N 
HETATM   11  C   UNK N   1      26.266  23.320  -9.002  0.00  0.00     0.091 A 
HETATM   12  C   UNK N   1      27.854  22.093  -8.095  0.00  0.00     0.029 A 
HETATM   13  C   UNK N   1      27.068  22.223  -9.218  0.00  0.00     0.019 A 
HETATM   14  C   UNK N   1      29.706  23.283  -3.335  0.00  0.00     0.136 A 
HETATM   15  C   UNK N   1      25.151  26.795  -5.948  0.00  0.00     0.011 A 
HETATM   16  C   UNK N   1      26.846  26.280  -3.859  0.00  0.00     0.030 A 
HETATM   17  C   UNK N   1      30.934  21.291  -4.107  0.00  0.00     0.143 C 
HETATM   18  C   UNK N   1      25.125  27.616  -4.832  0.00  0.00     0.001 A 
HETATM   19  C   UNK N   1      25.978  27.357  -3.781  0.00  0.00     0.002 A 
ENDROOT
TORSDOF 0
ENDMDL
MODEL 6
REMARK VINA RESULT:      -6.0      1.181      4.366
REMARK  0 active torsions:
REMARK  status: ('A' for Active; 'I' for Inactive)
ROOT
HETATM    1  N   UNK N   1      23.171  17.653   4.555  0.00  0.00    -0.367 N 
HETATM    2  C   UNK N   1      24.622  17.716   4.775  0.00  0.00     0.152 A 
HETATM    3  C   UNK N   1      25.577  18.774   4.298  0.00  0.00     0.036 A 
HETATM    4  N   UNK N   1      25.329  19.874   3.580  0.00  0.00    -0.354 N 
HETATM    5  C   UNK N   1      22.356  18.611   3.824  0.00  0.00     0.038 A 
HETATM    6  C   UNK N   1      22.782  19.813   3.164  0.00  0.00    -0.013 A 
HETATM    7  C   UNK N   1      24.126  20.431   3.025  0.00  0.00     0.169 A 
HETATM    8  C   UNK N   1      22.410  16.529   5.108  0.00  0.00     0.143 A 
HETATM    9  C   UNK N   1      25.327  16.614   5.576  0.00  0.00     0.147 A 
HETATM   10  N   UNK N   1      24.498  15.545   6.083  0.00  0.00    -0.413 N 
HETATM   11  C   UNK N   1      26.497  20.515   3.395  0.00  0.00     0.091 A 
HETATM   12  C   UNK N   1      26.937  18.711   4.578  0.00  0.00     0.029 A 
HETATM   13  C   UNK N   1      27.516  19.820   4.003  0.00  0.00     0.019 A 
HETATM   14  C   UNK N   1      23.073  15.423   5.904  0.00  0.00     0.136 A 
HETATM   15  C   UNK N   1      21.822  20.602   2.509  0.00  0.00     0.011 A 
HETATM   16  C   UNK N   1      20.966  18.318   3.756  0.00  0.00     0.030 A 
HETATM   17  C   UNK N   1      25.156  14.499   6.840  0.00  0.00     0.143 C 
HETATM   18  C   UNK N   1      20.477  20.270   2.473  0.00  0.00     0.001 A 
HETATM   19  C   UNK N   1      20.046  19.121   3.100  0.00  0.00     0.002 A 
ENDROOT
TORSDOF 0
ENDMDL
MODEL 7
REMARK VINA RESULT:      -6.0      7.044      9.993
REMARK  0 active torsions:
REMARK  status: ('A' for Active; 'I' for Inactive)
ROOT
HETATM    1  N   UNK N   1      32.112  16.290   7.724  0.00  0.00    -0.367 N 
HETATM    2  C   UNK N   1      32.944  15.975   6.555  0.00  0.00     0.152 A 
HETATM    3  C   UNK N   1      32.640  16.255   5.110  0.00  0.00     0.036 A 
HETATM    4  N   UNK N   1      31.567  16.844   4.572  0.00  0.00    -0.354 N 
HETATM    5  C   UNK N   1      30.813  16.945   7.720  0.00  0.00     0.038 A 
HETATM    6  C   UNK N   1      30.066  17.422   6.590  0.00  0.00    -0.013 A 
HETATM    7  C   UNK N   1      30.368  17.398   5.136  0.00  0.00     0.169 A 
HETATM    8  C   UNK N   1      32.590  15.931   9.063  0.00  0.00     0.143 A 
HETATM    9  C   UNK N   1      34.297  15.276   6.741  0.00  0.00     0.147 A 
HETATM   10  N   UNK N   1      34.687  14.960   8.095  0.00  0.00    -0.413 N 
HETATM   11  C   UNK N   1      31.742  16.874   3.239  0.00  0.00     0.091 A 
HETATM   12  C   UNK N   1      33.522  15.901   4.096  0.00  0.00     0.029 A 
HETATM   13  C   UNK N   1      32.946  16.296   2.909  0.00  0.00     0.019 A 
HETATM   14  C   UNK N   1      33.921  15.241   9.283  0.00  0.00     0.136 A 
HETATM   15  C   UNK N   1      28.820  18.031   6.811  0.00  0.00     0.011 A 
HETATM   16  C   UNK N   1      30.211  17.136   8.994  0.00  0.00     0.030 A 
HETATM   17  C   UNK N   1      35.964  14.300   8.280  0.00  0.00     0.143 C 
HETATM   18  C   UNK N   1      28.278  18.192   8.077  0.00  0.00     0.001 A 
HETATM   19  C   UNK N   1      28.977  17.742   9.175  0.00  0.00     0.002 A 
ENDROOT
TORSDOF 0
ENDMDL
MODEL 8
REMARK VINA RESULT:      -6.0      4.882      7.287
REMARK  0 active torsions:
REMARK  status: ('A' for Active; 'I' for Inactive)
ROOT
HETATM    1  N   UNK N   1      29.226  17.884   6.751  0.00  0.00    -0.367 N 
HETATM    2  C   UNK N   1      29.874  16.730   6.114  0.00  0.00     0.152 A 
HETATM    3  C   UNK N   1      29.651  16.204   4.723  0.00  0.00     0.036 A 
HETATM    4  N   UNK N   1      28.830  16.658   3.771  0.00  0.00    -0.354 N 
HETATM    5  C   UNK N   1      28.228  18.762   6.160  0.00  0.00     0.038 A 
HETATM    6  C   UNK N   1      27.661  18.695   4.841  0.00  0.00    -0.013 A 
HETATM    7  C   UNK N   1      27.904  17.755   3.717  0.00  0.00     0.169 A 
HETATM    8  C   UNK N   1      29.584  18.238   8.128  0.00  0.00     0.143 A 
HETATM    9  C   UNK N   1      30.913  15.908   6.887  0.00  0.00     0.147 A 
HETATM   10  N   UNK N   1      31.203  16.329   8.238  0.00  0.00    -0.413 N 
HETATM   11  C   UNK N   1      28.973  15.865   2.694  0.00  0.00     0.091 A 
HETATM   12  C   UNK N   1      30.336  15.094   4.243  0.00  0.00     0.029 A 
HETATM   13  C   UNK N   1      29.901  14.883   2.953  0.00  0.00     0.019 A 
HETATM   14  C   UNK N   1      30.606  17.449   8.921  0.00  0.00     0.136 A 
HETATM   15  C   UNK N   1      26.702  19.651   4.469  0.00  0.00     0.011 A 
HETATM   16  C   UNK N   1      27.756  19.814   6.992  0.00  0.00     0.030 A 
HETATM   17  C   UNK N   1      32.184  15.558   8.976  0.00  0.00     0.143 C 
HETATM   18  C   UNK N   1      26.276  20.658   5.321  0.00  0.00     0.001 A 
HETATM   19  C   UNK N   1      26.806  20.740   6.590  0.00  0.00     0.002 A 
ENDROOT
TORSDOF 0
ENDMDL
MODEL 9
REMARK VINA RESULT:      -6.0      4.431      7.315
REMARK  0 active torsions:
REMARK  status: ('A' for Active; 'I' for Inactive)
ROOT
HETATM    1  N   UNK N   1      29.176  17.029   4.757  0.00  0.00    -0.367 N 
HETATM    2  C   UNK N   1      28.434  17.259   6.005  0.00  0.00     0.152 A 
HETATM    3  C   UNK N   1      28.999  17.494   7.378  0.00  0.00     0.036 A 
HETATM    4  N   UNK N   1      30.276  17.546   7.768  0.00  0.00    -0.354 N 
HETATM    5  C   UNK N   1      30.621  16.981   4.596  0.00  0.00     0.038 A 
HETATM    6  C   UNK N   1      31.629  17.146   5.606  0.00  0.00    -0.013 A 
HETATM    7  C   UNK N   1      31.522  17.405   7.065  0.00  0.00     0.169 A 
HETATM    8  C   UNK N   1      28.434  16.818   3.510  0.00  0.00     0.143 A 
HETATM    9  C   UNK N   1      26.901  17.277   5.995  0.00  0.00     0.147 A 
HETATM   10  N   UNK N   1      26.254  17.061   4.721  0.00  0.00    -0.413 N 
HETATM   11  C   UNK N   1      30.292  17.780   9.092  0.00  0.00     0.091 A 
HETATM   12  C   UNK N   1      28.178  17.699   8.480  0.00  0.00     0.029 A 
HETATM   13  C   UNK N   1      29.004  17.880   9.566  0.00  0.00     0.019 A 
HETATM   14  C   UNK N   1      26.919  16.830   3.464  0.00  0.00     0.136 A 
HETATM   15  C   UNK N   1      32.980  17.062   5.232  0.00  0.00     0.011 A 
HETATM   16  C   UNK N   1      31.090  16.742   3.276  0.00  0.00     0.030 A 
HETATM   17  C   UNK N   1      24.804  17.077   4.703  0.00  0.00     0.143 C 
HETATM   18  C   UNK N   1      33.384  16.826   3.927  0.00  0.00     0.001 A 
HETATM   19  C   UNK N   1      32.433  16.665   2.942  0.00  0.00     0.002 A 
ENDROOT
TORSDOF 0
ENDMDL
