MODEL 1
REMARK VINA RESULT:      -8.4      0.000      0.000
REMARK  9 active torsions:
REMARK  status: ('A' for Active; 'I' for Inactive)
REMARK    1  A    between atoms: O_4  and  C_20 
REMARK    2  A    between atoms: O_4  and  C_26 
REMARK    3  A    between atoms: O_6  and  C_37 
REMARK    4  A    between atoms: N_10  and  C_21 
REMARK    5  A    between atoms: N_12  and  C_39 
REMARK    6  A    between atoms: C_18  and  C_20 
REMARK    7  A    between atoms: C_24  and  C_31 
REMARK    8  A    between atoms: C_25  and  C_26 
REMARK    9  A    between atoms: C_29  and  C_37 
ROOT
HETATM    1  N   UNK N   1      22.146  13.717   7.416  0.00  0.00    -0.362 N 
HETATM    2  C   UNK N   1      21.496  15.865   5.711  0.00  0.00     0.101 A 
HETATM    3  C   UNK N   1      22.415  14.747   5.252  0.00  0.00     0.052 A 
HETATM    4  C   UNK N   1      20.991  15.832   7.161  0.00  0.00     0.052 A 
HETATM    5  C   UNK N   1      22.695  13.738   6.107  0.00  0.00     0.018 A 
HETATM    6  C   UNK N   1      21.320  14.755   7.930  0.00  0.00     0.018 A 
HETATM    7  C   UNK N   1      23.531  12.576   5.689  0.00  0.00     0.069 C 
HETATM    8  C   UNK N   1      20.873  14.625   9.355  0.00  0.00     0.069 C 
HETATM    9  H   UNK N   1      22.377  12.922   8.033  0.00  0.00     0.165 HD
ENDROOT
BRANCH   3  10
HETATM   10  C   UNK N   1      22.980  14.770   3.873  0.00  0.00     0.292 C 
HETATM   11  O   UNK N   1      22.343  14.259   2.965  0.00  0.00    -0.259 OA
BRANCH  10  12
HETATM   12  O   UNK N   1      24.121  15.440   3.567  0.00  0.00    -0.315 OA
BRANCH  12  13
HETATM   13  C   UNK N   1      25.089  15.808   4.482  0.00  0.00     0.213 C 
BRANCH  13  14
HETATM   14  C   UNK N   1      26.340  14.927   4.361  0.00  0.00     0.173 C 
HETATM   15  O   UNK N   1      27.477  15.594   4.833  0.00  0.00    -0.345 OA
HETATM   16  C   UNK N   1      28.111  16.110   3.675  0.00  0.00     0.167 C 
HETATM   17  O   UNK N   1      27.377  15.762   2.530  0.00  0.00    -0.352 OA
HETATM   18  C   UNK N   1      28.171  17.652   3.787  0.00  0.00     0.088 C 
HETATM   19  C   UNK N   1      29.507  15.476   3.521  0.00  0.00     0.088 C 
HETATM   20  C   UNK N   1      26.641  14.654   2.934  0.00  0.00     0.205 C 
HETATM   21  C   UNK N   1      29.202  18.080   4.840  0.00  0.00     0.128 C 
HETATM   22  N   UNK N   1      30.455  17.363   4.648  0.00  0.00    -0.381 N 
HETATM   23  C   UNK N   1      30.609  16.520   3.483  0.00  0.00     0.128 C 
BRANCH  22  24
HETATM   24  C   UNK N   1      31.427  17.291   5.686  0.00  0.00     0.030 A 
HETATM   25  C   UNK N   1      32.801  17.360   5.402  0.00  0.00     0.031 A 
HETATM   26  C   UNK N   1      33.734  17.353   6.444  0.00  0.00     0.026 A 
HETATM   27  C   UNK N   1      33.301  17.285   7.773  0.00  0.00     0.034 A 
HETATM   28 Cl   UNK N   1      34.460  17.303   9.082  0.00  0.00    -0.084 Cl
HETATM   29  C   UNK N   1      31.939  17.212   8.062  0.00  0.00     0.026 A 
HETATM   30  C   UNK N   1      31.010  17.213   7.027  0.00  0.00     0.031 A 
ENDBRANCH  22  24
ENDBRANCH  13  14
ENDBRANCH  12  13
ENDBRANCH  10  12
ENDBRANCH   3  10
BRANCH   2  31
HETATM   31  C   UNK N   1      21.100  16.965   4.745  0.00  0.00    -0.042 A 
HETATM   32  C   UNK N   1      21.938  18.072   4.559  0.00  0.00     0.044 A 
HETATM   33  C   UNK N   1      21.658  19.028   3.574  0.00  0.00     0.103 A 
HETATM   34  C   UNK N   1      20.472  18.919   2.831  0.00  0.00     0.036 A 
HETATM   35  C   UNK N   1      19.602  17.848   3.050  0.00  0.00     0.003 A 
HETATM   36  C   UNK N   1      19.935  16.854   3.972  0.00  0.00     0.008 A 
BRANCH  33  37
HETATM   37  N   UNK N   1      22.609  20.038   3.257  0.00  0.00    -0.116 N 
HETATM   38  O   UNK N   1      22.218  21.165   2.704  0.00  0.00    -0.532 OA
HETATM   39  O   UNK N   1      23.780  19.810   3.358  0.00  0.00    -0.532 OA
ENDBRANCH  33  37
ENDBRANCH   2  31
BRANCH   4  40
HETATM   40  C   UNK N   1      20.147  16.951   7.717  0.00  0.00     0.291 C 
HETATM   41  O   UNK N   1      20.659  18.023   8.001  0.00  0.00    -0.260 OA
BRANCH  40  42
HETATM   42  O   UNK N   1      18.817  16.777   7.918  0.00  0.00    -0.323 OA
HETATM   43  C   UNK N   1      18.186  17.171   9.077  0.00  0.00     0.213 C 
ENDBRANCH  40  42
ENDBRANCH   4  40
TORSDOF 9
ENDMDL
MODEL 2
REMARK VINA RESULT:      -8.4      3.204      6.078
REMARK  9 active torsions:
REMARK  status: ('A' for Active; 'I' for Inactive)
REMARK    1  A    between atoms: O_4  and  C_20 
REMARK    2  A    between atoms: O_4  and  C_26 
REMARK    3  A    between atoms: O_6  and  C_37 
REMARK    4  A    between atoms: N_10  and  C_21 
REMARK    5  A    between atoms: N_12  and  C_39 
REMARK    6  A    between atoms: C_18  and  C_20 
REMARK    7  A    between atoms: C_24  and  C_31 
REMARK    8  A    between atoms: C_25  and  C_26 
REMARK    9  A    between atoms: C_29  and  C_37 
ROOT
HETATM    1  N   UNK N   1      19.979  17.862   0.528  0.00  0.00    -0.362 N 
HETATM    2  C   UNK N   1      20.846  16.969   3.058  0.00  0.00     0.101 A 
HETATM    3  C   UNK N   1      20.168  16.025   2.081  0.00  0.00     0.052 A 
HETATM    4  C   UNK N   1      20.978  18.446   2.658  0.00  0.00     0.052 A 
HETATM    5  C   UNK N   1      19.772  16.501   0.879  0.00  0.00     0.018 A 
HETATM    6  C   UNK N   1      20.562  18.812   1.413  0.00  0.00     0.018 A 
HETATM    7  C   UNK N   1      19.166  15.607  -0.149  0.00  0.00     0.069 C 
HETATM    8  C   UNK N   1      20.651  20.227   0.925  0.00  0.00     0.069 C 
HETATM    9  H   UNK N   1      19.672  18.181  -0.403  0.00  0.00     0.165 HD
ENDROOT
BRANCH   3  10
HETATM   10  C   UNK N   1      19.962  14.596   2.451  0.00  0.00     0.292 C 
HETATM   11  O   UNK N   1      18.975  14.289   3.101  0.00  0.00    -0.259 OA
BRANCH  10  12
HETATM   12  O   UNK N   1      20.769  13.604   1.990  0.00  0.00    -0.315 OA
BRANCH  12  13
HETATM   13  C   UNK N   1      20.831  12.328   2.518  0.00  0.00     0.213 C 
BRANCH  13  14
HETATM   14  C   UNK N   1      22.069  12.147   3.407  0.00  0.00     0.173 C 
HETATM   15  O   UNK N   1      23.014  13.151   3.169  0.00  0.00    -0.345 OA
HETATM   16  C   UNK N   1      23.955  12.571   2.280  0.00  0.00     0.167 C 
HETATM   17  O   UNK N   1      23.588  11.247   1.990  0.00  0.00    -0.352 OA
HETATM   18  C   UNK N   1      23.970  13.392   0.969  0.00  0.00     0.088 C 
HETATM   19  C   UNK N   1      25.339  12.513   2.954  0.00  0.00     0.088 C 
HETATM   20  C   UNK N   1      22.773  10.888   3.057  0.00  0.00     0.205 C 
HETATM   21  C   UNK N   1      24.646  14.752   1.187  0.00  0.00     0.128 C 
HETATM   22  N   UNK N   1      25.906  14.586   1.899  0.00  0.00    -0.381 N 
HETATM   23  C   UNK N   1      26.398  13.250   2.152  0.00  0.00     0.128 C 
BRANCH  22  24
HETATM   24  C   UNK N   1      26.534  15.688   2.547  0.00  0.00     0.030 A 
HETATM   25  C   UNK N   1      25.785  16.775   3.025  0.00  0.00     0.031 A 
HETATM   26  C   UNK N   1      26.418  17.813   3.716  0.00  0.00     0.026 A 
HETATM   27  C   UNK N   1      27.798  17.768   3.940  0.00  0.00     0.034 A 
HETATM   28 Cl   UNK N   1      28.592  19.049   4.826  0.00  0.00    -0.084 Cl
HETATM   29  C   UNK N   1      28.548  16.694   3.464  0.00  0.00     0.026 A 
HETATM   30  C   UNK N   1      27.922  15.663   2.772  0.00  0.00     0.031 A 
ENDBRANCH  22  24
ENDBRANCH  13  14
ENDBRANCH  12  13
ENDBRANCH  10  12
ENDBRANCH   3  10
BRANCH   2  31
HETATM   31  C   UNK N   1      21.374  16.442   4.378  0.00  0.00    -0.042 A 
HETATM   32  C   UNK N   1      20.500  16.242   5.455  0.00  0.00     0.044 A 
HETATM   33  C   UNK N   1      20.941  15.629   6.635  0.00  0.00     0.103 A 
HETATM   34  C   UNK N   1      22.298  15.297   6.768  0.00  0.00     0.036 A 
HETATM   35  C   UNK N   1      23.188  15.545   5.720  0.00  0.00     0.003 A 
HETATM   36  C   UNK N   1      22.721  16.075   4.516  0.00  0.00     0.008 A 
BRANCH  33  37
HETATM   37  N   UNK N   1      20.011  15.252   7.643  0.00  0.00    -0.116 N 
HETATM   38  O   UNK N   1      19.156  16.132   8.116  0.00  0.00    -0.532 OA
HETATM   39  O   UNK N   1      20.097  14.179   8.167  0.00  0.00    -0.532 OA
ENDBRANCH  33  37
ENDBRANCH   2  31
BRANCH   4  40
HETATM   40  C   UNK N   1      21.559  19.461   3.610  0.00  0.00     0.291 C 
HETATM   41  O   UNK N   1      20.823  20.183   4.262  0.00  0.00    -0.260 OA
BRANCH  40  42
HETATM   42  O   UNK N   1      22.903  19.589   3.743  0.00  0.00    -0.323 OA
HETATM   43  C   UNK N   1      23.634  20.504   3.018  0.00  0.00     0.213 C 
ENDBRANCH  40  42
ENDBRANCH   4  40
TORSDOF 9
ENDMDL
MODEL 3
REMARK VINA RESULT:      -8.2      5.714     10.332
REMARK  9 active torsions:
REMARK  status: ('A' for Active; 'I' for Inactive)
REMARK    1  A    between atoms: O_4  and  C_20 
REMARK    2  A    between atoms: O_4  and  C_26 
REMARK    3  A    between atoms: O_6  and  C_37 
REMARK    4  A    between atoms: N_10  and  C_21 
REMARK    5  A    between atoms: N_12  and  C_39 
REMARK    6  A    between atoms: C_18  and  C_20 
REMARK    7  A    between atoms: C_24  and  C_31 
REMARK    8  A    between atoms: C_25  and  C_26 
REMARK    9  A    between atoms: C_29  and  C_37 
ROOT
HETATM    1  N   UNK N   1      27.441  17.096   7.562  0.00  0.00    -0.362 N 
HETATM    2  C   UNK N   1      29.874  16.686   6.198  0.00  0.00     0.101 A 
HETATM    3  C   UNK N   1      29.851  17.102   7.658  0.00  0.00     0.052 A 
HETATM    4  C   UNK N   1      28.531  16.570   5.462  0.00  0.00     0.052 A 
HETATM    5  C   UNK N   1      28.659  17.285   8.268  0.00  0.00     0.018 A 
HETATM    6  C   UNK N   1      27.388  16.757   6.181  0.00  0.00     0.018 A 
HETATM    7  C   UNK N   1      28.572  17.622   9.718  0.00  0.00     0.069 C 
HETATM    8  C   UNK N   1      26.028  16.660   5.558  0.00  0.00     0.069 C 
HETATM    9  H   UNK N   1      26.553  17.235   8.068  0.00  0.00     0.165 HD
ENDROOT
BRANCH   3  10
HETATM   10  C   UNK N   1      31.133  17.289   8.397  0.00  0.00     0.292 C 
HETATM   11  O   UNK N   1      31.543  18.421   8.592  0.00  0.00    -0.259 OA
BRANCH  10  12
HETATM   12  O   UNK N   1      31.800  16.250   8.964  0.00  0.00    -0.315 OA
BRANCH  12  13
HETATM   13  C   UNK N   1      33.171  16.081   8.932  0.00  0.00     0.213 C 
BRANCH  13  14
HETATM   14  C   UNK N   1      33.559  14.603   9.072  0.00  0.00     0.173 C 
HETATM   15  O   UNK N   1      34.129  14.345  10.325  0.00  0.00    -0.345 OA
HETATM   16  C   UNK N   1      35.530  14.368  10.106  0.00  0.00     0.167 C 
HETATM   17  O   UNK N   1      35.800  14.631   8.753  0.00  0.00    -0.352 OA
HETATM   18  C   UNK N   1      36.149  15.490  10.973  0.00  0.00     0.088 C 
HETATM   19  C   UNK N   1      36.127  12.983  10.421  0.00  0.00     0.088 C 
HETATM   20  C   UNK N   1      34.630  14.258   8.104  0.00  0.00     0.205 C 
HETATM   21  C   UNK N   1      36.140  15.097  12.456  0.00  0.00     0.128 C 
HETATM   22  N   UNK N   1      36.651  13.745  12.629  0.00  0.00    -0.381 N 
HETATM   23  C   UNK N   1      37.207  13.054  11.487  0.00  0.00     0.128 C 
BRANCH  22  24
HETATM   24  C   UNK N   1      36.404  13.013  13.826  0.00  0.00     0.030 A 
HETATM   25  C   UNK N   1      35.347  13.357  14.684  0.00  0.00     0.031 A 
HETATM   26  C   UNK N   1      35.085  12.583  15.819  0.00  0.00     0.026 A 
HETATM   27  C   UNK N   1      35.870  11.458  16.098  0.00  0.00     0.034 A 
HETATM   28 Cl   UNK N   1      35.532  10.470  17.500  0.00  0.00    -0.084 Cl
HETATM   29  C   UNK N   1      36.923  11.114  15.252  0.00  0.00     0.026 A 
HETATM   30  C   UNK N   1      37.189  11.885  14.126  0.00  0.00     0.031 A 
ENDBRANCH  22  24
ENDBRANCH  13  14
ENDBRANCH  12  13
ENDBRANCH  10  12
ENDBRANCH   3  10
BRANCH   2  31
HETATM   31  C   UNK N   1      31.195  16.395   5.513  0.00  0.00    -0.042 A 
HETATM   32  C   UNK N   1      31.750  15.110   5.573  0.00  0.00     0.044 A 
HETATM   33  C   UNK N   1      32.896  14.787   4.835  0.00  0.00     0.103 A 
HETATM   34  C   UNK N   1      33.544  15.792   4.102  0.00  0.00     0.036 A 
HETATM   35  C   UNK N   1      33.030  17.091   4.082  0.00  0.00     0.003 A 
HETATM   36  C   UNK N   1      31.838  17.381   4.750  0.00  0.00     0.008 A 
BRANCH  33  37
HETATM   37  N   UNK N   1      33.339  13.438   4.745  0.00  0.00    -0.116 N 
HETATM   38  O   UNK N   1      32.802  12.513   5.511  0.00  0.00    -0.532 OA
HETATM   39  O   UNK N   1      34.295  13.164   4.079  0.00  0.00    -0.532 OA
ENDBRANCH  33  37
ENDBRANCH   2  31
BRANCH   4  40
HETATM   40  C   UNK N   1      28.475  16.248   3.990  0.00  0.00     0.291 C 
HETATM   41  O   UNK N   1      28.500  17.146   3.164  0.00  0.00    -0.260 OA
BRANCH  40  42
HETATM   42  O   UNK N   1      28.387  14.962   3.569  0.00  0.00    -0.323 OA
HETATM   43  C   UNK N   1      29.387  14.349   2.847  0.00  0.00     0.213 C 
ENDBRANCH  40  42
ENDBRANCH   4  40
TORSDOF 9
ENDMDL
MODEL 4
REMARK VINA RESULT:      -8.1     13.058     15.275
REMARK  9 active torsions:
REMARK  status: ('A' for Active; 'I' for Inactive)
REMARK    1  A    between atoms: O_4  and  C_20 
REMARK    2  A    between atoms: O_4  and  C_26 
REMARK    3  A    between atoms: O_6  and  C_37 
REMARK    4  A    between atoms: N_10  and  C_21 
REMARK    5  A    between atoms: N_12  and  C_39 
REMARK    6  A    between atoms: C_18  and  C_20 
REMARK    7  A    between atoms: C_24  and  C_31 
REMARK    8  A    between atoms: C_25  and  C_26 
REMARK    9  A    between atoms: C_29  and  C_37 
ROOT
HETATM    1  N   UNK N   1      26.521  28.775  -4.706  0.00  0.00    -0.362 N 
HETATM    2  C   UNK N   1      28.581  26.858  -4.541  0.00  0.00     0.101 A 
HETATM    3  C   UNK N   1      27.180  26.471  -4.980  0.00  0.00     0.052 A 
HETATM    4  C   UNK N   1      28.825  28.313  -4.114  0.00  0.00     0.052 A 
HETATM    5  C   UNK N   1      26.227  27.427  -5.044  0.00  0.00     0.018 A 
HETATM    6  C   UNK N   1      27.796  29.198  -4.238  0.00  0.00     0.018 A 
HETATM    7  C   UNK N   1      24.853  27.122  -5.538  0.00  0.00     0.069 C 
HETATM    8  C   UNK N   1      27.933  30.641  -3.854  0.00  0.00     0.069 C 
HETATM    9  H   UNK N   1      25.767  29.475  -4.780  0.00  0.00     0.165 HD
ENDROOT
BRANCH   3  10
HETATM   10  C   UNK N   1      26.880  25.056  -5.344  0.00  0.00     0.292 C 
HETATM   11  O   UNK N   1      26.500  24.290  -4.474  0.00  0.00    -0.259 OA
BRANCH  10  12
HETATM   12  O   UNK N   1      26.901  24.619  -6.630  0.00  0.00    -0.315 OA
BRANCH  12  13
HETATM   13  C   UNK N   1      25.884  23.908  -7.239  0.00  0.00     0.213 C 
BRANCH  13  14
HETATM   14  C   UNK N   1      26.094  22.394  -7.098  0.00  0.00     0.173 C 
HETATM   15  O   UNK N   1      27.455  22.077  -7.021  0.00  0.00    -0.345 OA
HETATM   16  C   UNK N   1      27.820  21.689  -8.335  0.00  0.00     0.167 C 
HETATM   17  O   UNK N   1      26.705  21.768  -9.186  0.00  0.00    -0.352 OA
HETATM   18  C   UNK N   1      28.918  22.650  -8.849  0.00  0.00     0.088 C 
HETATM   19  C   UNK N   1      28.278  20.218  -8.334  0.00  0.00     0.088 C 
HETATM   20  C   UNK N   1      25.622  21.694  -8.319  0.00  0.00     0.205 C 
HETATM   21  C   UNK N   1      30.251  22.382  -8.137  0.00  0.00     0.128 C 
HETATM   22  N   UNK N   1      30.546  20.956  -8.127  0.00  0.00    -0.381 N 
HETATM   23  C   UNK N   1      29.690  20.058  -8.870  0.00  0.00     0.128 C 
BRANCH  22  24
HETATM   24  C   UNK N   1      31.504  20.410  -7.226  0.00  0.00     0.030 A 
HETATM   25  C   UNK N   1      32.770  19.997  -7.673  0.00  0.00     0.031 A 
HETATM   26  C   UNK N   1      33.717  19.525  -6.757  0.00  0.00     0.026 A 
HETATM   27  C   UNK N   1      33.409  19.472  -5.393  0.00  0.00     0.034 A 
HETATM   28 Cl   UNK N   1      34.596  18.908  -4.240  0.00  0.00    -0.084 Cl
HETATM   29  C   UNK N   1      32.153  19.876  -4.944  0.00  0.00     0.026 A 
HETATM   30  C   UNK N   1      31.208  20.341  -5.853  0.00  0.00     0.031 A 
ENDBRANCH  22  24
ENDBRANCH  13  14
ENDBRANCH  12  13
ENDBRANCH  10  12
ENDBRANCH   3  10
BRANCH   2  31
HETATM   31  C   UNK N   1      29.688  25.821  -4.539  0.00  0.00    -0.042 A 
HETATM   32  C   UNK N   1      29.876  24.996  -3.422  0.00  0.00     0.044 A 
HETATM   33  C   UNK N   1      30.801  23.944  -3.454  0.00  0.00     0.103 A 
HETATM   34  C   UNK N   1      31.611  23.778  -4.587  0.00  0.00     0.036 A 
HETATM   35  C   UNK N   1      31.469  24.632  -5.684  0.00  0.00     0.003 A 
HETATM   36  C   UNK N   1      30.484  25.622  -5.676  0.00  0.00     0.008 A 
BRANCH  33  37
HETATM   37  N   UNK N   1      30.848  22.994  -2.396  0.00  0.00    -0.116 N 
HETATM   38  O   UNK N   1      30.061  23.128  -1.351  0.00  0.00    -0.532 OA
HETATM   39  O   UNK N   1      31.700  22.153  -2.383  0.00  0.00    -0.532 OA
ENDBRANCH  33  37
ENDBRANCH   2  31
BRANCH   4  40
HETATM   40  C   UNK N   1      30.166  28.753  -3.582  0.00  0.00     0.291 C 
HETATM   41  O   UNK N   1      31.017  29.184  -4.344  0.00  0.00    -0.260 OA
BRANCH  40  42
HETATM   42  O   UNK N   1      30.443  28.667  -2.257  0.00  0.00    -0.323 OA
HETATM   43  C   UNK N   1      31.628  29.116  -1.719  0.00  0.00     0.213 C 
ENDBRANCH  40  42
ENDBRANCH   4  40
TORSDOF 9
ENDMDL
MODEL 5
REMARK VINA RESULT:      -8.0      2.451      5.587
REMARK  9 active torsions:
REMARK  status: ('A' for Active; 'I' for Inactive)
REMARK    1  A    between atoms: O_4  and  C_20 
REMARK    2  A    between atoms: O_4  and  C_26 
REMARK    3  A    between atoms: O_6  and  C_37 
REMARK    4  A    between atoms: N_10  and  C_21 
REMARK    5  A    between atoms: N_12  and  C_39 
REMARK    6  A    between atoms: C_18  and  C_20 
REMARK    7  A    between atoms: C_24  and  C_31 
REMARK    8  A    between atoms: C_25  and  C_26 
REMARK    9  A    between atoms: C_29  and  C_37 
ROOT
HETATM    1  N   UNK N   1      20.003  18.225   0.812  0.00  0.00    -0.362 N 
HETATM    2  C   UNK N   1      20.907  17.033   3.200  0.00  0.00     0.101 A 
HETATM    3  C   UNK N   1      21.088  18.519   2.945  0.00  0.00     0.052 A 
HETATM    4  C   UNK N   1      20.285  16.182   2.084  0.00  0.00     0.052 A 
HETATM    5  C   UNK N   1      20.636  19.043   1.785  0.00  0.00     0.018 A 
HETATM    6  C   UNK N   1      19.847  16.819   0.961  0.00  0.00     0.018 A 
HETATM    7  C   UNK N   1      20.719  20.507   1.509  0.00  0.00     0.069 C 
HETATM    8  C   UNK N   1      19.221  16.080  -0.183  0.00  0.00     0.069 C 
HETATM    9  H   UNK N   1      19.663  18.668  -0.056  0.00  0.00     0.165 HD
ENDROOT
BRANCH   3  10
HETATM   10  C   UNK N   1      21.744  19.374   3.976  0.00  0.00     0.292 C 
HETATM   11  O   UNK N   1      21.095  19.736   4.944  0.00  0.00    -0.259 OA
BRANCH  10  12
HETATM   12  O   UNK N   1      23.070  19.669   3.937  0.00  0.00    -0.315 OA
BRANCH  12  13
HETATM   13  C   UNK N   1      24.037  18.877   3.349  0.00  0.00     0.213 C 
BRANCH  13  14
HETATM   14  C   UNK N   1      25.414  19.553   3.383  0.00  0.00     0.173 C 
HETATM   15  O   UNK N   1      26.438  18.611   3.537  0.00  0.00    -0.345 OA
HETATM   16  C   UNK N   1      26.747  18.623   4.922  0.00  0.00     0.167 C 
HETATM   17  O   UNK N   1      25.930  19.551   5.588  0.00  0.00    -0.352 OA
HETATM   18  C   UNK N   1      26.484  17.212   5.500  0.00  0.00     0.088 C 
HETATM   19  C   UNK N   1      28.203  19.081   5.126  0.00  0.00     0.088 C 
HETATM   20  C   UNK N   1      25.531  20.422   4.581  0.00  0.00     0.205 C 
HETATM   21  C   UNK N   1      27.553  16.221   5.020  0.00  0.00     0.128 C 
HETATM   22  N   UNK N   1      28.884  16.787   5.187  0.00  0.00    -0.381 N 
HETATM   23  C   UNK N   1      29.028  18.050   5.876  0.00  0.00     0.128 C 
BRANCH  22  24
HETATM   24  C   UNK N   1      30.004  16.248   4.492  0.00  0.00     0.030 A 
HETATM   25  C   UNK N   1      31.283  16.815   4.622  0.00  0.00     0.031 A 
HETATM   26  C   UNK N   1      32.379  16.229   3.981  0.00  0.00     0.026 A 
HETATM   27  C   UNK N   1      32.207  15.070   3.215  0.00  0.00     0.034 A 
HETATM   28 Cl   UNK N   1      33.576  14.316   2.433  0.00  0.00    -0.084 Cl
HETATM   29  C   UNK N   1      30.940  14.505   3.078  0.00  0.00     0.026 A 
HETATM   30  C   UNK N   1      29.848  15.090   3.710  0.00  0.00     0.031 A 
ENDBRANCH  22  24
ENDBRANCH  13  14
ENDBRANCH  12  13
ENDBRANCH  10  12
ENDBRANCH   3  10
BRANCH   2  31
HETATM   31  C   UNK N   1      21.331  16.435   4.528  0.00  0.00    -0.042 A 
HETATM   32  C   UNK N   1      20.425  16.378   5.595  0.00  0.00     0.044 A 
HETATM   33  C   UNK N   1      20.752  15.707   6.781  0.00  0.00     0.103 A 
HETATM   34  C   UNK N   1      22.038  15.168   6.930  0.00  0.00     0.036 A 
HETATM   35  C   UNK N   1      22.968  15.269   5.892  0.00  0.00     0.003 A 
HETATM   36  C   UNK N   1      22.602  15.862   4.682  0.00  0.00     0.008 A 
BRANCH  33  37
HETATM   37  N   UNK N   1      19.762  15.484   7.779  0.00  0.00    -0.116 N 
HETATM   38  O   UNK N   1      19.867  14.459   8.595  0.00  0.00    -0.532 OA
HETATM   39  O   UNK N   1      18.762  16.141   7.788  0.00  0.00    -0.532 OA
ENDBRANCH  33  37
ENDBRANCH   2  31
BRANCH   4  40
HETATM   40  C   UNK N   1      20.154  14.686   2.226  0.00  0.00     0.291 C 
HETATM   41  O   UNK N   1      19.106  14.196   2.617  0.00  0.00    -0.260 OA
BRANCH  40  42
HETATM   42  O   UNK N   1      21.199  13.872   1.934  0.00  0.00    -0.323 OA
HETATM   43  C   UNK N   1      22.243  14.269   1.129  0.00  0.00     0.213 C 
ENDBRANCH  40  42
ENDBRANCH   4  40
TORSDOF 9
ENDMDL
MODEL 6
REMARK VINA RESULT:      -7.9      4.620      7.269
REMARK  9 active torsions:
REMARK  status: ('A' for Active; 'I' for Inactive)
REMARK    1  A    between atoms: O_4  and  C_20 
REMARK    2  A    between atoms: O_4  and  C_26 
REMARK    3  A    between atoms: O_6  and  C_37 
REMARK    4  A    between atoms: N_10  and  C_21 
REMARK    5  A    between atoms: N_12  and  C_39 
REMARK    6  A    between atoms: C_18  and  C_20 
REMARK    7  A    between atoms: C_24  and  C_31 
REMARK    8  A    between atoms: C_25  and  C_26 
REMARK    9  A    between atoms: C_29  and  C_37 
ROOT
HETATM    1  N   UNK N   1      23.882  14.548   7.271  0.00  0.00    -0.362 N 
HETATM    2  C   UNK N   1      22.437  16.013   5.345  0.00  0.00     0.101 A 
HETATM    3  C   UNK N   1      23.934  16.198   5.513  0.00  0.00     0.052 A 
HETATM    4  C   UNK N   1      21.717  15.059   6.309  0.00  0.00     0.052 A 
HETATM    5  C   UNK N   1      24.582  15.470   6.450  0.00  0.00     0.018 A 
HETATM    6  C   UNK N   1      22.472  14.362   7.204  0.00  0.00     0.018 A 
HETATM    7  C   UNK N   1      26.063  15.555   6.612  0.00  0.00     0.069 C 
HETATM    8  C   UNK N   1      21.867  13.403   8.184  0.00  0.00     0.069 C 
HETATM    9  H   UNK N   1      24.416  14.005   7.967  0.00  0.00     0.165 HD
ENDROOT
BRANCH   3  10
HETATM   10  C   UNK N   1      24.667  17.160   4.640  0.00  0.00     0.292 C 
HETATM   11  O   UNK N   1      25.014  18.233   5.105  0.00  0.00    -0.259 OA
BRANCH  10  12
HETATM   12  O   UNK N   1      25.065  16.839   3.382  0.00  0.00    -0.315 OA
BRANCH  12  13
HETATM   13  C   UNK N   1      26.279  16.259   3.062  0.00  0.00     0.213 C 
BRANCH  13  14
HETATM   14  C   UNK N   1      26.156  15.334   1.844  0.00  0.00     0.173 C 
HETATM   15  O   UNK N   1      24.948  14.628   1.864  0.00  0.00    -0.345 OA
HETATM   16  C   UNK N   1      25.271  13.356   2.403  0.00  0.00     0.167 C 
HETATM   17  O   UNK N   1      26.642  13.295   2.700  0.00  0.00    -0.352 OA
HETATM   18  C   UNK N   1      24.462  13.150   3.705  0.00  0.00     0.088 C 
HETATM   19  C   UNK N   1      24.991  12.262   1.357  0.00  0.00     0.088 C 
HETATM   20  C   UNK N   1      27.199  14.279   1.892  0.00  0.00     0.205 C 
HETATM   21  C   UNK N   1      22.979  12.912   3.392  0.00  0.00     0.128 C 
HETATM   22  N   UNK N   1      22.834  11.918   2.338  0.00  0.00    -0.381 N 
HETATM   23  C   UNK N   1      24.010  11.220   1.866  0.00  0.00     0.128 C 
BRANCH  22  24
HETATM   24  C   UNK N   1      21.617  11.790   1.610  0.00  0.00     0.030 A 
HETATM   25  C   UNK N   1      21.025  10.534   1.398  0.00  0.00     0.031 A 
HETATM   26  C   UNK N   1      19.796  10.440   0.737  0.00  0.00     0.026 A 
HETATM   27  C   UNK N   1      19.148  11.599   0.293  0.00  0.00     0.034 A 
HETATM   28 Cl   UNK N   1      17.599  11.492  -0.510  0.00  0.00    -0.084 Cl
HETATM   29  C   UNK N   1      19.732  12.848   0.496  0.00  0.00     0.026 A 
HETATM   30  C   UNK N   1      20.957  12.942   1.148  0.00  0.00     0.031 A 
ENDBRANCH  22  24
ENDBRANCH  13  14
ENDBRANCH  12  13
ENDBRANCH  10  12
ENDBRANCH   3  10
BRANCH   2  31
HETATM   31  C   UNK N   1      21.700  16.755   4.246  0.00  0.00    -0.042 A 
HETATM   32  C   UNK N   1      21.527  18.143   4.329  0.00  0.00     0.044 A 
HETATM   33  C   UNK N   1      20.972  18.863   3.263  0.00  0.00     0.103 A 
HETATM   34  C   UNK N   1      20.502  18.169   2.139  0.00  0.00     0.036 A 
HETATM   35  C   UNK N   1      20.619  16.778   2.072  0.00  0.00     0.003 A 
HETATM   36  C   UNK N   1      21.254  16.080   3.101  0.00  0.00     0.008 A 
BRANCH  33  37
HETATM   37  N   UNK N   1      20.979  20.286   3.274  0.00  0.00    -0.116 N 
HETATM   38  O   UNK N   1      22.005  20.945   2.782  0.00  0.00    -0.532 OA
HETATM   39  O   UNK N   1      20.123  20.885   3.857  0.00  0.00    -0.532 OA
ENDBRANCH  33  37
ENDBRANCH   2  31
BRANCH   4  40
HETATM   40  C   UNK N   1      20.219  14.890   6.263  0.00  0.00     0.291 C 
HETATM   41  O   UNK N   1      19.491  15.719   6.786  0.00  0.00    -0.260 OA
BRANCH  40  42
HETATM   42  O   UNK N   1      19.666  13.814   5.651  0.00  0.00    -0.323 OA
HETATM   43  C   UNK N   1      18.831  13.930   4.562  0.00  0.00     0.213 C 
ENDBRANCH  40  42
ENDBRANCH   4  40
TORSDOF 9
ENDMDL
MODEL 7
REMARK VINA RESULT:      -7.9      3.415      5.808
REMARK  9 active torsions:
REMARK  status: ('A' for Active; 'I' for Inactive)
REMARK    1  A    between atoms: O_4  and  C_20 
REMARK    2  A    between atoms: O_4  and  C_26 
REMARK    3  A    between atoms: O_6  and  C_37 
REMARK    4  A    between atoms: N_10  and  C_21 
REMARK    5  A    between atoms: N_12  and  C_39 
REMARK    6  A    between atoms: C_18  and  C_20 
REMARK    7  A    between atoms: C_24  and  C_31 
REMARK    8  A    between atoms: C_25  and  C_26 
REMARK    9  A    between atoms: C_29  and  C_37 
ROOT
HETATM    1  N   UNK N   1      27.713  19.435   7.166  0.00  0.00    -0.362 N 
HETATM    2  C   UNK N   1      26.478  17.845   5.194  0.00  0.00     0.101 A 
HETATM    3  C   UNK N   1      27.260  17.217   6.333  0.00  0.00     0.052 A 
HETATM    4  C   UNK N   1      26.444  19.378   5.103  0.00  0.00     0.052 A 
HETATM    5  C   UNK N   1      27.833  18.023   7.256  0.00  0.00     0.018 A 
HETATM    6  C   UNK N   1      27.040  20.092   6.099  0.00  0.00     0.018 A 
HETATM    7  C   UNK N   1      28.550  17.462   8.437  0.00  0.00     0.069 C 
HETATM    8  C   UNK N   1      27.059  21.591   6.106  0.00  0.00     0.069 C 
HETATM    9  H   UNK N   1      28.157  20.012   7.898  0.00  0.00     0.165 HD
ENDROOT
BRANCH   3  10
HETATM   10  C   UNK N   1      27.373  15.734   6.428  0.00  0.00     0.292 C 
HETATM   11  O   UNK N   1      26.415  15.092   6.827  0.00  0.00    -0.259 OA
BRANCH  10  12
HETATM   12  O   UNK N   1      28.461  15.059   5.973  0.00  0.00    -0.315 OA
BRANCH  12  13
HETATM   13  C   UNK N   1      29.282  15.485   4.947  0.00  0.00     0.213 C 
BRANCH  13  14
HETATM   14  C   UNK N   1      30.654  14.799   5.003  0.00  0.00     0.173 C 
HETATM   15  O   UNK N   1      31.340  15.131   6.177  0.00  0.00    -0.345 OA
HETATM   16  C   UNK N   1      32.226  16.174   5.805  0.00  0.00     0.167 C 
HETATM   17  O   UNK N   1      32.081  16.463   4.438  0.00  0.00    -0.352 OA
HETATM   18  C   UNK N   1      31.880  17.437   6.628  0.00  0.00     0.088 C 
HETATM   19  C   UNK N   1      33.682  15.716   6.013  0.00  0.00     0.088 C 
HETATM   20  C   UNK N   1      31.526  15.303   3.912  0.00  0.00     0.205 C 
HETATM   21  C   UNK N   1      32.307  17.264   8.092  0.00  0.00     0.128 C 
HETATM   22  N   UNK N   1      33.669  16.755   8.170  0.00  0.00    -0.381 N 
HETATM   23  C   UNK N   1      34.443  16.635   6.954  0.00  0.00     0.128 C 
BRANCH  22  24
HETATM   24  C   UNK N   1      34.165  16.162   9.366  0.00  0.00     0.030 A 
HETATM   25  C   UNK N   1      33.741  14.887   9.775  0.00  0.00     0.031 A 
HETATM   26  C   UNK N   1      34.292  14.298  10.918  0.00  0.00     0.026 A 
HETATM   27  C   UNK N   1      35.274  14.974  11.652  0.00  0.00     0.034 A 
HETATM   28 Cl   UNK N   1      35.986  14.234  13.066  0.00  0.00    -0.084 Cl
HETATM   29  C   UNK N   1      35.695  16.241  11.253  0.00  0.00     0.026 A 
HETATM   30  C   UNK N   1      35.145  16.831  10.120  0.00  0.00     0.031 A 
ENDBRANCH  22  24
ENDBRANCH  13  14
ENDBRANCH  12  13
ENDBRANCH  10  12
ENDBRANCH   3  10
BRANCH   2  31
HETATM   31  C   UNK N   1      25.757  16.963   4.193  0.00  0.00    -0.042 A 
HETATM   32  C   UNK N   1      24.406  16.644   4.382  0.00  0.00     0.044 A 
HETATM   33  C   UNK N   1      23.688  15.947   3.401  0.00  0.00     0.103 A 
HETATM   34  C   UNK N   1      24.360  15.485   2.259  0.00  0.00     0.036 A 
HETATM   35  C   UNK N   1      25.721  15.750   2.089  0.00  0.00     0.003 A 
HETATM   36  C   UNK N   1      26.406  16.522   3.030  0.00  0.00     0.008 A 
BRANCH  33  37
HETATM   37  N   UNK N   1      22.277  15.798   3.510  0.00  0.00    -0.116 N 
HETATM   38  O   UNK N   1      21.480  16.436   2.682  0.00  0.00    -0.532 OA
HETATM   39  O   UNK N   1      21.806  15.211   4.440  0.00  0.00    -0.532 OA
ENDBRANCH  33  37
ENDBRANCH   2  31
BRANCH   4  40
HETATM   40  C   UNK N   1      25.764  20.075   3.951  0.00  0.00     0.291 C 
HETATM   41  O   UNK N   1      26.379  20.301   2.921  0.00  0.00    -0.260 OA
BRANCH  40  42
HETATM   42  O   UNK N   1      24.469  20.466   4.051  0.00  0.00    -0.323 OA
HETATM   43  C   UNK N   1      23.474  19.937   3.260  0.00  0.00     0.213 C 
ENDBRANCH  40  42
ENDBRANCH   4  40
TORSDOF 9
ENDMDL
MODEL 8
REMARK VINA RESULT:      -7.9      4.658      8.246
REMARK  9 active torsions:
REMARK  status: ('A' for Active; 'I' for Inactive)
REMARK    1  A    between atoms: O_4  and  C_20 
REMARK    2  A    between atoms: O_4  and  C_26 
REMARK    3  A    between atoms: O_6  and  C_37 
REMARK    4  A    between atoms: N_10  and  C_21 
REMARK    5  A    between atoms: N_12  and  C_39 
REMARK    6  A    between atoms: C_18  and  C_20 
REMARK    7  A    between atoms: C_24  and  C_31 
REMARK    8  A    between atoms: C_25  and  C_26 
REMARK    9  A    between atoms: C_29  and  C_37 
ROOT
HETATM    1  N   UNK N   1      28.669  14.970   2.472  0.00  0.00    -0.362 N 
HETATM    2  C   UNK N   1      28.254  16.769   4.601  0.00  0.00     0.101 A 
HETATM    3  C   UNK N   1      29.579  16.049   4.427  0.00  0.00     0.052 A 
HETATM    4  C   UNK N   1      27.117  16.430   3.625  0.00  0.00     0.052 A 
HETATM    5  C   UNK N   1      29.729  15.197   3.388  0.00  0.00     0.018 A 
HETATM    6  C   UNK N   1      27.386  15.570   2.603  0.00  0.00     0.018 A 
HETATM    7  C   UNK N   1      31.030  14.517   3.124  0.00  0.00     0.069 C 
HETATM    8  C   UNK N   1      26.347  15.178   1.595  0.00  0.00     0.069 C 
HETATM    9  H   UNK N   1      28.830  14.319   1.687  0.00  0.00     0.165 HD
ENDROOT
BRANCH   3  10
HETATM   10  C   UNK N   1      30.692  16.301   5.387  0.00  0.00     0.292 C 
HETATM   11  O   UNK N   1      31.391  17.290   5.236  0.00  0.00    -0.259 OA
BRANCH  10  12
HETATM   12  O   UNK N   1      30.883  15.533   6.492  0.00  0.00    -0.315 OA
BRANCH  12  13
HETATM   13  C   UNK N   1      31.881  15.732   7.428  0.00  0.00     0.213 C 
BRANCH  13  14
HETATM   14  C   UNK N   1      32.887  14.574   7.431  0.00  0.00     0.173 C 
HETATM   15  O   UNK N   1      33.588  14.514   8.641  0.00  0.00    -0.345 OA
HETATM   16  C   UNK N   1      34.819  15.170   8.388  0.00  0.00     0.167 C 
HETATM   17  O   UNK N   1      34.863  15.613   7.056  0.00  0.00    -0.352 OA
HETATM   18  C   UNK N   1      34.934  16.391   9.331  0.00  0.00     0.088 C 
HETATM   19  C   UNK N   1      35.983  14.177   8.568  0.00  0.00     0.088 C 
HETATM   20  C   UNK N   1      33.938  14.803   6.409  0.00  0.00     0.205 C 
HETATM   21  C   UNK N   1      35.190  15.941  10.776  0.00  0.00     0.128 C 
HETATM   22  N   UNK N   1      36.253  14.947  10.819  0.00  0.00    -0.381 N 
HETATM   23  C   UNK N   1      36.985  14.650   9.607  0.00  0.00     0.128 C 
BRANCH  22  24
HETATM   24  C   UNK N   1      36.428  14.106  11.954  0.00  0.00     0.030 A 
HETATM   25  C   UNK N   1      35.990  14.503  13.228  0.00  0.00     0.031 A 
HETATM   26  C   UNK N   1      36.113  13.632  14.316  0.00  0.00     0.026 A 
HETATM   27  C   UNK N   1      36.667  12.359  14.136  0.00  0.00     0.034 A 
HETATM   28 Cl   UNK N   1      36.800  11.256  15.485  0.00  0.00    -0.084 Cl
HETATM   29  C   UNK N   1      37.108  11.961  12.876  0.00  0.00     0.026 A 
HETATM   30  C   UNK N   1      36.991  12.827  11.794  0.00  0.00     0.031 A 
ENDBRANCH  22  24
ENDBRANCH  13  14
ENDBRANCH  12  13
ENDBRANCH  10  12
ENDBRANCH   3  10
BRANCH   2  31
HETATM   31  C   UNK N   1      28.086  17.792   5.708  0.00  0.00    -0.042 A 
HETATM   32  C   UNK N   1      28.120  17.388   7.049  0.00  0.00     0.044 A 
HETATM   33  C   UNK N   1      28.105  18.332   8.085  0.00  0.00     0.103 A 
HETATM   34  C   UNK N   1      27.961  19.692   7.770  0.00  0.00     0.036 A 
HETATM   35  C   UNK N   1      27.869  20.099   6.437  0.00  0.00     0.003 A 
HETATM   36  C   UNK N   1      27.974  19.158   5.410  0.00  0.00     0.008 A 
BRANCH  33  37
HETATM   37  N   UNK N   1      28.337  17.930   9.430  0.00  0.00    -0.116 N 
HETATM   38  O   UNK N   1      29.277  18.514  10.141  0.00  0.00    -0.532 OA
HETATM   39  O   UNK N   1      27.780  16.967   9.872  0.00  0.00    -0.532 OA
ENDBRANCH  33  37
ENDBRANCH   2  31
BRANCH   4  40
HETATM   40  C   UNK N   1      25.746  17.036   3.787  0.00  0.00     0.291 C 
HETATM   41  O   UNK N   1      25.466  18.082   3.222  0.00  0.00    -0.260 OA
BRANCH  40  42
HETATM   42  O   UNK N   1      24.814  16.435   4.568  0.00  0.00    -0.323 OA
HETATM   43  C   UNK N   1      23.634  17.051   4.919  0.00  0.00     0.213 C 
ENDBRANCH  40  42
ENDBRANCH   4  40
TORSDOF 9
ENDMDL
MODEL 9
REMARK VINA RESULT:      -7.7      4.985      9.073
REMARK  9 active torsions:
REMARK  status: ('A' for Active; 'I' for Inactive)
REMARK    1  A    between atoms: O_4  and  C_20 
REMARK    2  A    between atoms: O_4  and  C_26 
REMARK    3  A    between atoms: O_6  and  C_37 
REMARK    4  A    between atoms: N_10  and  C_21 
REMARK    5  A    between atoms: N_12  and  C_39 
REMARK    6  A    between atoms: C_18  and  C_20 
REMARK    7  A    between atoms: C_24  and  C_31 
REMARK    8  A    between atoms: C_25  and  C_26 
REMARK    9  A    between atoms: C_29  and  C_37 
ROOT
HETATM    1  N   UNK N   1      26.889  14.946   4.958  0.00  0.00    -0.362 N 
HETATM    2  C   UNK N   1      29.445  16.130   5.064  0.00  0.00     0.101 A 
HETATM    3  C   UNK N   1      29.279  14.628   4.923  0.00  0.00     0.052 A 
HETATM    4  C   UNK N   1      28.177  16.982   5.226  0.00  0.00     0.052 A 
HETATM    5  C   UNK N   1      28.032  14.108   4.875  0.00  0.00     0.018 A 
HETATM    6  C   UNK N   1      26.969  16.355   5.143  0.00  0.00     0.018 A 
HETATM    7  C   UNK N   1      27.806  12.649   4.664  0.00  0.00     0.069 C 
HETATM    8  C   UNK N   1      25.674  17.097   5.282  0.00  0.00     0.069 C 
HETATM    9  H   UNK N   1      25.955  14.510   4.907  0.00  0.00     0.165 HD
ENDROOT
BRANCH   3  10
HETATM   10  C   UNK N   1      30.483  13.754   4.826  0.00  0.00     0.292 C 
HETATM   11  O   UNK N   1      30.893  13.432   3.722  0.00  0.00    -0.259 OA
BRANCH  10  12
HETATM   12  O   UNK N   1      31.212  13.399   5.916  0.00  0.00    -0.315 OA
BRANCH  12  13
HETATM   13  C   UNK N   1      32.564  13.636   6.074  0.00  0.00     0.213 C 
BRANCH  13  14
HETATM   14  C   UNK N   1      33.258  12.473   6.796  0.00  0.00     0.173 C 
HETATM   15  O   UNK N   1      33.694  12.856   8.070  0.00  0.00    -0.345 OA
HETATM   16  C   UNK N   1      35.068  13.167   7.913  0.00  0.00     0.167 C 
HETATM   17  O   UNK N   1      35.455  12.975   6.577  0.00  0.00    -0.352 OA
HETATM   18  C   UNK N   1      35.287  14.650   8.295  0.00  0.00     0.088 C 
HETATM   19  C   UNK N   1      35.919  12.208   8.767  0.00  0.00     0.088 C 
HETATM   20  C   UNK N   1      34.502  12.094   6.081  0.00  0.00     0.205 C 
HETATM   21  C   UNK N   1      35.165  14.844   9.813  0.00  0.00     0.128 C 
HETATM   22  N   UNK N   1      35.944  13.838  10.520  0.00  0.00    -0.381 N 
HETATM   23  C   UNK N   1      36.796  12.949   9.761  0.00  0.00     0.128 C 
BRANCH  22  24
HETATM   24  C   UNK N   1      35.711  13.561  11.897  0.00  0.00     0.030 A 
HETATM   25  C   UNK N   1      34.959  12.444  12.297  0.00  0.00     0.031 A 
HETATM   26  C   UNK N   1      34.799  12.156  13.656  0.00  0.00     0.026 A 
HETATM   27  C   UNK N   1      35.394  12.976  14.622  0.00  0.00     0.034 A 
HETATM   28 Cl   UNK N   1      35.221  12.608  16.322  0.00  0.00    -0.084 Cl
HETATM   29  C   UNK N   1      36.138  14.088  14.232  0.00  0.00     0.026 A 
HETATM   30  C   UNK N   1      36.294  14.379  12.881  0.00  0.00     0.031 A 
ENDBRANCH  22  24
ENDBRANCH  13  14
ENDBRANCH  12  13
ENDBRANCH  10  12
ENDBRANCH   3  10
BRANCH   2  31
HETATM   31  C   UNK N   1      30.831  16.746   5.038  0.00  0.00    -0.042 A 
HETATM   32  C   UNK N   1      31.480  17.067   6.237  0.00  0.00     0.044 A 
HETATM   33  C   UNK N   1      32.810  17.508   6.238  0.00  0.00     0.103 A 
HETATM   34  C   UNK N   1      33.464  17.715   5.014  0.00  0.00     0.036 A 
HETATM   35  C   UNK N   1      32.804  17.450   3.811  0.00  0.00     0.003 A 
HETATM   36  C   UNK N   1      31.509  16.928   3.824  0.00  0.00     0.008 A 
BRANCH  33  37
HETATM   37  N   UNK N   1      33.523  17.644   7.461  0.00  0.00    -0.116 N 
HETATM   38  O   UNK N   1      32.928  17.388   8.605  0.00  0.00    -0.532 OA
HETATM   39  O   UNK N   1      34.618  18.128   7.466  0.00  0.00    -0.532 OA
ENDBRANCH  33  37
ENDBRANCH   2  31
BRANCH   4  40
HETATM   40  C   UNK N   1      28.263  18.469   5.460  0.00  0.00     0.291 C 
HETATM   41  O   UNK N   1      28.542  19.220   4.539  0.00  0.00    -0.260 OA
BRANCH  40  42
HETATM   42  O   UNK N   1      28.043  18.986   6.694  0.00  0.00    -0.323 OA
HETATM   43  C   UNK N   1      28.570  18.425   7.836  0.00  0.00     0.213 C 
ENDBRANCH  40  42
ENDBRANCH   4  40
TORSDOF 9
ENDMDL
