REMARK  8 active torsions:
REMARK  status: ('A' for Active; 'I' for Inactive)
REMARK    1  A    between atoms: C_13  and  C_11 
REMARK    2  A    between atoms: N_22  and  C_11 
REMARK    3  A    between atoms: C_16  and  C_12 
REMARK    4  A    between atoms: O_23  and  C_12 
REMARK    5  A    between atoms: C_16  and  C_14 
REMARK    6  A    between atoms: C_15  and  O_25 
REMARK    7  A    between atoms: C_21  and  C_16 
REMARK    8  A    between atoms: O_25  and  C_21 
ROOT
HETATM    1  C   UNK N   1       3.109  -0.499   1.981  0.00  0.00     0.273 C 
HETATM    2  C   UNK N   1       1.703  -1.662  -1.403  0.00  0.00     0.069 C 
HETATM    3  C   UNK N   1       0.782   0.636  -0.824  0.00  0.00     0.069 C 
HETATM    4  C   UNK N   1       0.460  -0.746  -1.425  0.00  0.00     0.136 C 
HETATM    5  C   UNK N   1       2.727  -1.372  -0.254  0.00  0.00     0.224 C 
HETATM    6  C   UNK N   1       1.905   0.657   0.252  0.00  0.00     0.224 C 
HETATM    7  C   UNK N   1       3.792  -0.400  -0.803  0.00  0.00     0.184 A 
HETATM    8  C   UNK N   1       3.232   0.972  -0.472  0.00  0.00     0.184 A 
HETATM    9  N   UNK N   1       2.132  -0.653   0.891  0.00  0.00    -0.057 N 
HETATM   10  O   UNK N   1       3.383   0.512  -1.793  0.00  0.00    -0.371 OA
ENDROOT
BRANCH   4  11
HETATM   11  O   UNK N   1      -0.507  -1.363  -0.657  0.00  0.00    -0.315 OA
BRANCH  11  12
HETATM   12  C   UNK N   1      -1.740  -0.903  -0.305  0.00  0.00     0.270 C 
HETATM   13  O   UNK N   1      -2.185  -1.243   0.778  0.00  0.00    -0.264 OA
BRANCH  12  14
HETATM   14  C   UNK N   1      -2.597  -0.019  -1.195  0.00  0.00     0.142 C 
BRANCH  14  15
HETATM   15  C   UNK N   1      -3.910  -0.765  -1.502  0.00  0.00     0.183 C 
BRANCH  15  16
HETATM   16  O   UNK N   1      -4.624  -1.077  -0.338  0.00  0.00    -0.400 OA
HETATM   17  H   UNK N   1      -5.058  -0.757   0.468  0.00  0.00     0.209 HD
ENDBRANCH  15  16
ENDBRANCH  14  15
BRANCH  14  18
HETATM   18  C   UNK N   1      -2.826   1.342  -0.551  0.00  0.00    -0.043 A 
HETATM   19  C   UNK N   1      -4.104   1.769  -0.146  0.00  0.00     0.008 A 
HETATM   20  C   UNK N   1      -4.283   3.026   0.440  0.00  0.00     0.001 A 
HETATM   21  C   UNK N   1      -3.190   3.878   0.613  0.00  0.00     0.000 A 
HETATM   22  C   UNK N   1      -1.918   3.471   0.204  0.00  0.00     0.001 A 
HETATM   23  C   UNK N   1      -1.739   2.210  -0.370  0.00  0.00     0.008 A 
ENDBRANCH  14  18
ENDBRANCH  12  14
ENDBRANCH  11  12
ENDBRANCH   4  11
BRANCH   9  24
HETATM   24  C   UNK N   1       0.932  -1.249   1.507  0.00  0.00     0.242 C 
BRANCH  24  25
HETATM   25  C   UNK N   1       1.155  -2.659   2.066  0.00  0.00     0.012 A 
HETATM   26  C   UNK N   1      -0.170  -3.395   2.080  0.00  0.00     0.007 A 
HETATM   27  C   UNK N   1       0.859  -3.712   1.016  0.00  0.00     0.007 A 
ENDBRANCH  24  25
ENDBRANCH   9  24
TORSDOF 8
