MODEL 1
REMARK VINA RESULT:      -7.4      0.000      0.000
REMARK  6 active torsions:
REMARK  status: ('A' for Active; 'I' for Inactive)
REMARK    1  A    between atoms: O_2  and  C_16 
REMARK    2  A    between atoms: O_2  and  C_23 
REMARK    3  A    between atoms: O_3  and  C_15 
REMARK    4  A    between atoms: C_12  and  C_16 
REMARK    5  A    between atoms: C_17  and  C_22 
REMARK    6  A    between atoms: C_20  and  C_22 
ROOT
HETATM    1  C   UNK N   1      29.678  21.935  -5.565  0.00  0.00    -0.056 A 
HETATM    2  C   UNK N   1      27.350  23.198  -6.407  0.00  0.00     0.069 A 
HETATM    3  C   UNK N   1      29.147  22.981  -4.806  0.00  0.00     0.010 A 
HETATM    4  C   UNK N   1      29.093  21.570  -6.780  0.00  0.00     0.010 A 
HETATM    5  C   UNK N   1      27.987  23.617  -5.236  0.00  0.00     0.037 A 
HETATM    6  C   UNK N   1      27.938  22.212  -7.212  0.00  0.00     0.037 A 
ENDROOT
BRANCH   2   7
HETATM    7  O   UNK N   1      26.151  23.724  -6.707  0.00  0.00    -0.344 OA
BRANCH   7   8
HETATM    8  C   UNK N   1      25.932  24.653  -7.693  0.00  0.00     0.252 C 
BRANCH   8   9
HETATM    9  C   UNK N   1      25.960  25.933  -6.971  0.00  0.00     0.108 A 
HETATM   10  N   UNK N   1      26.837  26.922  -7.255  0.00  0.00    -0.337 N 
HETATM   11  C   UNK N   1      26.730  27.780  -6.242  0.00  0.00     0.065 A 
HETATM   12  C   UNK N   1      27.775  26.990  -8.369  0.00  0.00     0.158 C 
HETATM   13  C   UNK N   1      25.786  27.319  -5.371  0.00  0.00     0.060 A 
HETATM   14  C   UNK N   1      27.472  28.926  -5.999  0.00  0.00     0.068 A 
HETATM   15  N   UNK N   1      25.286  26.152  -5.814  0.00  0.00    -0.342 N 
HETATM   16  C   UNK N   1      25.498  27.974  -4.184  0.00  0.00     0.035 A 
ATOM     17  HN  UNK N   1      24.569  25.569  -5.382  1.00  0.00     0.167 HD
HETATM   18  C   UNK N   1      26.234  29.139  -3.896  0.00  0.00     0.039 A 
HETATM   19  C   UNK N   1      27.230  29.616  -4.800  0.00  0.00     0.070 A 
BRANCH  19  20
HETATM   20  O   UNK N   1      27.972  30.711  -4.521  0.00  0.00    -0.356 OA
HETATM   21  C   UNK N   1      28.670  30.866  -3.347  0.00  0.00     0.210 C 
ENDBRANCH  19  20
ENDBRANCH   8   9
ENDBRANCH   7   8
ENDBRANCH   2   7
BRANCH   1  22
HETATM   22  C   UNK N   1      30.581  20.957  -4.915  0.00  0.00     0.063 C 
BRANCH  22  23
HETATM   23  C   UNK N   1      31.940  21.626  -4.553  0.00  0.00     0.153 A 
HETATM   24  S   UNK N   1      33.249  20.791  -5.536  0.00  0.00    -0.054 SA
HETATM   25  C   UNK N   1      33.980  20.215  -4.005  0.00  0.00     0.287 A 
HETATM   26  O   UNK N   1      34.936  19.459  -3.979  0.00  0.00    -0.260 OA
HETATM   27  N   UNK N   1      33.440  20.686  -2.883  0.00  0.00    -0.287 N 
HETATM   28  C   UNK N   1      32.380  21.465  -3.101  0.00  0.00     0.239 A 
HETATM   29  H   UNK N   1      33.787  20.481  -1.985  0.00  0.00     0.172 HD
HETATM   30  O   UNK N   1      31.807  22.008  -2.169  0.00  0.00    -0.272 OA
ENDBRANCH  22  23
ENDBRANCH   1  22
TORSDOF 6
ENDMDL
MODEL 2
REMARK VINA RESULT:      -7.2     11.700     13.758
REMARK  6 active torsions:
REMARK  status: ('A' for Active; 'I' for Inactive)
REMARK    1  A    between atoms: O_2  and  C_16 
REMARK    2  A    between atoms: O_2  and  C_23 
REMARK    3  A    between atoms: O_3  and  C_15 
REMARK    4  A    between atoms: C_12  and  C_16 
REMARK    5  A    between atoms: C_17  and  C_22 
REMARK    6  A    between atoms: C_20  and  C_22 
ROOT
HETATM    1  C   UNK N   1      30.646  17.464   8.137  0.00  0.00    -0.056 A 
HETATM    2  C   UNK N   1      28.259  18.301   6.984  0.00  0.00     0.069 A 
HETATM    3  C   UNK N   1      30.291  16.998   6.868  0.00  0.00     0.010 A 
HETATM    4  C   UNK N   1      29.777  18.284   8.861  0.00  0.00     0.010 A 
HETATM    5  C   UNK N   1      29.091  17.412   6.297  0.00  0.00     0.037 A 
HETATM    6  C   UNK N   1      28.574  18.691   8.293  0.00  0.00     0.037 A 
ENDROOT
BRANCH   2   7
HETATM    7  O   UNK N   1      27.192  18.804   6.341  0.00  0.00    -0.344 OA
BRANCH   7   8
HETATM    8  C   UNK N   1      27.193  19.219   5.034  0.00  0.00     0.252 C 
BRANCH   8   9
HETATM    9  C   UNK N   1      25.803  19.009   4.605  0.00  0.00     0.108 A 
HETATM   10  N   UNK N   1      25.223  19.713   3.608  0.00  0.00    -0.337 N 
HETATM   11  C   UNK N   1      23.924  19.433   3.697  0.00  0.00     0.065 A 
HETATM   12  C   UNK N   1      25.858  20.657   2.695  0.00  0.00     0.158 C 
HETATM   13  C   UNK N   1      23.731  18.557   4.724  0.00  0.00     0.060 A 
HETATM   14  C   UNK N   1      22.874  19.962   2.962  0.00  0.00     0.068 A 
HETATM   15  N   UNK N   1      24.907  18.275   5.312  0.00  0.00    -0.342 N 
HETATM   16  C   UNK N   1      22.467  18.128   5.098  0.00  0.00     0.035 A 
ATOM     17  HN  UNK N   1      25.084  17.655   6.102  1.00  0.00     0.167 HD
HETATM   18  C   UNK N   1      21.372  18.647   4.381  0.00  0.00     0.039 A 
HETATM   19  C   UNK N   1      21.571  19.573   3.314  0.00  0.00     0.070 A 
BRANCH  19  20
HETATM   20  O   UNK N   1      20.530  20.110   2.640  0.00  0.00    -0.356 OA
HETATM   21  C   UNK N   1      20.686  20.937   1.552  0.00  0.00     0.210 C 
ENDBRANCH  19  20
ENDBRANCH   8   9
ENDBRANCH   7   8
ENDBRANCH   2   7
BRANCH   1  22
HETATM   22  C   UNK N   1      32.070  17.442   8.542  0.00  0.00     0.063 C 
BRANCH  22  23
HETATM   23  C   UNK N   1      32.842  16.339   7.760  0.00  0.00     0.153 A 
HETATM   24  S   UNK N   1      33.036  14.896   8.881  0.00  0.00    -0.054 SA
HETATM   25  C   UNK N   1      34.812  15.131   8.818  0.00  0.00     0.287 A 
HETATM   26  O   UNK N   1      35.584  14.469   9.490  0.00  0.00    -0.260 OA
HETATM   27  N   UNK N   1      35.251  16.055   7.967  0.00  0.00    -0.287 N 
HETATM   28  C   UNK N   1      34.265  16.707   7.349  0.00  0.00     0.239 A 
HETATM   29  H   UNK N   1      36.205  16.238   7.808  0.00  0.00     0.172 HD
HETATM   30  O   UNK N   1      34.515  17.553   6.503  0.00  0.00    -0.272 OA
ENDBRANCH  22  23
ENDBRANCH   1  22
TORSDOF 6
ENDMDL
MODEL 3
REMARK VINA RESULT:      -7.2     13.003     18.140
REMARK  6 active torsions:
REMARK  status: ('A' for Active; 'I' for Inactive)
REMARK    1  A    between atoms: O_2  and  C_16 
REMARK    2  A    between atoms: O_2  and  C_23 
REMARK    3  A    between atoms: O_3  and  C_15 
REMARK    4  A    between atoms: C_12  and  C_16 
REMARK    5  A    between atoms: C_17  and  C_22 
REMARK    6  A    between atoms: C_20  and  C_22 
ROOT
HETATM    1  C   UNK N   1      28.985  17.603   7.412  0.00  0.00    -0.056 A 
HETATM    2  C   UNK N   1      31.587  17.947   8.329  0.00  0.00     0.069 A 
HETATM    3  C   UNK N   1      29.210  18.278   8.615  0.00  0.00     0.010 A 
HETATM    4  C   UNK N   1      30.049  17.034   6.707  0.00  0.00     0.010 A 
HETATM    5  C   UNK N   1      30.513  18.440   9.076  0.00  0.00     0.037 A 
HETATM    6  C   UNK N   1      31.350  17.190   7.173  0.00  0.00     0.037 A 
ENDROOT
BRANCH   2   7
HETATM    7  O   UNK N   1      32.834  18.259   8.718  0.00  0.00    -0.344 OA
BRANCH   7   8
HETATM    8  C   UNK N   1      33.968  17.983   7.997  0.00  0.00     0.252 C 
BRANCH   8   9
HETATM    9  C   UNK N   1      34.691  17.026   8.847  0.00  0.00     0.108 A 
HETATM   10  N   UNK N   1      34.988  15.767   8.455  0.00  0.00    -0.337 N 
HETATM   11  C   UNK N   1      35.391  15.146   9.562  0.00  0.00     0.065 A 
HETATM   12  C   UNK N   1      34.810  15.179   7.133  0.00  0.00     0.158 C 
HETATM   13  C   UNK N   1      35.353  16.029  10.601  0.00  0.00     0.060 A 
HETATM   14  C   UNK N   1      35.730  13.812   9.729  0.00  0.00     0.068 A 
HETATM   15  N   UNK N   1      34.913  17.224  10.171  0.00  0.00    -0.342 N 
HETATM   16  C   UNK N   1      35.661  15.651  11.900  0.00  0.00     0.035 A 
ATOM     17  HN  UNK N   1      34.779  18.078  10.712  1.00  0.00     0.167 HD
HETATM   18  C   UNK N   1      36.004  14.302  12.113  0.00  0.00     0.039 A 
HETATM   19  C   UNK N   1      36.033  13.375  11.030  0.00  0.00     0.070 A 
BRANCH  19  20
HETATM   20  O   UNK N   1      36.323  12.069  11.223  0.00  0.00    -0.356 OA
HETATM   21  C   UNK N   1      37.573  11.623  11.581  0.00  0.00     0.210 C 
ENDBRANCH  19  20
ENDBRANCH   8   9
ENDBRANCH   7   8
ENDBRANCH   2   7
BRANCH   1  22
HETATM   22  C   UNK N   1      27.719  17.835   6.680  0.00  0.00     0.063 C 
BRANCH  22  23
HETATM   23  C   UNK N   1      27.936  18.857   5.526  0.00  0.00     0.153 A 
HETATM   24  S   UNK N   1      26.815  20.281   5.827  0.00  0.00    -0.054 SA
HETATM   25  C   UNK N   1      25.957  19.882   4.305  0.00  0.00     0.287 A 
HETATM   26  O   UNK N   1      24.954  20.472   3.944  0.00  0.00    -0.260 OA
HETATM   27  N   UNK N   1      26.498  18.917   3.563  0.00  0.00    -0.287 N 
HETATM   28  C   UNK N   1      27.566  18.357   4.133  0.00  0.00     0.239 A 
HETATM   29  H   UNK N   1      26.146  18.645   2.685  0.00  0.00     0.172 HD
HETATM   30  O   UNK N   1      28.196  17.488   3.549  0.00  0.00    -0.272 OA
ENDBRANCH  22  23
ENDBRANCH   1  22
TORSDOF 6
ENDMDL
MODEL 4
REMARK VINA RESULT:      -7.1     15.949     21.241
REMARK  6 active torsions:
REMARK  status: ('A' for Active; 'I' for Inactive)
REMARK    1  A    between atoms: O_2  and  C_16 
REMARK    2  A    between atoms: O_2  and  C_23 
REMARK    3  A    between atoms: O_3  and  C_15 
REMARK    4  A    between atoms: C_12  and  C_16 
REMARK    5  A    between atoms: C_17  and  C_22 
REMARK    6  A    between atoms: C_20  and  C_22 
ROOT
HETATM    1  C   UNK N   1      32.025  17.005   8.499  0.00  0.00    -0.056 A 
HETATM    2  C   UNK N   1      34.152  15.421   9.330  0.00  0.00     0.069 A 
HETATM    3  C   UNK N   1      31.823  15.641   8.725  0.00  0.00     0.010 A 
HETATM    4  C   UNK N   1      33.301  17.563   8.612  0.00  0.00     0.010 A 
HETATM    5  C   UNK N   1      32.892  14.849   9.132  0.00  0.00     0.037 A 
HETATM    6  C   UNK N   1      34.371  16.768   9.012  0.00  0.00     0.037 A 
ENDROOT
BRANCH   2   7
HETATM    7  O   UNK N   1      35.119  14.664   9.875  0.00  0.00    -0.344 OA
BRANCH   7   8
HETATM    8  C   UNK N   1      36.366  15.122  10.221  0.00  0.00     0.252 C 
BRANCH   8   9
HETATM    9  C   UNK N   1      36.633  14.456  11.504  0.00  0.00     0.108 A 
HETATM   10  N   UNK N   1      37.112  13.195  11.595  0.00  0.00    -0.337 N 
HETATM   11  C   UNK N   1      36.968  12.863  12.877  0.00  0.00     0.065 A 
HETATM   12  C   UNK N   1      37.588  12.341  10.514  0.00  0.00     0.158 C 
HETATM   13  C   UNK N   1      36.425  13.919  13.548  0.00  0.00     0.060 A 
HETATM   14  C   UNK N   1      37.224  11.644  13.487  0.00  0.00     0.068 A 
HETATM   15  N   UNK N   1      36.206  14.938  12.698  0.00  0.00    -0.342 N 
HETATM   16  C   UNK N   1      36.101  13.847  14.894  0.00  0.00     0.035 A 
ATOM     17  HN  UNK N   1      35.812  15.856  12.903  1.00  0.00     0.167 HD
HETATM   18  C   UNK N   1      36.340  12.625  15.550  0.00  0.00     0.039 A 
HETATM   19  C   UNK N   1      36.896  11.516  14.847  0.00  0.00     0.070 A 
BRANCH  19  20
HETATM   20  O   UNK N   1      37.097  10.323  15.451  0.00  0.00    -0.356 OA
HETATM   21  C   UNK N   1      36.670  10.047  16.728  0.00  0.00     0.210 C 
ENDBRANCH  19  20
ENDBRANCH   8   9
ENDBRANCH   7   8
ENDBRANCH   2   7
BRANCH   1  22
HETATM   22  C   UNK N   1      30.865  17.925   8.546  0.00  0.00     0.063 C 
BRANCH  22  23
HETATM   23  C   UNK N   1      29.598  17.235   7.960  0.00  0.00     0.153 A 
HETATM   24  S   UNK N   1      29.636  17.461   6.137  0.00  0.00    -0.054 SA
HETATM   25  C   UNK N   1      28.134  18.430   6.261  0.00  0.00     0.287 A 
HETATM   26  O   UNK N   1      27.638  18.995   5.303  0.00  0.00    -0.260 OA
HETATM   27  N   UNK N   1      27.564  18.476   7.464  0.00  0.00    -0.287 N 
HETATM   28  C   UNK N   1      28.266  17.836   8.400  0.00  0.00     0.239 A 
HETATM   29  H   UNK N   1      26.712  18.934   7.643  0.00  0.00     0.172 HD
HETATM   30  O   UNK N   1      27.845  17.753   9.543  0.00  0.00    -0.272 OA
ENDBRANCH  22  23
ENDBRANCH   1  22
TORSDOF 6
ENDMDL
MODEL 5
REMARK VINA RESULT:      -7.1     19.458     23.521
REMARK  6 active torsions:
REMARK  status: ('A' for Active; 'I' for Inactive)
REMARK    1  A    between atoms: O_2  and  C_16 
REMARK    2  A    between atoms: O_2  and  C_23 
REMARK    3  A    between atoms: O_3  and  C_15 
REMARK    4  A    between atoms: C_12  and  C_16 
REMARK    5  A    between atoms: C_17  and  C_22 
REMARK    6  A    between atoms: C_20  and  C_22 
ROOT
HETATM    1  C   UNK N   1      35.132  10.997  16.204  0.00  0.00    -0.056 A 
HETATM    2  C   UNK N   1      34.964  12.608  13.945  0.00  0.00     0.069 A 
HETATM    3  C   UNK N   1      35.964  12.113  16.089  0.00  0.00     0.010 A 
HETATM    4  C   UNK N   1      34.272  10.640  15.161  0.00  0.00     0.010 A 
HETATM    5  C   UNK N   1      35.884  12.912  14.953  0.00  0.00     0.037 A 
HETATM    6  C   UNK N   1      34.199  11.436  14.023  0.00  0.00     0.037 A 
ENDROOT
BRANCH   2   7
HETATM    7  O   UNK N   1      34.801  13.486  12.942  0.00  0.00    -0.344 OA
BRANCH   7   8
HETATM    8  C   UNK N   1      35.756  14.377  12.523  0.00  0.00     0.252 C 
BRANCH   8   9
HETATM    9  C   UNK N   1      35.235  14.860  11.236  0.00  0.00     0.108 A 
HETATM   10  N   UNK N   1      35.462  14.229  10.063  0.00  0.00    -0.337 N 
HETATM   11  C   UNK N   1      35.071  15.090   9.125  0.00  0.00     0.065 A 
HETATM   12  C   UNK N   1      36.095  12.931   9.856  0.00  0.00     0.158 C 
HETATM   13  C   UNK N   1      34.597  16.216   9.731  0.00  0.00     0.060 A 
HETATM   14  C   UNK N   1      35.169  14.970   7.747  0.00  0.00     0.068 A 
HETATM   15  N   UNK N   1      34.692  16.092  11.067  0.00  0.00    -0.342 N 
HETATM   16  C   UNK N   1      34.173  17.319   9.006  0.00  0.00     0.035 A 
ATOM     17  HN  UNK N   1      34.419  16.765  11.783  1.00  0.00     0.167 HD
HETATM   18  C   UNK N   1      34.263  17.240   7.603  0.00  0.00     0.039 A 
HETATM   19  C   UNK N   1      34.768  16.068   6.968  0.00  0.00     0.070 A 
BRANCH  19  20
HETATM   20  O   UNK N   1      34.897  15.990   5.625  0.00  0.00    -0.356 OA
HETATM   21  C   UNK N   1      33.919  15.478   4.805  0.00  0.00     0.210 C 
ENDBRANCH  19  20
ENDBRANCH   8   9
ENDBRANCH   7   8
ENDBRANCH   2   7
BRANCH   1  22
HETATM   22  C   UNK N   1      34.852  10.440  17.548  0.00  0.00     0.063 C 
BRANCH  22  23
HETATM   23  C   UNK N   1      35.962  10.860  18.554  0.00  0.00     0.153 A 
HETATM   24  S   UNK N   1      36.588   9.332  19.361  0.00  0.00    -0.054 SA
HETATM   25  C   UNK N   1      35.979   9.952  20.928  0.00  0.00     0.287 A 
HETATM   26  O   UNK N   1      36.019   9.295  21.953  0.00  0.00    -0.260 OA
HETATM   27  N   UNK N   1      35.503  11.195  20.921  0.00  0.00    -0.287 N 
HETATM   28  C   UNK N   1      35.497  11.746  19.706  0.00  0.00     0.239 A 
HETATM   29  H   UNK N   1      35.187  11.661  21.729  0.00  0.00     0.172 HD
HETATM   30  O   UNK N   1      35.131  12.901  19.550  0.00  0.00    -0.272 OA
ENDBRANCH  22  23
ENDBRANCH   1  22
TORSDOF 6
ENDMDL
MODEL 6
REMARK VINA RESULT:      -7.1     25.636     29.984
REMARK  6 active torsions:
REMARK  status: ('A' for Active; 'I' for Inactive)
REMARK    1  A    between atoms: O_2  and  C_16 
REMARK    2  A    between atoms: O_2  and  C_23 
REMARK    3  A    between atoms: O_3  and  C_15 
REMARK    4  A    between atoms: C_12  and  C_16 
REMARK    5  A    between atoms: C_17  and  C_22 
REMARK    6  A    between atoms: C_20  and  C_22 
ROOT
HETATM    1  C   UNK N   1      35.280  12.437  17.186  0.00  0.00    -0.056 A 
HETATM    2  C   UNK N   1      35.645  11.288  19.690  0.00  0.00     0.069 A 
HETATM    3  C   UNK N   1      35.716  11.113  17.281  0.00  0.00     0.010 A 
HETATM    4  C   UNK N   1      35.100  13.211  18.335  0.00  0.00     0.010 A 
HETATM    5  C   UNK N   1      35.907  10.544  18.536  0.00  0.00     0.037 A 
HETATM    6  C   UNK N   1      35.298  12.643  19.589  0.00  0.00     0.037 A 
ENDROOT
BRANCH   2   7
HETATM    7  O   UNK N   1      35.685  10.662  20.878  0.00  0.00    -0.344 OA
BRANCH   7   8
HETATM    8  C   UNK N   1      35.226   9.389  21.104  0.00  0.00     0.252 C 
BRANCH   8   9
HETATM    9  C   UNK N   1      34.600   9.480  22.432  0.00  0.00     0.108 A 
HETATM   10  N   UNK N   1      33.277   9.693  22.611  0.00  0.00    -0.337 N 
HETATM   11  C   UNK N   1      33.146   9.975  23.906  0.00  0.00     0.065 A 
HETATM   12  C   UNK N   1      32.231   9.713  21.596  0.00  0.00     0.158 C 
HETATM   13  C   UNK N   1      34.373   9.914  24.498  0.00  0.00     0.060 A 
HETATM   14  C   UNK N   1      32.004  10.355  24.596  0.00  0.00     0.068 A 
HETATM   15  N   UNK N   1      35.308   9.602  23.583  0.00  0.00    -0.342 N 
HETATM   16  C   UNK N   1      34.561  10.221  25.837  0.00  0.00     0.035 A 
ATOM     17  HN  UNK N   1      36.311   9.485  23.721  1.00  0.00     0.167 HD
HETATM   18  C   UNK N   1      33.427  10.618  26.571  0.00  0.00     0.039 A 
HETATM   19  C   UNK N   1      32.145  10.694  25.951  0.00  0.00     0.070 A 
BRANCH  19  20
HETATM   20  O   UNK N   1      31.053  11.110  26.631  0.00  0.00    -0.356 OA
HETATM   21  C   UNK N   1      29.773  10.730  26.302  0.00  0.00     0.210 C 
ENDBRANCH  19  20
ENDBRANCH   8   9
ENDBRANCH   7   8
ENDBRANCH   2   7
BRANCH   1  22
HETATM   22  C   UNK N   1      34.622  12.893  15.939  0.00  0.00     0.063 C 
BRANCH  22  23
HETATM   23  C   UNK N   1      35.413  12.398  14.693  0.00  0.00     0.153 A 
HETATM   24  S   UNK N   1      36.170  13.870  13.896  0.00  0.00    -0.054 SA
HETATM   25  C   UNK N   1      35.162  13.560  12.447  0.00  0.00     0.287 A 
HETATM   26  O   UNK N   1      35.139  14.315  11.491  0.00  0.00    -0.260 OA
HETATM   27  N   UNK N   1      34.454  12.432  12.456  0.00  0.00    -0.287 N 
HETATM   28  C   UNK N   1      34.568  11.753  13.598  0.00  0.00     0.239 A 
HETATM   29  H   UNK N   1      33.904  12.130  11.698  0.00  0.00     0.172 HD
HETATM   30  O   UNK N   1      34.013  10.674  13.736  0.00  0.00    -0.272 OA
ENDBRANCH  22  23
ENDBRANCH   1  22
TORSDOF 6
ENDMDL
MODEL 7
REMARK VINA RESULT:      -7.0     12.021     14.869
REMARK  6 active torsions:
REMARK  status: ('A' for Active; 'I' for Inactive)
REMARK    1  A    between atoms: O_2  and  C_16 
REMARK    2  A    between atoms: O_2  and  C_23 
REMARK    3  A    between atoms: O_3  and  C_15 
REMARK    4  A    between atoms: C_12  and  C_16 
REMARK    5  A    between atoms: C_17  and  C_22 
REMARK    6  A    between atoms: C_20  and  C_22 
ROOT
HETATM    1  C   UNK N   1      33.091  15.745   8.008  0.00  0.00    -0.056 A 
HETATM    2  C   UNK N   1      31.850  16.678   5.702  0.00  0.00     0.069 A 
HETATM    3  C   UNK N   1      33.495  16.960   7.449  0.00  0.00     0.010 A 
HETATM    4  C   UNK N   1      32.124  14.960   7.375  0.00  0.00     0.010 A 
HETATM    5  C   UNK N   1      32.879  17.420   6.290  0.00  0.00     0.037 A 
HETATM    6  C   UNK N   1      31.514  15.417   6.212  0.00  0.00     0.037 A 
ENDROOT
BRANCH   2   7
HETATM    7  O   UNK N   1      31.171  17.225   4.680  0.00  0.00    -0.344 OA
BRANCH   7   8
HETATM    8  C   UNK N   1      30.230  16.566   3.929  0.00  0.00     0.252 C 
BRANCH   8   9
HETATM    9  C   UNK N   1      29.000  17.336   4.167  0.00  0.00     0.108 A 
HETATM   10  N   UNK N   1      27.774  16.900   3.802  0.00  0.00    -0.337 N 
HETATM   11  C   UNK N   1      26.977  17.958   3.936  0.00  0.00     0.065 A 
HETATM   12  C   UNK N   1      27.413  15.588   3.275  0.00  0.00     0.158 C 
HETATM   13  C   UNK N   1      27.714  19.010   4.393  0.00  0.00     0.060 A 
HETATM   14  C   UNK N   1      25.634  18.074   3.610  0.00  0.00     0.068 A 
HETATM   15  N   UNK N   1      28.997  18.639   4.546  0.00  0.00    -0.342 N 
HETATM   16  C   UNK N   1      27.165  20.271   4.572  0.00  0.00     0.035 A 
ATOM     17  HN  UNK N   1      29.782  19.202   4.872  1.00  0.00     0.167 HD
HETATM   18  C   UNK N   1      25.805  20.433   4.247  0.00  0.00     0.039 A 
HETATM   19  C   UNK N   1      25.035  19.336   3.757  0.00  0.00     0.070 A 
BRANCH  19  20
HETATM   20  O   UNK N   1      23.739  19.483   3.404  0.00  0.00    -0.356 OA
HETATM   21  C   UNK N   1      22.716  18.774   3.988  0.00  0.00     0.210 C 
ENDBRANCH  19  20
ENDBRANCH   8   9
ENDBRANCH   7   8
ENDBRANCH   2   7
BRANCH   1  22
HETATM   22  C   UNK N   1      33.363  15.482   9.440  0.00  0.00     0.063 C 
BRANCH  22  23
HETATM   23  C   UNK N   1      34.892  15.316   9.682  0.00  0.00     0.153 A 
HETATM   24  S   UNK N   1      35.150  13.701  10.520  0.00  0.00    -0.054 SA
HETATM   25  C   UNK N   1      35.778  14.583  11.948  0.00  0.00     0.287 A 
HETATM   26  O   UNK N   1      36.077  14.020  12.987  0.00  0.00    -0.260 OA
HETATM   27  N   UNK N   1      35.935  15.897  11.803  0.00  0.00    -0.287 N 
HETATM   28  C   UNK N   1      35.519  16.346  10.618  0.00  0.00     0.239 A 
HETATM   29  H   UNK N   1      36.318  16.478  12.499  0.00  0.00     0.172 HD
HETATM   30  O   UNK N   1      35.643  17.524  10.322  0.00  0.00    -0.272 OA
ENDBRANCH  22  23
ENDBRANCH   1  22
TORSDOF 6
ENDMDL
MODEL 8
REMARK VINA RESULT:      -6.9     12.837     15.782
REMARK  6 active torsions:
REMARK  status: ('A' for Active; 'I' for Inactive)
REMARK    1  A    between atoms: O_2  and  C_16 
REMARK    2  A    between atoms: O_2  and  C_23 
REMARK    3  A    between atoms: O_3  and  C_15 
REMARK    4  A    between atoms: C_12  and  C_16 
REMARK    5  A    between atoms: C_17  and  C_22 
REMARK    6  A    between atoms: C_20  and  C_22 
ROOT
HETATM    1  C   UNK N   1      34.598  16.310   8.954  0.00  0.00    -0.056 A 
HETATM    2  C   UNK N   1      32.455  16.903   7.286  0.00  0.00     0.069 A 
HETATM    3  C   UNK N   1      34.298  17.643   8.661  0.00  0.00     0.010 A 
HETATM    4  C   UNK N   1      33.879  15.272   8.355  0.00  0.00     0.010 A 
HETATM    5  C   UNK N   1      33.231  17.936   7.819  0.00  0.00     0.037 A 
HETATM    6  C   UNK N   1      32.817  15.566   7.506  0.00  0.00     0.037 A 
ENDROOT
BRANCH   2   7
HETATM    7  O   UNK N   1      31.341  17.224   6.608  0.00  0.00    -0.344 OA
BRANCH   7   8
HETATM    8  C   UNK N   1      30.282  16.375   6.402  0.00  0.00     0.252 C 
BRANCH   8   9
HETATM    9  C   UNK N   1      29.133  17.283   6.278  0.00  0.00     0.108 A 
HETATM   10  N   UNK N   1      28.330  17.314   5.190  0.00  0.00    -0.337 N 
HETATM   11  C   UNK N   1      27.596  18.416   5.334  0.00  0.00     0.065 A 
HETATM   12  C   UNK N   1      28.334  16.402   4.052  0.00  0.00     0.158 C 
HETATM   13  C   UNK N   1      27.942  19.027   6.503  0.00  0.00     0.060 A 
HETATM   14  C   UNK N   1      26.674  18.960   4.453  0.00  0.00     0.068 A 
HETATM   15  N   UNK N   1      28.913  18.327   7.116  0.00  0.00    -0.342 N 
HETATM   16  C   UNK N   1      27.386  20.236   6.894  0.00  0.00     0.035 A 
ATOM     17  HN  UNK N   1      29.374  18.532   8.002  1.00  0.00     0.167 HD
HETATM   18  C   UNK N   1      26.450  20.825   6.024  0.00  0.00     0.039 A 
HETATM   19  C   UNK N   1      26.095  20.193   4.796  0.00  0.00     0.070 A 
BRANCH  19  20
HETATM   20  O   UNK N   1      25.227  20.764   3.931  0.00  0.00    -0.356 OA
HETATM   21  C   UNK N   1      25.118  20.381   2.615  0.00  0.00     0.210 C 
ENDBRANCH  19  20
ENDBRANCH   8   9
ENDBRANCH   7   8
ENDBRANCH   2   7
BRANCH   1  22
HETATM   22  C   UNK N   1      35.372  15.995  10.177  0.00  0.00     0.063 C 
BRANCH  22  23
HETATM   23  C   UNK N   1      35.709  14.476  10.233  0.00  0.00     0.153 A 
HETATM   24  S   UNK N   1      34.982  13.803  11.780  0.00  0.00    -0.054 SA
HETATM   25  C   UNK N   1      36.638  13.426  12.352  0.00  0.00     0.287 A 
HETATM   26  O   UNK N   1      36.862  12.990  13.467  0.00  0.00    -0.260 OA
HETATM   27  N   UNK N   1      37.620  13.620  11.474  0.00  0.00    -0.287 N 
HETATM   28  C   UNK N   1      37.195  14.140  10.321  0.00  0.00     0.239 A 
HETATM   29  H   UNK N   1      38.562  13.402  11.656  0.00  0.00     0.172 HD
HETATM   30  O   UNK N   1      37.976  14.331   9.401  0.00  0.00    -0.272 OA
ENDBRANCH  22  23
ENDBRANCH   1  22
TORSDOF 6
ENDMDL
MODEL 9
REMARK VINA RESULT:      -6.9     16.365     21.489
REMARK  6 active torsions:
REMARK  status: ('A' for Active; 'I' for Inactive)
REMARK    1  A    between atoms: O_2  and  C_16 
REMARK    2  A    between atoms: O_2  and  C_23 
REMARK    3  A    between atoms: O_3  and  C_15 
REMARK    4  A    between atoms: C_12  and  C_16 
REMARK    5  A    between atoms: C_17  and  C_22 
REMARK    6  A    between atoms: C_20  and  C_22 
ROOT
HETATM    1  C   UNK N   1      33.294  16.353   7.867  0.00  0.00    -0.056 A 
HETATM    2  C   UNK N   1      34.400  15.615  10.307  0.00  0.00     0.069 A 
HETATM    3  C   UNK N   1      32.828  15.208   8.518  0.00  0.00     0.010 A 
HETATM    4  C   UNK N   1      34.361  17.086   8.393  0.00  0.00     0.010 A 
HETATM    5  C   UNK N   1      33.391  14.836   9.735  0.00  0.00     0.037 A 
HETATM    6  C   UNK N   1      34.928  16.708   9.606  0.00  0.00     0.037 A 
ENDROOT
BRANCH   2   7
HETATM    7  O   UNK N   1      34.808  15.319  11.553  0.00  0.00    -0.344 OA
BRANCH   7   8
HETATM    8  C   UNK N   1      35.881  14.518  11.852  0.00  0.00     0.252 C 
BRANCH   8   9
HETATM    9  C   UNK N   1      35.386  13.678  12.953  0.00  0.00     0.108 A 
HETATM   10  N   UNK N   1      35.867  13.754  14.213  0.00  0.00    -0.337 N 
HETATM   11  C   UNK N   1      35.375  12.684  14.836  0.00  0.00     0.065 A 
HETATM   12  C   UNK N   1      36.804  14.732  14.754  0.00  0.00     0.158 C 
HETATM   13  C   UNK N   1      34.594  11.986  13.962  0.00  0.00     0.060 A 
HETATM   14  C   UNK N   1      35.631  12.242  16.125  0.00  0.00     0.068 A 
HETATM   15  N   UNK N   1      34.587  12.597  12.765  0.00  0.00    -0.342 N 
HETATM   16  C   UNK N   1      33.994  10.785  14.310  0.00  0.00     0.035 A 
ATOM     17  HN  UNK N   1      34.096  12.316  11.917  1.00  0.00     0.167 HD
HETATM   18  C   UNK N   1      34.234  10.298  15.609  0.00  0.00     0.039 A 
HETATM   19  C   UNK N   1      35.059  11.021  16.520  0.00  0.00     0.070 A 
BRANCH  19  20
HETATM   20  O   UNK N   1      35.331  10.549  17.757  0.00  0.00    -0.356 OA
HETATM   21  C   UNK N   1      35.318  11.339  18.882  0.00  0.00     0.210 C 
ENDBRANCH  19  20
ENDBRANCH   8   9
ENDBRANCH   7   8
ENDBRANCH   2   7
BRANCH   1  22
HETATM   22  C   UNK N   1      32.425  17.022   6.871  0.00  0.00     0.063 C 
BRANCH  22  23
HETATM   23  C   UNK N   1      31.958  16.008   5.786  0.00  0.00     0.153 A 
HETATM   24  S   UNK N   1      33.453  15.419   4.896  0.00  0.00    -0.054 SA
HETATM   25  C   UNK N   1      32.813  16.169   3.399  0.00  0.00     0.287 A 
HETATM   26  O   UNK N   1      33.447  16.199   2.359  0.00  0.00    -0.260 OA
HETATM   27  N   UNK N   1      31.582  16.669   3.474  0.00  0.00    -0.287 N 
HETATM   28  C   UNK N   1      31.057  16.586   4.698  0.00  0.00     0.239 A 
HETATM   29  H   UNK N   1      31.106  17.060   2.706  0.00  0.00     0.172 HD
HETATM   30  O   UNK N   1      29.915  16.962   4.911  0.00  0.00    -0.272 OA
ENDBRANCH  22  23
ENDBRANCH   1  22
TORSDOF 6
ENDMDL
