MODEL 1
REMARK VINA RESULT:      -5.2      0.000      0.000
REMARK  4 active torsions:
REMARK  status: ('A' for Active; 'I' for Inactive)
REMARK    1  A    between atoms: C_3  and  C_7 
REMARK    2  A    between atoms: C_7  and  N_8 
REMARK       I    between atoms: N_8  and  C_9 
REMARK    3  A    between atoms: C_9  and  C_10 
REMARK    4  A    between atoms: C_10  and  C_11 
ROOT
HETATM    1  C   UNK N   1      21.376  12.868   8.505  0.00  0.00     0.161 C 
ENDROOT
BRANCH   1   2
HETATM    2  C   UNK N   1      22.292  12.550   9.636  0.00  0.00    -0.041 A 
HETATM    3  C   UNK N   1      23.682  12.592   9.468  0.00  0.00     0.009 A 
HETATM    4  C   UNK N   1      24.526  12.298  10.544  0.00  0.00     0.001 A 
HETATM    5  C   UNK N   1      23.981  11.974  11.790  0.00  0.00     0.000 A 
HETATM    6  C   UNK N   1      22.594  11.940  11.961  0.00  0.00     0.001 A 
HETATM    7  C   UNK N   1      21.751  12.226  10.884  0.00  0.00     0.009 A 
ENDBRANCH   1   2
BRANCH   1   8
HETATM    8  N   UNK N   1      21.300  14.293   8.302  0.00  0.00    -0.357 N 
HETATM    9  C   UNK N   1      20.297  15.033   8.830  0.00  0.00     0.218 C 
HETATM   10  O   UNK N   1      19.380  14.501   9.435  0.00  0.00    -0.274 OA
HETATM   11  H   UNK N   1      21.995  14.739   7.767  0.00  0.00     0.162 HD
BRANCH   9  12
HETATM   12  C   UNK N   1      20.333  16.516   8.683  0.00  0.00     0.117 C 
BRANCH  12  13
HETATM   13  C   UNK N   1      18.978  17.091   9.049  0.00  0.00     0.124 C 
HETATM   14 Cl   UNK N   1      19.196  18.681   9.813  0.00  0.00    -0.130 Cl
ENDBRANCH  12  13
ENDBRANCH   9  12
ENDBRANCH   1   8
TORSDOF 4
ENDMDL
MODEL 2
REMARK VINA RESULT:      -5.2     13.929     15.379
REMARK  4 active torsions:
REMARK  status: ('A' for Active; 'I' for Inactive)
REMARK    1  A    between atoms: C_3  and  C_7 
REMARK    2  A    between atoms: C_7  and  N_8 
REMARK       I    between atoms: N_8  and  C_9 
REMARK    3  A    between atoms: C_9  and  C_10 
REMARK    4  A    between atoms: C_10  and  C_11 
ROOT
HETATM    1  C   UNK N   1      36.697  13.178  14.118  0.00  0.00     0.161 C 
ENDROOT
BRANCH   1   2
HETATM    2  C   UNK N   1      36.455  13.804  15.448  0.00  0.00    -0.041 A 
HETATM    3  C   UNK N   1      35.522  13.260  16.339  0.00  0.00     0.009 A 
HETATM    4  C   UNK N   1      35.313  13.858  17.586  0.00  0.00     0.001 A 
HETATM    5  C   UNK N   1      36.048  14.992  17.947  0.00  0.00     0.000 A 
HETATM    6  C   UNK N   1      36.986  15.530  17.062  0.00  0.00     0.001 A 
HETATM    7  C   UNK N   1      37.187  14.938  15.812  0.00  0.00     0.009 A 
ENDBRANCH   1   2
BRANCH   1   8
HETATM    8  N   UNK N   1      36.812  14.190  13.097  0.00  0.00    -0.357 N 
HETATM    9  C   UNK N   1      35.754  14.557  12.338  0.00  0.00     0.218 C 
HETATM   10  O   UNK N   1      34.680  13.985  12.445  0.00  0.00    -0.274 OA
HETATM   11  H   UNK N   1      37.683  14.625  12.949  0.00  0.00     0.162 HD
BRANCH   9  12
HETATM   12  C   UNK N   1      35.904  15.687  11.378  0.00  0.00     0.117 C 
BRANCH  12  13
HETATM   13  C   UNK N   1      34.821  15.596  10.320  0.00  0.00     0.124 C 
HETATM   14 Cl   UNK N   1      34.727  17.135   9.436  0.00  0.00    -0.130 Cl
ENDBRANCH  12  13
ENDBRANCH   9  12
ENDBRANCH   1   8
TORSDOF 4
ENDMDL
MODEL 3
REMARK VINA RESULT:      -5.1     17.518     19.155
REMARK  4 active torsions:
REMARK  status: ('A' for Active; 'I' for Inactive)
REMARK    1  A    between atoms: C_3  and  C_7 
REMARK    2  A    between atoms: C_7  and  N_8 
REMARK       I    between atoms: N_8  and  C_9 
REMARK    3  A    between atoms: C_9  and  C_10 
REMARK    4  A    between atoms: C_10  and  C_11 
ROOT
HETATM    1  C   UNK N   1      26.666  24.039  -3.871  0.00  0.00     0.161 C 
ENDROOT
BRANCH   1   2
HETATM    2  C   UNK N   1      26.178  25.406  -4.207  0.00  0.00    -0.041 A 
HETATM    3  C   UNK N   1      25.473  25.645  -5.395  0.00  0.00     0.009 A 
HETATM    4  C   UNK N   1      25.017  26.934  -5.689  0.00  0.00     0.001 A 
HETATM    5  C   UNK N   1      25.253  27.980  -4.792  0.00  0.00     0.000 A 
HETATM    6  C   UNK N   1      25.947  27.740  -3.603  0.00  0.00     0.001 A 
HETATM    7  C   UNK N   1      26.411  26.454  -3.312  0.00  0.00     0.009 A 
ENDBRANCH   1   2
BRANCH   1   8
HETATM    8  N   UNK N   1      28.102  24.033  -3.742  0.00  0.00    -0.357 N 
HETATM    9  C   UNK N   1      28.716  23.491  -2.665  0.00  0.00     0.218 C 
HETATM   10  O   UNK N   1      28.065  23.055  -1.728  0.00  0.00    -0.274 OA
HETATM   11  H   UNK N   1      28.649  24.433  -4.456  0.00  0.00     0.162 HD
BRANCH   9  12
HETATM   12  C   UNK N   1      30.204  23.411  -2.640  0.00  0.00     0.117 C 
BRANCH  12  13
HETATM   13  C   UNK N   1      30.691  22.699  -3.888  0.00  0.00     0.124 C 
HETATM   14 Cl   UNK N   1      30.455  20.948  -3.700  0.00  0.00    -0.130 Cl
ENDBRANCH  12  13
ENDBRANCH   9  12
ENDBRANCH   1   8
TORSDOF 4
ENDMDL
MODEL 4
REMARK VINA RESULT:      -5.0      1.594      1.701
REMARK  4 active torsions:
REMARK  status: ('A' for Active; 'I' for Inactive)
REMARK    1  A    between atoms: C_3  and  C_7 
REMARK    2  A    between atoms: C_7  and  N_8 
REMARK       I    between atoms: N_8  and  C_9 
REMARK    3  A    between atoms: C_9  and  C_10 
REMARK    4  A    between atoms: C_10  and  C_11 
ROOT
HETATM    1  C   UNK N   1      20.729  13.539   9.816  0.00  0.00     0.161 C 
ENDROOT
BRANCH   1   2
HETATM    2  C   UNK N   1      22.061  13.026  10.240  0.00  0.00    -0.041 A 
HETATM    3  C   UNK N   1      23.209  13.295   9.482  0.00  0.00     0.009 A 
HETATM    4  C   UNK N   1      24.452  12.810   9.899  0.00  0.00     0.001 A 
HETATM    5  C   UNK N   1      24.551  12.068  11.081  0.00  0.00     0.000 A 
HETATM    6  C   UNK N   1      23.409  11.808  11.842  0.00  0.00     0.001 A 
HETATM    7  C   UNK N   1      22.164  12.284  11.420  0.00  0.00     0.009 A 
ENDBRANCH   1   2
BRANCH   1   8
HETATM    8  N   UNK N   1      20.859  14.836   9.201  0.00  0.00    -0.357 N 
HETATM    9  C   UNK N   1      19.801  15.670   9.071  0.00  0.00     0.218 C 
HETATM   10  O   UNK N   1      18.681  15.316   9.405  0.00  0.00    -0.274 OA
HETATM   11  H   UNK N   1      21.740  15.123   8.868  0.00  0.00     0.162 HD
BRANCH   9  12
HETATM   12  C   UNK N   1      20.019  17.042   8.532  0.00  0.00     0.117 C 
BRANCH  12  13
HETATM   13  C   UNK N   1      20.638  16.949   7.150  0.00  0.00     0.124 C 
HETATM   14 Cl   UNK N   1      19.546  16.051   6.072  0.00  0.00    -0.130 Cl
ENDBRANCH  12  13
ENDBRANCH   9  12
ENDBRANCH   1   8
TORSDOF 4
ENDMDL
MODEL 5
REMARK VINA RESULT:      -4.7     16.439     17.422
REMARK  4 active torsions:
REMARK  status: ('A' for Active; 'I' for Inactive)
REMARK    1  A    between atoms: C_3  and  C_7 
REMARK    2  A    between atoms: C_7  and  N_8 
REMARK       I    between atoms: N_8  and  C_9 
REMARK    3  A    between atoms: C_9  and  C_10 
REMARK    4  A    between atoms: C_10  and  C_11 
ROOT
HETATM    1  C   UNK N   1      35.430  10.446  20.067  0.00  0.00     0.161 C 
ENDROOT
BRANCH   1   2
HETATM    2  C   UNK N   1      35.387  11.468  18.984  0.00  0.00    -0.041 A 
HETATM    3  C   UNK N   1      35.208  12.825  19.285  0.00  0.00     0.009 A 
HETATM    4  C   UNK N   1      35.177  13.771  18.255  0.00  0.00     0.001 A 
HETATM    5  C   UNK N   1      35.337  13.363  16.927  0.00  0.00     0.000 A 
HETATM    6  C   UNK N   1      35.524  12.011  16.628  0.00  0.00     0.001 A 
HETATM    7  C   UNK N   1      35.546  11.064  17.656  0.00  0.00     0.009 A 
ENDBRANCH   1   2
BRANCH   1   8
HETATM    8  N   UNK N   1      34.634  10.868  21.193  0.00  0.00    -0.357 N 
HETATM    9  C   UNK N   1      33.527  10.190  21.574  0.00  0.00     0.218 C 
HETATM   10  O   UNK N   1      33.123   9.237  20.925  0.00  0.00    -0.274 OA
HETATM   11  H   UNK N   1      34.904  11.669  21.697  0.00  0.00     0.162 HD
BRANCH   9  12
HETATM   12  C   UNK N   1      32.810  10.606  22.813  0.00  0.00     0.117 C 
BRANCH  12  13
HETATM   13  C   UNK N   1      32.271   9.376  23.519  0.00  0.00     0.124 C 
HETATM   14 Cl   UNK N   1      31.463   9.865  25.024  0.00  0.00    -0.130 Cl
ENDBRANCH  12  13
ENDBRANCH   9  12
ENDBRANCH   1   8
TORSDOF 4
ENDMDL
MODEL 6
REMARK VINA RESULT:      -4.7     14.826     15.588
REMARK  4 active torsions:
REMARK  status: ('A' for Active; 'I' for Inactive)
REMARK    1  A    between atoms: C_3  and  C_7 
REMARK    2  A    between atoms: C_7  and  N_8 
REMARK       I    between atoms: N_8  and  C_9 
REMARK    3  A    between atoms: C_9  and  C_10 
REMARK    4  A    between atoms: C_10  and  C_11 
ROOT
HETATM    1  C   UNK N   1      35.255  11.365  15.504  0.00  0.00     0.161 C 
ENDROOT
BRANCH   1   2
HETATM    2  C   UNK N   1      35.286  11.833  16.918  0.00  0.00    -0.041 A 
HETATM    3  C   UNK N   1      35.094  13.185  17.232  0.00  0.00     0.009 A 
HETATM    4  C   UNK N   1      35.120  13.603  18.566  0.00  0.00     0.001 A 
HETATM    5  C   UNK N   1      35.326  12.669  19.587  0.00  0.00     0.000 A 
HETATM    6  C   UNK N   1      35.509  11.319  19.275  0.00  0.00     0.001 A 
HETATM    7  C   UNK N   1      35.491  10.902  17.941  0.00  0.00     0.009 A 
ENDBRANCH   1   2
BRANCH   1   8
HETATM    8  N   UNK N   1      36.128  12.171  14.686  0.00  0.00    -0.357 N 
HETATM    9  C   UNK N   1      35.655  12.907  13.654  0.00  0.00     0.218 C 
HETATM   10  O   UNK N   1      34.477  12.852  13.335  0.00  0.00    -0.274 OA
HETATM   11  H   UNK N   1      37.091  12.186  14.885  0.00  0.00     0.162 HD
BRANCH   9  12
HETATM   12  C   UNK N   1      36.585  13.808  12.917  0.00  0.00     0.117 C 
BRANCH  12  13
HETATM   13  C   UNK N   1      35.799  14.952  12.305  0.00  0.00     0.124 C 
HETATM   14 Cl   UNK N   1      36.468  15.340  10.705  0.00  0.00    -0.130 Cl
ENDBRANCH  12  13
ENDBRANCH   9  12
ENDBRANCH   1   8
TORSDOF 4
ENDMDL
MODEL 7
REMARK VINA RESULT:      -4.7      9.608     10.478
REMARK  4 active torsions:
REMARK  status: ('A' for Active; 'I' for Inactive)
REMARK    1  A    between atoms: C_3  and  C_7 
REMARK    2  A    between atoms: C_7  and  N_8 
REMARK       I    between atoms: N_8  and  C_9 
REMARK    3  A    between atoms: C_9  and  C_10 
REMARK    4  A    between atoms: C_10  and  C_11 
ROOT
HETATM    1  C   UNK N   1      29.926  16.731   6.044  0.00  0.00     0.161 C 
ENDROOT
BRANCH   1   2
HETATM    2  C   UNK N   1      31.287  17.128   6.501  0.00  0.00    -0.041 A 
HETATM    3  C   UNK N   1      31.520  17.491   7.834  0.00  0.00     0.009 A 
HETATM    4  C   UNK N   1      32.806  17.854   8.246  0.00  0.00     0.001 A 
HETATM    5  C   UNK N   1      33.862  17.841   7.328  0.00  0.00     0.000 A 
HETATM    6  C   UNK N   1      33.632  17.470   6.001  0.00  0.00     0.001 A 
HETATM    7  C   UNK N   1      32.345  17.116   5.587  0.00  0.00     0.009 A 
ENDBRANCH   1   2
BRANCH   1   8
HETATM    8  N   UNK N   1      29.366  17.746   5.186  0.00  0.00    -0.357 N 
HETATM    9  C   UNK N   1      28.413  18.601   5.625  0.00  0.00     0.218 C 
HETATM   10  O   UNK N   1      27.942  18.490   6.746  0.00  0.00    -0.274 OA
HETATM   11  H   UNK N   1      29.685  17.818   4.258  0.00  0.00     0.162 HD
BRANCH   9  12
HETATM   12  C   UNK N   1      27.955  19.701   4.730  0.00  0.00     0.117 C 
BRANCH  12  13
HETATM   13  C   UNK N   1      26.680  20.306   5.286  0.00  0.00     0.124 C 
HETATM   14 Cl   UNK N   1      27.070  21.794   6.175  0.00  0.00    -0.130 Cl
ENDBRANCH  12  13
ENDBRANCH   9  12
ENDBRANCH   1   8
TORSDOF 4
ENDMDL
MODEL 8
REMARK VINA RESULT:      -4.7     17.670     18.937
REMARK  4 active torsions:
REMARK  status: ('A' for Active; 'I' for Inactive)
REMARK    1  A    between atoms: C_3  and  C_7 
REMARK    2  A    between atoms: C_7  and  N_8 
REMARK       I    between atoms: N_8  and  C_9 
REMARK    3  A    between atoms: C_9  and  C_10 
REMARK    4  A    between atoms: C_10  and  C_11 
ROOT
HETATM    1  C   UNK N   1      26.646  24.284  -3.422  0.00  0.00     0.161 C 
ENDROOT
BRANCH   1   2
HETATM    2  C   UNK N   1      28.117  24.080  -3.313  0.00  0.00    -0.041 A 
HETATM    3  C   UNK N   1      29.006  24.815  -4.109  0.00  0.00     0.009 A 
HETATM    4  C   UNK N   1      30.384  24.614  -3.987  0.00  0.00     0.001 A 
HETATM    5  C   UNK N   1      30.876  23.688  -3.061  0.00  0.00     0.000 A 
HETATM    6  C   UNK N   1      29.990  22.961  -2.260  0.00  0.00     0.001 A 
HETATM    7  C   UNK N   1      28.612  23.155  -2.388  0.00  0.00     0.009 A 
ENDBRANCH   1   2
BRANCH   1   8
HETATM    8  N   UNK N   1      26.357  25.514  -4.118  0.00  0.00    -0.357 N 
HETATM    9  C   UNK N   1      25.562  25.540  -5.212  0.00  0.00     0.218 C 
HETATM   10  O   UNK N   1      25.123  24.506  -5.691  0.00  0.00    -0.274 OA
HETATM   11  H   UNK N   1      26.747  26.355  -3.787  0.00  0.00     0.162 HD
BRANCH   9  12
HETATM   12  C   UNK N   1      25.206  26.853  -5.821  0.00  0.00     0.117 C 
BRANCH  12  13
HETATM   13  C   UNK N   1      26.105  27.934  -5.251  0.00  0.00     0.124 C 
HETATM   14 Cl   UNK N   1      27.338  28.373  -6.454  0.00  0.00    -0.130 Cl
ENDBRANCH  12  13
ENDBRANCH   9  12
ENDBRANCH   1   8
TORSDOF 4
ENDMDL
MODEL 9
REMARK VINA RESULT:      -4.6     10.603     12.096
REMARK  4 active torsions:
REMARK  status: ('A' for Active; 'I' for Inactive)
REMARK    1  A    between atoms: C_3  and  C_7 
REMARK    2  A    between atoms: C_7  and  N_8 
REMARK       I    between atoms: N_8  and  C_9 
REMARK    3  A    between atoms: C_9  and  C_10 
REMARK    4  A    between atoms: C_10  and  C_11 
ROOT
HETATM    1  C   UNK N   1      31.681  17.154   6.644  0.00  0.00     0.161 C 
ENDROOT
BRANCH   1   2
HETATM    2  C   UNK N   1      30.538  17.493   7.537  0.00  0.00    -0.041 A 
HETATM    3  C   UNK N   1      29.229  17.122   7.201  0.00  0.00     0.009 A 
HETATM    4  C   UNK N   1      28.170  17.443   8.056  0.00  0.00     0.001 A 
HETATM    5  C   UNK N   1      28.420  18.123   9.253  0.00  0.00     0.000 A 
HETATM    6  C   UNK N   1      29.726  18.486   9.592  0.00  0.00     0.001 A 
HETATM    7  C   UNK N   1      30.784  18.173   8.733  0.00  0.00     0.009 A 
ENDBRANCH   1   2
BRANCH   1   8
HETATM    8  N   UNK N   1      32.676  16.398   7.362  0.00  0.00    -0.357 N 
HETATM    9  C   UNK N   1      33.972  16.788   7.402  0.00  0.00     0.218 C 
HETATM   10  O   UNK N   1      34.353  17.758   6.765  0.00  0.00    -0.274 OA
HETATM   11  H   UNK N   1      32.407  15.579   7.836  0.00  0.00     0.162 HD
BRANCH   9  12
HETATM   12  C   UNK N   1      34.933  16.032   8.254  0.00  0.00     0.117 C 
BRANCH  12  13
HETATM   13  C   UNK N   1      34.369  15.903   9.657  0.00  0.00     0.124 C 
HETATM   14 Cl   UNK N   1      35.452  16.717  10.807  0.00  0.00    -0.130 Cl
ENDBRANCH  12  13
ENDBRANCH   9  12
ENDBRANCH   1   8
TORSDOF 4
ENDMDL
