REMARK  6 active torsions:
REMARK  status: ('A' for Active; 'I' for Inactive)
REMARK    1  A    between atoms: O_2  and  C_16 
REMARK    2  A    between atoms: O_2  and  C_23 
REMARK    3  A    between atoms: O_3  and  C_15 
REMARK    4  A    between atoms: C_12  and  C_16 
REMARK    5  A    between atoms: C_17  and  C_22 
REMARK    6  A    between atoms: C_20  and  C_22 
ROOT
HETATM    1  C   UNK N   1       2.346   2.437   0.149  0.00  0.00    -0.056 A 
HETATM    2  C   UNK N   1       0.714   0.196   0.347  0.00  0.00     0.069 A 
HETATM    3  C   UNK N   1       1.561   2.253   1.290  0.00  0.00     0.010 A 
HETATM    4  C   UNK N   1       2.260   1.546  -0.924  0.00  0.00     0.010 A 
HETATM    5  C   UNK N   1       0.738   1.135   1.382  0.00  0.00     0.037 A 
HETATM    6  C   UNK N   1       1.431   0.433  -0.834  0.00  0.00     0.037 A 
ENDROOT
BRANCH   2   7
HETATM    7  O   UNK N   1       0.034  -0.947   0.536  0.00  0.00    -0.344 OA
BRANCH   7   8
HETATM    8  C   UNK N   1      -0.231  -1.868  -0.446  0.00  0.00     0.252 C 
BRANCH   8   9
HETATM    9  C   UNK N   1      -1.700  -1.902  -0.498  0.00  0.00     0.108 A 
HETATM   10  N   UNK N   1      -2.448  -0.860  -0.924  0.00  0.00    -0.337 N 
HETATM   11  C   UNK N   1      -3.697  -1.167  -0.578  0.00  0.00     0.065 A 
HETATM   12  C   UNK N   1      -1.985   0.380  -1.536  0.00  0.00     0.158 C 
HETATM   13  C   UNK N   1      -3.698  -2.387   0.032  0.00  0.00     0.060 A 
HETATM   14  C   UNK N   1      -4.843  -0.397  -0.707  0.00  0.00     0.068 A 
HETATM   15  N   UNK N   1      -2.445  -2.870   0.093  0.00  0.00    -0.342 N 
HETATM   16  C   UNK N   1      -4.853  -2.945   0.559  0.00  0.00     0.035 A 
ATOM     17  HN  UNK N   1      -2.129  -3.755   0.489  1.00  0.00     0.167 HD
HETATM   18  C   UNK N   1      -6.038  -2.192   0.454  0.00  0.00     0.039 A 
HETATM   19  C   UNK N   1      -6.036  -0.911  -0.173  0.00  0.00     0.070 A 
BRANCH  19  20
HETATM   20  O   UNK N   1      -7.156  -0.158  -0.248  0.00  0.00    -0.356 OA
HETATM   21  C   UNK N   1      -8.350  -0.529   0.324  0.00  0.00     0.210 C 
ENDBRANCH  19  20
ENDBRANCH   8   9
ENDBRANCH   7   8
ENDBRANCH   2   7
BRANCH   1  22
HETATM   22  C   UNK N   1       3.543   3.306   0.228  0.00  0.00     0.063 C 
BRANCH  22  23
HETATM   23  C   UNK N   1       4.640   2.644   1.112  0.00  0.00     0.153 A 
HETATM   24  S   UNK N   1       6.273   3.093   0.400  0.00  0.00    -0.054 SA
HETATM   25  C   UNK N   1       6.561   1.358   0.057  0.00  0.00     0.287 A 
HETATM   26  O   UNK N   1       7.542   0.964  -0.549  0.00  0.00    -0.260 OA
HETATM   27  N   UNK N   1       5.653   0.508   0.532  0.00  0.00    -0.287 N 
HETATM   28  C   UNK N   1       4.629   1.118   1.131  0.00  0.00     0.239 A 
HETATM   29  H   UNK N   1       5.729  -0.470   0.450  0.00  0.00     0.172 HD
HETATM   30  O   UNK N   1       3.740   0.466   1.657  0.00  0.00    -0.272 OA
ENDBRANCH  22  23
ENDBRANCH   1  22
TORSDOF 6
