REMARK  6 active torsions:
REMARK  status: ('A' for Active; 'I' for Inactive)
REMARK    1  A    between atoms: N_3  and  C_23 
REMARK    2  A    between atoms: C_6  and  N_7 
REMARK    3  A    between atoms: N_7  and  C_8 
REMARK       I    between atoms: N_7  and  C_16 
REMARK    4  A    between atoms: C_16  and  C_18 
REMARK    5  A    between atoms: C_23  and  C_24 
REMARK    6  A    between atoms: C_24  and  C_25 
ROOT
HETATM    1  N   UNK N   1      -0.651  -2.366  -0.021  0.00  0.00    -0.292 N 
HETATM    2  C   UNK N   1       0.490  -3.095  -0.301  0.00  0.00     0.283 C 
HETATM    3  O   UNK N   1       1.519  -2.530  -0.643  0.00  0.00    -0.265 OA
ENDROOT
BRANCH   1   4
HETATM    4  C   UNK N   1      -1.835  -3.077   0.436  0.00  0.00     0.098 C 
HETATM    5  C   UNK N   1      -3.035  -2.944  -0.511  0.00  0.00     0.056 C 
HETATM    6  C   UNK N   1      -4.365  -2.728   0.232  0.00  0.00     0.274 C 
HETATM    7  N   UNK N   1      -4.494  -3.504   1.484  0.00  0.00     0.088 N 
HETATM    8  C   UNK N   1      -3.279  -3.710   2.282  0.00  0.00     0.274 C 
HETATM    9  C   UNK N   1      -2.165  -2.760   1.884  0.00  0.00     0.056 C 
BRANCH   7  10
HETATM   10  C   UNK N   1      -5.238  -4.755   1.341  0.00  0.00     0.277 C 
BRANCH  10  11
HETATM   11  C   UNK N   1      -4.872  -5.565   0.097  0.00  0.00     0.068 C 
BRANCH  11  12
HETATM   12  C   UNK N   1      -6.084  -6.314  -0.345  0.00  0.00    -0.057 A 
HETATM   13  C   UNK N   1      -6.075  -7.712  -0.379  0.00  0.00     0.007 A 
HETATM   14  C   UNK N   1      -7.227  -8.410  -0.757  0.00  0.00     0.001 A 
HETATM   15  C   UNK N   1      -8.390  -7.711  -1.097  0.00  0.00     0.000 A 
HETATM   16  C   UNK N   1      -8.399  -6.313  -1.071  0.00  0.00     0.001 A 
HETATM   17  C   UNK N   1      -7.248  -5.616  -0.698  0.00  0.00     0.007 A 
ENDBRANCH  11  12
ENDBRANCH  10  11
ENDBRANCH   7  10
ENDBRANCH   1   4
BRANCH   1  18
HETATM   18  C   UNK N   1      -0.706  -0.921  -0.123  0.00  0.00     0.126 A 
HETATM   19  N   UNK N   1      -1.876  -0.266   0.134  0.00  0.00    -0.350 N 
HETATM   20  C   UNK N   1      -1.973   1.086   0.051  0.00  0.00     0.106 A 
ATOM     21  HN  UNK N   1      -2.699  -0.807   0.396  1.00  0.00     0.166 HD
HETATM   22  C   UNK N   1      -0.853   1.835  -0.300  0.00  0.00     0.104 A 
HETATM   23  N   UNK N   1       0.320   1.202  -0.557  0.00  0.00    -0.371 N 
HETATM   24  C   UNK N   1       0.416  -0.151  -0.478  0.00  0.00     0.136 A 
ATOM     25  HN  UNK N   1       1.141   1.750  -0.812  1.00  0.00     0.164 HD
ENDBRANCH   1  18
BRANCH   2  26
HETATM   26  C   UNK N   1       0.530  -4.584  -0.198  0.00  0.00     0.143 A 
HETATM   27  C   UNK N   1       1.653  -5.358  -0.403  0.00  0.00     0.045 A 
HETATM   28  C   UNK N   1       1.242  -6.665  -0.217  0.00  0.00     0.027 A 
HETATM   29  C   UNK N   1      -0.107  -6.610   0.085  0.00  0.00     0.143 A 
HETATM   30  O   UNK N   1      -0.491  -5.356   0.088  0.00  0.00    -0.317 OA
ENDBRANCH   2  26
TORSDOF 6
