REMARK  5 active torsions:
REMARK  status: ('A' for Active; 'I' for Inactive)
REMARK    1  A    between atoms: N_2  and  C_14 
REMARK    2  A    between atoms: C_3  and  C_7 
REMARK    3  A    between atoms: C_3  and  C_8 
REMARK    4  A    between atoms: C_7  and  C_9 
REMARK    5  A    between atoms: C_9  and  C_14 
ROOT
HETATM    1  S   UNK N   1       1.623  -1.951   0.778  0.00  0.00    -0.135 SA
HETATM    2  C   UNK N   1       0.589  -0.446   0.559  0.00  0.00     0.064 C 
HETATM    3  C   UNK N   1       0.328  -3.120   0.235  0.00  0.00     0.030 C 
HETATM    4  C   UNK N   1      -0.668  -0.927  -0.137  0.00  0.00    -0.027 A 
HETATM    5  C   UNK N   1      -0.796  -2.299  -0.277  0.00  0.00    -0.032 A 
HETATM    6  C   UNK N   1      -0.126  -3.962   1.414  0.00  0.00     0.032 C 
HETATM    7  C   UNK N   1       0.879  -4.007  -0.867  0.00  0.00     0.032 C 
HETATM    8  C   UNK N   1      -1.700  -0.083  -0.572  0.00  0.00     0.010 A 
HETATM    9  C   UNK N   1      -1.959  -2.852  -0.839  0.00  0.00     0.009 A 
HETATM   10  C   UNK N   1      -2.854  -0.624  -1.148  0.00  0.00     0.001 A 
HETATM   11  C   UNK N   1      -2.985  -2.010  -1.277  0.00  0.00     0.001 A 
ENDROOT
BRANCH   2  12
HETATM   12  C   UNK N   1       0.269   0.074   1.979  0.00  0.00     0.032 C 
BRANCH  12  13
HETATM   13  C   UNK N   1      -0.914   1.030   2.136  0.00  0.00     0.032 C 
BRANCH  13  14
HETATM   14  C   UNK N   1      -0.835   2.249   1.229  0.00  0.00     0.269 C 
BRANCH  14  15
HETATM   15  N   UNK N   1      -2.159   2.834   1.063  0.00  0.00     0.079 N 
HETATM   16  C   UNK N   1      -2.103   3.677  -0.116  0.00  0.00     0.306 C 
HETATM   17  H   UNK N   1      -2.851   2.077   0.852  0.00  0.00     0.315 HD
ENDBRANCH  14  15
ENDBRANCH  13  14
ENDBRANCH  12  13
ENDBRANCH   2  12
BRANCH   2  18
HETATM   18  C   UNK N   1       1.404   0.595  -0.203  0.00  0.00    -0.035 A 
HETATM   19  C   UNK N   1       0.976   1.140  -1.426  0.00  0.00     0.009 A 
HETATM   20  C   UNK N   1       1.738   2.122  -2.070  0.00  0.00     0.001 A 
HETATM   21  C   UNK N   1       2.935   2.567  -1.503  0.00  0.00     0.000 A 
HETATM   22  C   UNK N   1       3.376   2.028  -0.294  0.00  0.00     0.001 A 
HETATM   23  C   UNK N   1       2.615   1.052   0.353  0.00  0.00     0.009 A 
ENDBRANCH   2  18
TORSDOF 5
