MODEL 1
REMARK VINA RESULT:      -5.7      0.000      0.000
REMARK  4 active torsions:
REMARK  status: ('A' for Active; 'I' for Inactive)
REMARK    1  A    between atoms: N_2  and  C_14 
REMARK    2  A    between atoms: N_3  and  C_13 
REMARK    3  A    between atoms: C_4  and  C_7 
REMARK    4  A    between atoms: C_7  and  C_13 
ROOT
HETATM    1  S   UNK N   1      19.633  16.054   6.766  0.00  0.00    -0.153 SA
HETATM    2  N   UNK N   1      23.273  14.218   7.436  0.00  0.00    -0.348 N 
HETATM    3  C   UNK N   1      21.404  15.651   6.408  0.00  0.00     0.049 C 
HETATM    4  C   UNK N   1      22.033  14.785   7.492  0.00  0.00     0.037 A 
HETATM    5  C   UNK N   1      21.414  14.435   8.692  0.00  0.00    -0.021 A 
HETATM    6  C   UNK N   1      20.072  14.884   9.161  0.00  0.00     0.051 C 
HETATM    7  C   UNK N   1      22.285  13.608   9.355  0.00  0.00    -0.001 A 
HETATM    8  C   UNK N   1      23.407  13.488   8.573  0.00  0.00     0.045 A 
HETATM    9  C   UNK N   1      19.788  16.247   8.564  0.00  0.00     0.080 C 
HETATM   10  C   UNK N   1      21.396  14.826   5.130  0.00  0.00     0.034 C 
HETATM   11  C   UNK N   1      22.154  12.953  10.577  0.00  0.00     0.014 A 
HETATM   12  C   UNK N   1      24.478  12.684   8.975  0.00  0.00     0.030 A 
HETATM   13  C   UNK N   1      23.216  12.136  10.998  0.00  0.00     0.001 A 
HETATM   14  C   UNK N   1      24.372  12.000  10.200  0.00  0.00     0.002 A 
ENDROOT
BRANCH   3  15
HETATM   15  C   UNK N   1      22.239  16.927   6.195  0.00  0.00     0.056 C 
BRANCH  15  16
HETATM   16  C   UNK N   1      21.443  18.218   5.940  0.00  0.00     0.273 C 
BRANCH  16  17
HETATM   17  N   UNK N   1      21.679  18.765   4.610  0.00  0.00     0.080 N 
HETATM   18  C   UNK N   1      22.958  18.244   4.161  0.00  0.00     0.309 C 
HETATM   19  C   UNK N   1      20.666  18.229   3.721  0.00  0.00     0.309 C 
ENDBRANCH  16  17
ENDBRANCH  15  16
ENDBRANCH   3  15
BRANCH   2  20
HETATM   20  C   UNK N   1      24.218  14.392   6.321  0.00  0.00     0.124 C 
HETATM   21  C   UNK N   1      25.441  15.230   6.656  0.00  0.00     0.027 C 
ENDBRANCH   2  20
TORSDOF 4
ENDMDL
MODEL 2
REMARK VINA RESULT:      -5.6      6.373      8.683
REMARK  4 active torsions:
REMARK  status: ('A' for Active; 'I' for Inactive)
REMARK    1  A    between atoms: N_2  and  C_14 
REMARK    2  A    between atoms: N_3  and  C_13 
REMARK    3  A    between atoms: C_4  and  C_7 
REMARK    4  A    between atoms: C_7  and  C_13 
ROOT
HETATM    1  S   UNK N   1      27.341  16.661   6.779  0.00  0.00    -0.153 SA
HETATM    2  N   UNK N   1      31.219  16.629   5.354  0.00  0.00    -0.348 N 
HETATM    3  C   UNK N   1      28.658  16.462   5.493  0.00  0.00     0.049 C 
HETATM    4  C   UNK N   1      30.043  16.811   6.023  0.00  0.00     0.037 A 
HETATM    5  C   UNK N   1      30.303  17.349   7.283  0.00  0.00    -0.021 A 
HETATM    6  C   UNK N   1      29.290  17.739   8.307  0.00  0.00     0.051 C 
HETATM    7  C   UNK N   1      31.666  17.458   7.390  0.00  0.00    -0.001 A 
HETATM    8  C   UNK N   1      32.203  17.012   6.207  0.00  0.00     0.045 A 
HETATM    9  C   UNK N   1      28.016  18.137   7.591  0.00  0.00     0.080 C 
HETATM   10  C   UNK N   1      28.677  14.984   5.138  0.00  0.00     0.034 C 
HETATM   11  C   UNK N   1      32.457  17.904   8.446  0.00  0.00     0.014 A 
HETATM   12  C   UNK N   1      33.588  16.981   6.015  0.00  0.00     0.030 A 
HETATM   13  C   UNK N   1      33.851  17.877   8.277  0.00  0.00     0.001 A 
HETATM   14  C   UNK N   1      34.414  17.415   7.068  0.00  0.00     0.002 A 
ENDROOT
BRANCH   3  15
HETATM   15  C   UNK N   1      28.345  17.293   4.236  0.00  0.00     0.056 C 
BRANCH  15  16
HETATM   16  C   UNK N   1      26.856  17.543   3.947  0.00  0.00     0.273 C 
BRANCH  16  17
HETATM   17  N   UNK N   1      26.554  18.956   3.758  0.00  0.00     0.080 N 
HETATM   18  C   UNK N   1      25.417  19.262   4.607  0.00  0.00     0.309 C 
HETATM   19  C   UNK N   1      27.678  19.723   4.262  0.00  0.00     0.309 C 
ENDBRANCH  16  17
ENDBRANCH  15  16
ENDBRANCH   3  15
BRANCH   2  20
HETATM   20  C   UNK N   1      31.323  16.097   3.985  0.00  0.00     0.124 C 
HETATM   21  C   UNK N   1      31.895  17.075   2.972  0.00  0.00     0.027 C 
ENDBRANCH   2  20
TORSDOF 4
ENDMDL
MODEL 3
REMARK VINA RESULT:      -5.6      6.216      8.717
REMARK  4 active torsions:
REMARK  status: ('A' for Active; 'I' for Inactive)
REMARK    1  A    between atoms: N_2  and  C_14 
REMARK    2  A    between atoms: N_3  and  C_13 
REMARK    3  A    between atoms: C_4  and  C_7 
REMARK    4  A    between atoms: C_7  and  C_13 
ROOT
HETATM    1  S   UNK N   1      28.088  17.467   8.930  0.00  0.00    -0.153 SA
HETATM    2  N   UNK N   1      29.593  17.326   5.085  0.00  0.00    -0.348 N 
HETATM    3  C   UNK N   1      27.990  17.536   7.082  0.00  0.00     0.049 C 
HETATM    4  C   UNK N   1      29.361  17.441   6.425  0.00  0.00     0.037 A 
HETATM    5  C   UNK N   1      30.575  17.441   7.110  0.00  0.00    -0.021 A 
HETATM    6  C   UNK N   1      30.764  17.593   8.581  0.00  0.00     0.051 C 
HETATM    7  C   UNK N   1      31.558  17.282   6.165  0.00  0.00    -0.001 A 
HETATM    8  C   UNK N   1      30.938  17.213   4.942  0.00  0.00     0.045 A 
HETATM    9  C   UNK N   1      29.619  18.422   9.126  0.00  0.00     0.080 C 
HETATM   10  C   UNK N   1      27.208  16.302   6.658  0.00  0.00     0.034 C 
HETATM   11  C   UNK N   1      32.940  17.184   6.308  0.00  0.00     0.014 A 
HETATM   12  C   UNK N   1      31.681  17.030   3.772  0.00  0.00     0.030 A 
HETATM   13  C   UNK N   1      33.706  16.995   5.145  0.00  0.00     0.001 A 
HETATM   14  C   UNK N   1      33.079  16.916   3.883  0.00  0.00     0.002 A 
ENDROOT
BRANCH   3  15
HETATM   15  C   UNK N   1      27.257  18.802   6.606  0.00  0.00     0.056 C 
BRANCH  15  16
HETATM   16  C   UNK N   1      28.081  20.100   6.608  0.00  0.00     0.273 C 
BRANCH  16  17
HETATM   17  N   UNK N   1      27.423  21.181   5.887  0.00  0.00     0.080 N 
HETATM   18  C   UNK N   1      26.833  20.597   4.696  0.00  0.00     0.309 C 
HETATM   19  C   UNK N   1      26.328  21.663   6.709  0.00  0.00     0.309 C 
ENDBRANCH  16  17
ENDBRANCH  15  16
ENDBRANCH   3  15
BRANCH   2  20
HETATM   20  C   UNK N   1      28.539  17.314   4.056  0.00  0.00     0.124 C 
HETATM   21  C   UNK N   1      28.412  16.002   3.300  0.00  0.00     0.027 C 
ENDBRANCH   2  20
TORSDOF 4
ENDMDL
MODEL 4
REMARK VINA RESULT:      -5.6     16.807     19.655
REMARK  4 active torsions:
REMARK  status: ('A' for Active; 'I' for Inactive)
REMARK    1  A    between atoms: N_2  and  C_14 
REMARK    2  A    between atoms: N_3  and  C_13 
REMARK    3  A    between atoms: C_4  and  C_7 
REMARK    4  A    between atoms: C_7  and  C_13 
ROOT
HETATM    1  S   UNK N   1      28.214  26.835  -9.798  0.00  0.00    -0.153 SA
HETATM    2  N   UNK N   1      26.337  27.009  -6.121  0.00  0.00    -0.348 N 
HETATM    3  C   UNK N   1      27.180  26.187  -8.405  0.00  0.00     0.049 C 
HETATM    4  C   UNK N   1      27.126  27.149  -7.226  0.00  0.00     0.037 A 
HETATM    5  C   UNK N   1      27.868  28.325  -7.122  0.00  0.00    -0.021 A 
HETATM    6  C   UNK N   1      28.883  28.823  -8.096  0.00  0.00     0.051 C 
HETATM    7  C   UNK N   1      27.489  28.926  -5.948  0.00  0.00    -0.001 A 
HETATM    8  C   UNK N   1      26.556  28.109  -5.357  0.00  0.00     0.045 A 
HETATM    9  C   UNK N   1      29.501  27.629  -8.794  0.00  0.00     0.080 C 
HETATM   10  C   UNK N   1      25.765  26.075  -8.952  0.00  0.00     0.034 C 
HETATM   11  C   UNK N   1      27.894  30.130  -5.378  0.00  0.00     0.014 A 
HETATM   12  C   UNK N   1      25.960  28.465  -4.143  0.00  0.00     0.030 A 
HETATM   13  C   UNK N   1      27.305  30.509  -4.161  0.00  0.00     0.001 A 
HETATM   14  C   UNK N   1      26.340  29.681  -3.547  0.00  0.00     0.002 A 
ENDROOT
BRANCH   3  15
HETATM   15  C   UNK N   1      27.667  24.802  -7.941  0.00  0.00     0.056 C 
BRANCH  15  16
HETATM   16  C   UNK N   1      26.871  23.597  -8.467  0.00  0.00     0.273 C 
BRANCH  16  17
HETATM   17  N   UNK N   1      26.791  22.514  -7.495  0.00  0.00     0.080 N 
HETATM   18  C   UNK N   1      25.385  22.187  -7.341  0.00  0.00     0.309 C 
HETATM   19  C   UNK N   1      27.436  21.349  -8.073  0.00  0.00     0.309 C 
ENDBRANCH  16  17
ENDBRANCH  15  16
ENDBRANCH   3  15
BRANCH   2  20
HETATM   20  C   UNK N   1      25.435  25.870  -5.883  0.00  0.00     0.124 C 
HETATM   21  C   UNK N   1      25.900  24.915  -4.796  0.00  0.00     0.027 C 
ENDBRANCH   2  20
TORSDOF 4
ENDMDL
MODEL 5
REMARK VINA RESULT:      -5.5      4.198      6.612
REMARK  4 active torsions:
REMARK  status: ('A' for Active; 'I' for Inactive)
REMARK    1  A    between atoms: N_2  and  C_14 
REMARK    2  A    between atoms: N_3  and  C_13 
REMARK    3  A    between atoms: C_4  and  C_7 
REMARK    4  A    between atoms: C_7  and  C_13 
ROOT
HETATM    1  S   UNK N   1      20.677  19.637   3.430  0.00  0.00    -0.153 SA
HETATM    2  N   UNK N   1      24.175  17.780   4.605  0.00  0.00    -0.348 N 
HETATM    3  C   UNK N   1      21.701  18.241   4.084  0.00  0.00     0.049 C 
HETATM    4  C   UNK N   1      23.191  18.555   4.061  0.00  0.00     0.037 A 
HETATM    5  C   UNK N   1      23.757  19.695   3.494  0.00  0.00    -0.021 A 
HETATM    6  C   UNK N   1      23.034  20.774   2.760  0.00  0.00     0.051 C 
HETATM    7  C   UNK N   1      25.106  19.626   3.735  0.00  0.00    -0.001 A 
HETATM    8  C   UNK N   1      25.337  18.454   4.414  0.00  0.00     0.045 A 
HETATM    9  C   UNK N   1      21.806  20.168   2.112  0.00  0.00     0.080 C 
HETATM   10  C   UNK N   1      21.304  18.078   5.543  0.00  0.00     0.034 C 
HETATM   11  C   UNK N   1      26.128  20.515   3.414  0.00  0.00     0.014 A 
HETATM   12  C   UNK N   1      26.628  18.106   4.823  0.00  0.00     0.030 A 
HETATM   13  C   UNK N   1      27.433  20.187   3.819  0.00  0.00     0.001 A 
HETATM   14  C   UNK N   1      27.682  18.989   4.523  0.00  0.00     0.002 A 
ENDROOT
BRANCH   3  15
HETATM   15  C   UNK N   1      21.420  16.933   3.322  0.00  0.00     0.056 C 
BRANCH  15  16
HETATM   16  C   UNK N   1      19.983  16.747   2.810  0.00  0.00     0.273 C 
BRANCH  16  17
HETATM   17  N   UNK N   1      19.933  16.081   1.515  0.00  0.00     0.080 N 
HETATM   18  C   UNK N   1      19.939  17.124   0.504  0.00  0.00     0.309 C 
HETATM   19  C   UNK N   1      21.163  15.328   1.354  0.00  0.00     0.309 C 
ENDBRANCH  16  17
ENDBRANCH  15  16
ENDBRANCH   3  15
BRANCH   2  20
HETATM   20  C   UNK N   1      23.942  16.488   5.271  0.00  0.00     0.124 C 
HETATM   21  C   UNK N   1      24.409  15.278   4.477  0.00  0.00     0.027 C 
ENDBRANCH   2  20
TORSDOF 4
ENDMDL
MODEL 6
REMARK VINA RESULT:      -5.5     13.727     16.538
REMARK  4 active torsions:
REMARK  status: ('A' for Active; 'I' for Inactive)
REMARK    1  A    between atoms: N_2  and  C_14 
REMARK    2  A    between atoms: N_3  and  C_13 
REMARK    3  A    between atoms: C_4  and  C_7 
REMARK    4  A    between atoms: C_7  and  C_13 
ROOT
HETATM    1  S   UNK N   1      37.029   8.894  14.222  0.00  0.00    -0.153 SA
HETATM    2  N   UNK N   1      35.866  12.406  16.061  0.00  0.00    -0.348 N 
HETATM    3  C   UNK N   1      36.573  10.687  14.286  0.00  0.00     0.049 C 
HETATM    4  C   UNK N   1      36.128  11.123  15.676  0.00  0.00     0.037 A 
HETATM    5  C   UNK N   1      35.944  10.265  16.760  0.00  0.00    -0.021 A 
HETATM    6  C   UNK N   1      36.084   8.780  16.749  0.00  0.00     0.051 C 
HETATM    7  C   UNK N   1      35.603  11.052  17.831  0.00  0.00    -0.001 A 
HETATM    8  C   UNK N   1      35.563  12.350  17.383  0.00  0.00     0.045 A 
HETATM    9  C   UNK N   1      35.755   8.279  15.358  0.00  0.00     0.080 C 
HETATM   10  C   UNK N   1      37.846  11.455  13.966  0.00  0.00     0.034 C 
HETATM   11  C   UNK N   1      35.340  10.711  19.155  0.00  0.00     0.014 A 
HETATM   12  C   UNK N   1      35.260  13.399  18.256  0.00  0.00     0.030 A 
HETATM   13  C   UNK N   1      35.038  11.751  20.050  0.00  0.00     0.001 A 
HETATM   14  C   UNK N   1      35.000  13.089  19.604  0.00  0.00     0.002 A 
ENDROOT
BRANCH   3  15
HETATM   15  C   UNK N   1      35.488  11.028  13.249  0.00  0.00     0.056 C 
BRANCH  15  16
HETATM   16  C   UNK N   1      35.984  11.654  11.935  0.00  0.00     0.273 C 
BRANCH  16  17
HETATM   17  N   UNK N   1      35.316  12.911  11.629  0.00  0.00     0.080 N 
HETATM   18  C   UNK N   1      36.355  13.908  11.444  0.00  0.00     0.309 C 
HETATM   19  C   UNK N   1      34.643  12.759  10.352  0.00  0.00     0.309 C 
ENDBRANCH  16  17
ENDBRANCH  15  16
ENDBRANCH   3  15
BRANCH   2  20
HETATM   20  C   UNK N   1      35.938  13.573  15.167  0.00  0.00     0.124 C 
HETATM   21  C   UNK N   1      37.010  14.585  15.537  0.00  0.00     0.027 C 
ENDBRANCH   2  20
TORSDOF 4
ENDMDL
MODEL 7
REMARK VINA RESULT:      -5.4      1.994      3.697
REMARK  4 active torsions:
REMARK  status: ('A' for Active; 'I' for Inactive)
REMARK    1  A    between atoms: N_2  and  C_14 
REMARK    2  A    between atoms: N_3  and  C_13 
REMARK    3  A    between atoms: C_4  and  C_7 
REMARK    4  A    between atoms: C_7  and  C_13 
ROOT
HETATM    1  S   UNK N   1      24.432  15.389   5.337  0.00  0.00    -0.153 SA
HETATM    2  N   UNK N   1      21.923  13.968   8.296  0.00  0.00    -0.348 N 
HETATM    3  C   UNK N   1      22.796  15.046   6.133  0.00  0.00     0.049 C 
HETATM    4  C   UNK N   1      22.934  14.249   7.423  0.00  0.00     0.037 A 
HETATM    5  C   UNK N   1      24.127  13.709   7.902  0.00  0.00    -0.021 A 
HETATM    6  C   UNK N   1      25.456  13.753   7.226  0.00  0.00     0.051 C 
HETATM    7  C   UNK N   1      23.836  13.124   9.109  0.00  0.00    -0.001 A 
HETATM    8  C   UNK N   1      22.491  13.295   9.329  0.00  0.00     0.045 A 
HETATM    9  C   UNK N   1      25.228  13.806   5.730  0.00  0.00     0.080 C 
HETATM   10  C   UNK N   1      22.220  16.403   6.508  0.00  0.00     0.034 C 
HETATM   11  C   UNK N   1      24.663  12.471  10.019  0.00  0.00     0.014 A 
HETATM   12  C   UNK N   1      21.891  12.820  10.499  0.00  0.00     0.030 A 
HETATM   13  C   UNK N   1      24.081  11.990  11.204  0.00  0.00     0.001 A 
HETATM   14  C   UNK N   1      22.702  12.165  11.444  0.00  0.00     0.002 A 
ENDROOT
BRANCH   3  15
HETATM   15  C   UNK N   1      21.839  14.328   5.163  0.00  0.00     0.056 C 
BRANCH  15  16
HETATM   16  C   UNK N   1      20.982  15.236   4.266  0.00  0.00     0.273 C 
BRANCH  16  17
HETATM   17  N   UNK N   1      19.593  14.803   4.198  0.00  0.00     0.080 N 
HETATM   18  C   UNK N   1      19.547  13.450   4.724  0.00  0.00     0.309 C 
HETATM   19  C   UNK N   1      18.822  15.635   5.103  0.00  0.00     0.309 C 
ENDBRANCH  16  17
ENDBRANCH  15  16
ENDBRANCH   3  15
BRANCH   2  20
HETATM   20  C   UNK N   1      20.520  14.366   8.098  0.00  0.00     0.124 C 
HETATM   21  C   UNK N   1      20.030  15.442   9.054  0.00  0.00     0.027 C 
ENDBRANCH   2  20
TORSDOF 4
ENDMDL
MODEL 8
REMARK VINA RESULT:      -5.3      1.911      3.686
REMARK  4 active torsions:
REMARK  status: ('A' for Active; 'I' for Inactive)
REMARK    1  A    between atoms: N_2  and  C_14 
REMARK    2  A    between atoms: N_3  and  C_13 
REMARK    3  A    between atoms: C_4  and  C_7 
REMARK    4  A    between atoms: C_7  and  C_13 
ROOT
HETATM    1  S   UNK N   1      23.298  16.894   4.772  0.00  0.00    -0.153 SA
HETATM    2  N   UNK N   1      20.614  15.649   7.656  0.00  0.00    -0.348 N 
HETATM    3  C   UNK N   1      21.663  16.849   5.640  0.00  0.00     0.049 C 
HETATM    4  C   UNK N   1      21.628  15.814   6.757  0.00  0.00     0.037 A 
HETATM    5  C   UNK N   1      22.644  14.899   7.028  0.00  0.00    -0.021 A 
HETATM    6  C   UNK N   1      23.906  14.720   6.254  0.00  0.00     0.051 C 
HETATM    7  C   UNK N   1      22.252  14.194   8.138  0.00  0.00    -0.001 A 
HETATM    8  C   UNK N   1      21.015  14.667   8.503  0.00  0.00     0.045 A 
HETATM    9  C   UNK N   1      23.643  15.113   4.815  0.00  0.00     0.080 C 
HETATM   10  C   UNK N   1      21.498  18.213   6.293  0.00  0.00     0.034 C 
HETATM   11  C   UNK N   1      22.903  13.186   8.844  0.00  0.00     0.014 A 
HETATM   12  C   UNK N   1      20.354  14.154   9.623  0.00  0.00     0.030 A 
HETATM   13  C   UNK N   1      22.258  12.659   9.976  0.00  0.00     0.001 A 
HETATM   14  C   UNK N   1      20.991  13.142  10.365  0.00  0.00     0.002 A 
ENDROOT
BRANCH   3  15
HETATM   15  C   UNK N   1      20.509  16.606   4.652  0.00  0.00     0.056 C 
BRANCH  15  16
HETATM   16  C   UNK N   1      20.657  17.259   3.268  0.00  0.00     0.273 C 
BRANCH  16  17
HETATM   17  N   UNK N   1      20.144  16.417   2.195  0.00  0.00     0.080 N 
HETATM   18  C   UNK N   1      20.094  17.239   1.000  0.00  0.00     0.309 C 
HETATM   19  C   UNK N   1      21.116  15.368   1.948  0.00  0.00     0.309 C 
ENDBRANCH  16  17
ENDBRANCH  15  16
ENDBRANCH   3  15
BRANCH   2  20
HETATM   20  C   UNK N   1      19.367  16.432   7.656  0.00  0.00     0.124 C 
HETATM   21  C   UNK N   1      19.206  17.359   8.849  0.00  0.00     0.027 C 
ENDBRANCH   2  20
TORSDOF 4
ENDMDL
MODEL 9
REMARK VINA RESULT:      -5.3      5.799      8.804
REMARK  4 active torsions:
REMARK  status: ('A' for Active; 'I' for Inactive)
REMARK    1  A    between atoms: N_2  and  C_14 
REMARK    2  A    between atoms: N_3  and  C_13 
REMARK    3  A    between atoms: C_4  and  C_7 
REMARK    4  A    between atoms: C_7  and  C_13 
ROOT
HETATM    1  S   UNK N   1      28.138  16.999   3.595  0.00  0.00    -0.153 SA
HETATM    2  N   UNK N   1      29.926  17.274   7.309  0.00  0.00    -0.348 N 
HETATM    3  C   UNK N   1      28.177  17.007   5.446  0.00  0.00     0.049 C 
HETATM    4  C   UNK N   1      29.593  17.108   5.996  0.00  0.00     0.037 A 
HETATM    5  C   UNK N   1      30.753  17.063   5.224  0.00  0.00    -0.021 A 
HETATM    6  C   UNK N   1      30.830  16.849   3.750  0.00  0.00     0.051 C 
HETATM    7  C   UNK N   1      31.805  17.246   6.086  0.00  0.00    -0.001 A 
HETATM    8  C   UNK N   1      31.279  17.373   7.348  0.00  0.00     0.045 A 
HETATM    9  C   UNK N   1      29.639  16.015   3.326  0.00  0.00     0.080 C 
HETATM   10  C   UNK N   1      27.442  18.268   5.875  0.00  0.00     0.034 C 
HETATM   11  C   UNK N   1      33.174  17.318   5.838  0.00  0.00     0.014 A 
HETATM   12  C   UNK N   1      32.109  17.592   8.451  0.00  0.00     0.030 A 
HETATM   13  C   UNK N   1      34.026  17.542   6.932  0.00  0.00     0.001 A 
HETATM   14  C   UNK N   1      33.496  17.681   8.233  0.00  0.00     0.002 A 
ENDROOT
BRANCH   3  15
HETATM   15  C   UNK N   1      27.466  15.771   6.027  0.00  0.00     0.056 C 
BRANCH  15  16
HETATM   16  C   UNK N   1      25.930  15.785   5.965  0.00  0.00     0.273 C 
BRANCH  16  17
HETATM   17  N   UNK N   1      25.324  14.884   6.936  0.00  0.00     0.080 N 
HETATM   18  C   UNK N   1      23.886  14.984   6.764  0.00  0.00     0.309 C 
HETATM   19  C   UNK N   1      25.700  13.528   6.581  0.00  0.00     0.309 C 
ENDBRANCH  16  17
ENDBRANCH  15  16
ENDBRANCH   3  15
BRANCH   2  20
HETATM   20  C   UNK N   1      28.951  17.342   8.411  0.00  0.00     0.124 C 
HETATM   21  C   UNK N   1      28.923  18.673   9.145  0.00  0.00     0.027 C 
ENDBRANCH   2  20
TORSDOF 4
ENDMDL
