MODEL 1
REMARK VINA RESULT:      -7.3      0.000      0.000
REMARK  0 active torsions:
REMARK  status: ('A' for Active; 'I' for Inactive)
ROOT
HETATM    1  C   UNK N   1      26.444  21.518  -8.022  0.00  0.00     0.026 A 
HETATM    2  C   UNK N   1      27.779  21.477  -7.608  0.00  0.00     0.034 A 
HETATM    3  C   UNK N   1      28.341  22.564  -6.931  0.00  0.00     0.034 A 
HETATM    4  C   UNK N   1      27.563  23.693  -6.655  0.00  0.00    -0.018 A 
HETATM    5  C   UNK N   1      26.198  23.713  -7.035  0.00  0.00     0.079 A 
HETATM    6  C   UNK N   1      25.654  22.637  -7.738  0.00  0.00     0.039 A 
HETATM    7  C   UNK N   1      28.153  24.858  -5.877  0.00  0.00     0.040 C 
HETATM    8  C   UNK N   1      27.239  26.090  -5.988  0.00  0.00     0.079 C 
HETATM    9  C   UNK N   1      25.813  25.614  -5.659  0.00  0.00     0.150 C 
HETATM   10  O   UNK N   1      25.410  24.760  -6.672  0.00  0.00    -0.319 OA
HETATM   11  C   UNK N   1      27.693  27.282  -5.116  0.00  0.00     0.282 C 
HETATM   12  N   UNK N   1      26.739  27.537  -4.034  0.00  0.00     0.085 N 
HETATM   13  C   UNK N   1      25.433  27.900  -4.597  0.00  0.00     0.276 C 
HETATM   14  C   UNK N   1      24.891  26.830  -5.571  0.00  0.00     0.092 C 
HETATM   15  C   UNK N   1      27.224  28.669  -3.267  0.00  0.00     0.309 C 
HETATM   16 Cl   UNK N   1      28.743  20.048  -7.910  0.00  0.00    -0.084 Cl
HETATM   17  C   UNK N   1      28.242  24.436  -4.408  0.00  0.00     0.113 C 
HETATM   18  N   UNK N   1      25.771  24.886  -4.388  0.00  0.00    -0.328 N 
HETATM   19  C   UNK N   1      26.872  24.367  -3.773  0.00  0.00     0.220 C 
HETATM   20  O   UNK N   1      26.751  23.820  -2.688  0.00  0.00    -0.274 OA
HETATM   21  H   UNK N   1      24.897  24.764  -3.952  0.00  0.00     0.165 HD
ENDROOT
TORSDOF 0
ENDMDL
MODEL 2
REMARK VINA RESULT:      -6.9     24.540     26.392
REMARK  0 active torsions:
REMARK  status: ('A' for Active; 'I' for Inactive)
ROOT
HETATM    1  C   UNK N   1      35.272  13.048  18.771  0.00  0.00     0.026 A 
HETATM    2  C   UNK N   1      35.274  11.654  18.886  0.00  0.00     0.034 A 
HETATM    3  C   UNK N   1      35.118  10.854  17.750  0.00  0.00     0.034 A 
HETATM    4  C   UNK N   1      34.973  11.446  16.491  0.00  0.00    -0.018 A 
HETATM    5  C   UNK N   1      35.018  12.857  16.373  0.00  0.00     0.079 A 
HETATM    6  C   UNK N   1      35.142  13.650  17.515  0.00  0.00     0.039 A 
HETATM    7  C   UNK N   1      34.852  10.582  15.247  0.00  0.00     0.040 C 
HETATM    8  C   UNK N   1      34.374  11.428  14.054  0.00  0.00     0.079 C 
HETATM    9  C   UNK N   1      35.269  12.680  14.015  0.00  0.00     0.150 C 
HETATM   10  O   UNK N   1      34.988  13.435  15.142  0.00  0.00    -0.319 OA
HETATM   11  C   UNK N   1      34.353  10.659  12.715  0.00  0.00     0.282 C 
HETATM   12  N   UNK N   1      35.360  11.185  11.790  0.00  0.00     0.085 N 
HETATM   13  C   UNK N   1      35.065  12.587  11.476  0.00  0.00     0.276 C 
HETATM   14  C   UNK N   1      34.964  13.468  12.741  0.00  0.00     0.092 C 
HETATM   15  C   UNK N   1      35.275  10.424  10.557  0.00  0.00     0.309 C 
HETATM   16 Cl   UNK N   1      35.502  10.907  20.452  0.00  0.00    -0.084 Cl
HETATM   17  C   UNK N   1      36.242  10.024  14.934  0.00  0.00     0.113 C 
HETATM   18  N   UNK N   1      36.690  12.324  14.031  0.00  0.00    -0.328 N 
HETATM   19  C   UNK N   1      37.163  11.102  14.412  0.00  0.00     0.220 C 
HETATM   20  O   UNK N   1      38.360  10.876  14.345  0.00  0.00    -0.274 OA
HETATM   21  H   UNK N   1      37.342  13.006  13.750  0.00  0.00     0.165 HD
ENDROOT
TORSDOF 0
ENDMDL
MODEL 3
REMARK VINA RESULT:      -6.7     21.023     22.775
REMARK  0 active torsions:
REMARK  status: ('A' for Active; 'I' for Inactive)
ROOT
HETATM    1  C   UNK N   1      36.903  12.975  15.368  0.00  0.00     0.026 A 
HETATM    2  C   UNK N   1      36.688  11.750  14.727  0.00  0.00     0.034 A 
HETATM    3  C   UNK N   1      36.140  11.715  13.441  0.00  0.00     0.034 A 
HETATM    4  C   UNK N   1      35.817  12.908  12.786  0.00  0.00    -0.018 A 
HETATM    5  C   UNK N   1      36.078  14.148  13.420  0.00  0.00     0.079 A 
HETATM    6  C   UNK N   1      36.597  14.173  14.716  0.00  0.00     0.039 A 
HETATM    7  C   UNK N   1      35.266  12.880  11.370  0.00  0.00     0.040 C 
HETATM    8  C   UNK N   1      34.683  14.253  10.996  0.00  0.00     0.079 C 
HETATM    9  C   UNK N   1      35.749  15.300  11.366  0.00  0.00     0.150 C 
HETATM   10  O   UNK N   1      35.870  15.310  12.746  0.00  0.00    -0.319 OA
HETATM   11  C   UNK N   1      34.223  14.354   9.526  0.00  0.00     0.282 C 
HETATM   12  N   UNK N   1      35.067  15.284   8.772  0.00  0.00     0.085 N 
HETATM   13  C   UNK N   1      34.957  16.632   9.342  0.00  0.00     0.276 C 
HETATM   14  C   UNK N   1      35.303  16.667  10.847  0.00  0.00     0.092 C 
HETATM   15  C   UNK N   1      34.572  15.335   7.409  0.00  0.00     0.309 C 
HETATM   16 Cl   UNK N   1      37.134  10.257  15.524  0.00  0.00    -0.084 Cl
HETATM   17  C   UNK N   1      36.429  12.560  10.427  0.00  0.00     0.113 C 
HETATM   18  N   UNK N   1      37.052  14.967  10.785  0.00  0.00    -0.328 N 
HETATM   19  C   UNK N   1      37.380  13.730  10.312  0.00  0.00     0.220 C 
HETATM   20  O   UNK N   1      38.472  13.555   9.796  0.00  0.00    -0.274 OA
HETATM   21  H   UNK N   1      37.731  15.677  10.731  0.00  0.00     0.165 HD
ENDROOT
TORSDOF 0
ENDMDL
MODEL 4
REMARK VINA RESULT:      -6.6     15.211     17.089
REMARK  0 active torsions:
REMARK  status: ('A' for Active; 'I' for Inactive)
ROOT
HETATM    1  C   UNK N   1      28.596  16.968   5.594  0.00  0.00     0.026 A 
HETATM    2  C   UNK N   1      28.714  17.958   6.575  0.00  0.00     0.034 A 
HETATM    3  C   UNK N   1      29.705  17.862   7.557  0.00  0.00     0.034 A 
HETATM    4  C   UNK N   1      30.591  16.780   7.553  0.00  0.00    -0.018 A 
HETATM    5  C   UNK N   1      30.498  15.802   6.532  0.00  0.00     0.079 A 
HETATM    6  C   UNK N   1      29.486  15.889   5.574  0.00  0.00     0.039 A 
HETATM    7  C   UNK N   1      31.701  16.695   8.588  0.00  0.00     0.040 C 
HETATM    8  C   UNK N   1      32.318  15.286   8.594  0.00  0.00     0.079 C 
HETATM    9  C   UNK N   1      32.630  14.935   7.128  0.00  0.00     0.150 C 
HETATM   10  O   UNK N   1      31.424  14.809   6.459  0.00  0.00    -0.319 OA
HETATM   11  C   UNK N   1      33.545  15.148   9.522  0.00  0.00     0.282 C 
HETATM   12  N   UNK N   1      34.768  14.923   8.748  0.00  0.00     0.085 N 
HETATM   13  C   UNK N   1      34.661  13.665   8.000  0.00  0.00     0.276 C 
HETATM   14  C   UNK N   1      33.415  13.623   7.088  0.00  0.00     0.092 C 
HETATM   15  C   UNK N   1      35.871  14.795   9.681  0.00  0.00     0.309 C 
HETATM   16 Cl   UNK N   1      27.638  19.338   6.556  0.00  0.00    -0.084 Cl
HETATM   17  C   UNK N   1      32.779  17.708   8.195  0.00  0.00     0.113 C 
HETATM   18  N   UNK N   1      33.418  15.987   6.481  0.00  0.00    -0.328 N 
HETATM   19  C   UNK N   1      33.535  17.256   6.966  0.00  0.00     0.220 C 
HETATM   20  O   UNK N   1      34.256  18.054   6.389  0.00  0.00    -0.274 OA
HETATM   21  H   UNK N   1      33.892  15.764   5.647  0.00  0.00     0.165 HD
ENDROOT
TORSDOF 0
ENDMDL
MODEL 5
REMARK VINA RESULT:      -6.4     12.250     14.323
REMARK  0 active torsions:
REMARK  status: ('A' for Active; 'I' for Inactive)
ROOT
HETATM    1  C   UNK N   1      25.979  20.812   5.242  0.00  0.00     0.026 A 
HETATM    2  C   UNK N   1      26.137  20.187   4.001  0.00  0.00     0.034 A 
HETATM    3  C   UNK N   1      27.150  19.242   3.813  0.00  0.00     0.034 A 
HETATM    4  C   UNK N   1      28.001  18.909   4.871  0.00  0.00    -0.018 A 
HETATM    5  C   UNK N   1      27.810  19.510   6.139  0.00  0.00     0.079 A 
HETATM    6  C   UNK N   1      26.816  20.476   6.311  0.00  0.00     0.039 A 
HETATM    7  C   UNK N   1      29.073  17.847   4.687  0.00  0.00     0.040 C 
HETATM    8  C   UNK N   1      30.077  17.895   5.852  0.00  0.00     0.079 C 
HETATM    9  C   UNK N   1      29.248  17.907   7.148  0.00  0.00     0.150 C 
HETATM   10  O   UNK N   1      28.562  19.110   7.199  0.00  0.00    -0.319 OA
HETATM   11  C   UNK N   1      31.125  16.761   5.816  0.00  0.00     0.282 C 
HETATM   12  N   UNK N   1      30.935  15.833   6.934  0.00  0.00     0.085 N 
HETATM   13  C   UNK N   1      31.121  16.540   8.206  0.00  0.00     0.276 C 
HETATM   14  C   UNK N   1      30.192  17.767   8.342  0.00  0.00     0.092 C 
HETATM   15  C   UNK N   1      31.955  14.806   6.841  0.00  0.00     0.309 C 
HETATM   16 Cl   UNK N   1      25.044  20.566   2.688  0.00  0.00    -0.084 Cl
HETATM   17  C   UNK N   1      28.379  16.483   4.685  0.00  0.00     0.113 C 
HETATM   18  N   UNK N   1      28.275  16.812   7.173  0.00  0.00    -0.328 N 
HETATM   19  C   UNK N   1      27.885  16.117   6.066  0.00  0.00     0.220 C 
HETATM   20  O   UNK N   1      27.107  15.184   6.188  0.00  0.00    -0.274 OA
HETATM   21  H   UNK N   1      27.880  16.563   8.039  0.00  0.00     0.165 HD
ENDROOT
TORSDOF 0
ENDMDL
MODEL 6
REMARK VINA RESULT:      -6.3     25.278     27.034
REMARK  0 active torsions:
REMARK  status: ('A' for Active; 'I' for Inactive)
ROOT
HETATM    1  C   UNK N   1      36.401   8.780  18.506  0.00  0.00     0.026 A 
HETATM    2  C   UNK N   1      35.517   9.732  19.025  0.00  0.00     0.034 A 
HETATM    3  C   UNK N   1      35.274  10.920  18.328  0.00  0.00     0.034 A 
HETATM    4  C   UNK N   1      35.905  11.154  17.102  0.00  0.00    -0.018 A 
HETATM    5  C   UNK N   1      36.765  10.168  16.558  0.00  0.00     0.079 A 
HETATM    6  C   UNK N   1      37.027   8.999  17.275  0.00  0.00     0.039 A 
HETATM    7  C   UNK N   1      35.608  12.420  16.316  0.00  0.00     0.040 C 
HETATM    8  C   UNK N   1      36.647  12.611  15.198  0.00  0.00     0.079 C 
HETATM    9  C   UNK N   1      36.740  11.269  14.451  0.00  0.00     0.150 C 
HETATM   10  O   UNK N   1      37.294  10.341  15.318  0.00  0.00    -0.319 OA
HETATM   11  C   UNK N   1      36.342  13.802  14.263  0.00  0.00     0.282 C 
HETATM   12  N   UNK N   1      36.002  13.341  12.915  0.00  0.00     0.085 N 
HETATM   13  C   UNK N   1      37.142  12.626  12.330  0.00  0.00     0.276 C 
HETATM   14  C   UNK N   1      37.619  11.450  13.212  0.00  0.00     0.092 C 
HETATM   15  C   UNK N   1      35.740  14.508  12.095  0.00  0.00     0.309 C 
HETATM   16 Cl   UNK N   1      34.689   9.424  20.535  0.00  0.00    -0.084 Cl
HETATM   17  C   UNK N   1      34.222  12.260  15.686  0.00  0.00     0.113 C 
HETATM   18  N   UNK N   1      35.419  10.792  14.036  0.00  0.00    -0.328 N 
HETATM   19  C   UNK N   1      34.246  11.254  14.558  0.00  0.00     0.220 C 
HETATM   20  O   UNK N   1      33.188  10.837  14.115  0.00  0.00    -0.274 OA
HETATM   21  H   UNK N   1      35.374  10.098  13.339  0.00  0.00     0.165 HD
ENDROOT
TORSDOF 0
ENDMDL
MODEL 7
REMARK VINA RESULT:      -6.2     18.007     19.830
REMARK  0 active torsions:
REMARK  status: ('A' for Active; 'I' for Inactive)
ROOT
HETATM    1  C   UNK N   1      33.321  17.938   7.021  0.00  0.00     0.026 A 
HETATM    2  C   UNK N   1      33.757  17.051   6.031  0.00  0.00     0.034 A 
HETATM    3  C   UNK N   1      34.519  15.930   6.375  0.00  0.00     0.034 A 
HETATM    4  C   UNK N   1      34.837  15.685   7.715  0.00  0.00    -0.018 A 
HETATM    5  C   UNK N   1      34.356  16.560   8.720  0.00  0.00     0.079 A 
HETATM    6  C   UNK N   1      33.622  17.694   8.365  0.00  0.00     0.039 A 
HETATM    7  C   UNK N   1      35.624  14.443   8.101  0.00  0.00     0.040 C 
HETATM    8  C   UNK N   1      36.131  14.562   9.548  0.00  0.00     0.079 C 
HETATM    9  C   UNK N   1      34.924  14.982  10.405  0.00  0.00     0.150 C 
HETATM   10  O   UNK N   1      34.568  16.267  10.030  0.00  0.00    -0.319 OA
HETATM   11  C   UNK N   1      36.826  13.285  10.069  0.00  0.00     0.282 C 
HETATM   12  N   UNK N   1      36.040  12.654  11.133  0.00  0.00     0.085 N 
HETATM   13  C   UNK N   1      35.924  13.568  12.276  0.00  0.00     0.276 C 
HETATM   14  C   UNK N   1      35.323  14.935  11.881  0.00  0.00     0.092 C 
HETATM   15  C   UNK N   1      36.756  11.473  11.578  0.00  0.00     0.309 C 
HETATM   16 Cl   UNK N   1      33.322  17.328   4.358  0.00  0.00    -0.084 Cl
HETATM   17  C   UNK N   1      34.675  13.246   8.003  0.00  0.00     0.113 C 
HETATM   18  N   UNK N   1      33.777  14.096  10.189  0.00  0.00    -0.328 N 
HETATM   19  C   UNK N   1      33.653  13.262   9.116  0.00  0.00     0.220 C 
HETATM   20  O   UNK N   1      32.688  12.520   9.043  0.00  0.00    -0.274 OA
HETATM   21  H   UNK N   1      33.054  14.102  10.857  0.00  0.00     0.165 HD
ENDROOT
TORSDOF 0
ENDMDL
MODEL 8
REMARK VINA RESULT:      -6.1     14.572     16.487
REMARK  0 active torsions:
REMARK  status: ('A' for Active; 'I' for Inactive)
ROOT
HETATM    1  C   UNK N   1      28.262  17.945   6.596  0.00  0.00     0.026 A 
HETATM    2  C   UNK N   1      28.713  17.981   5.272  0.00  0.00     0.034 A 
HETATM    3  C   UNK N   1      30.023  17.604   4.963  0.00  0.00     0.034 A 
HETATM    4  C   UNK N   1      30.886  17.177   5.977  0.00  0.00    -0.018 A 
HETATM    5  C   UNK N   1      30.413  17.098   7.311  0.00  0.00     0.079 A 
HETATM    6  C   UNK N   1      29.113  17.506   7.616  0.00  0.00     0.039 A 
HETATM    7  C   UNK N   1      32.296  16.720   5.643  0.00  0.00     0.040 C 
HETATM    8  C   UNK N   1      33.143  16.622   6.923  0.00  0.00     0.079 C 
HETATM    9  C   UNK N   1      32.315  15.817   7.939  0.00  0.00     0.150 C 
HETATM   10  O   UNK N   1      31.211  16.580   8.282  0.00  0.00    -0.319 OA
HETATM   11  C   UNK N   1      34.553  16.035   6.692  0.00  0.00     0.282 C 
HETATM   12  N   UNK N   1      34.689  14.725   7.335  0.00  0.00     0.085 N 
HETATM   13  C   UNK N   1      34.522  14.863   8.786  0.00  0.00     0.276 C 
HETATM   14  C   UNK N   1      33.180  15.528   9.166  0.00  0.00     0.092 C 
HETATM   15  C   UNK N   1      36.034  14.242   7.085  0.00  0.00     0.309 C 
HETATM   16 Cl   UNK N   1      27.623  18.470   3.992  0.00  0.00    -0.084 Cl
HETATM   17  C   UNK N   1      32.194  15.331   5.007  0.00  0.00     0.113 C 
HETATM   18  N   UNK N   1      31.850  14.550   7.369  0.00  0.00    -0.328 N 
HETATM   19  C   UNK N   1      31.818  14.285   6.031  0.00  0.00     0.220 C 
HETATM   20  O   UNK N   1      31.465  13.182   5.648  0.00  0.00    -0.274 OA
HETATM   21  H   UNK N   1      31.544  13.848   7.988  0.00  0.00     0.165 HD
ENDROOT
TORSDOF 0
ENDMDL
MODEL 9
REMARK VINA RESULT:      -6.0     12.179     13.701
REMARK  0 active torsions:
REMARK  status: ('A' for Active; 'I' for Inactive)
ROOT
HETATM    1  C   UNK N   1      31.613  15.929   6.136  0.00  0.00     0.026 A 
HETATM    2  C   UNK N   1      31.896  17.018   5.306  0.00  0.00     0.034 A 
HETATM    3  C   UNK N   1      30.865  17.667   4.620  0.00  0.00     0.034 A 
HETATM    4  C   UNK N   1      29.543  17.236   4.773  0.00  0.00    -0.018 A 
HETATM    5  C   UNK N   1      29.254  16.161   5.650  0.00  0.00     0.079 A 
HETATM    6  C   UNK N   1      30.293  15.499   6.307  0.00  0.00     0.039 A 
HETATM    7  C   UNK N   1      28.412  17.967   4.069  0.00  0.00     0.040 C 
HETATM    8  C   UNK N   1      27.124  17.127   4.114  0.00  0.00     0.079 C 
HETATM    9  C   UNK N   1      26.937  16.686   5.577  0.00  0.00     0.150 C 
HETATM   10  O   UNK N   1      27.963  15.809   5.888  0.00  0.00    -0.319 OA
HETATM   11  C   UNK N   1      25.888  17.853   3.540  0.00  0.00     0.282 C 
HETATM   12  N   UNK N   1      24.910  18.141   4.592  0.00  0.00     0.085 N 
HETATM   13  C   UNK N   1      24.427  16.886   5.180  0.00  0.00     0.276 C 
HETATM   14  C   UNK N   1      25.575  16.005   5.719  0.00  0.00     0.092 C 
HETATM   15  C   UNK N   1      23.778  18.811   3.979  0.00  0.00     0.309 C 
HETATM   16 Cl   UNK N   1      33.542  17.591   5.147  0.00  0.00    -0.084 Cl
HETATM   17  C   UNK N   1      28.175  19.282   4.815  0.00  0.00     0.113 C 
HETATM   18  N   UNK N   1      27.002  17.827   6.494  0.00  0.00    -0.328 N 
HETATM   19  C   UNK N   1      27.530  19.040   6.161  0.00  0.00     0.220 C 
HETATM   20  O   UNK N   1      27.495  19.952   6.972  0.00  0.00    -0.274 OA
HETATM   21  H   UNK N   1      26.643  17.712   7.403  0.00  0.00     0.165 HD
ENDROOT
TORSDOF 0
ENDMDL
