MODEL 1
REMARK VINA RESULT:      -6.5      0.000      0.000
REMARK  5 active torsions:
REMARK  status: ('A' for Active; 'I' for Inactive)
REMARK    1  A    between atoms: C_1  and  C_8 
REMARK    2  A    between atoms: C_2  and  S_7 
REMARK    3  A    between atoms: C_9  and  O_13 
REMARK    4  A    between atoms: O_13  and  C_18 
REMARK    5  A    between atoms: C_18  and  C_14 
ROOT
HETATM    1  C   UNK N   1      30.945  16.689   5.710  0.00  0.00     0.026 A 
HETATM    2  C   UNK N   1      29.669  17.034   5.844  0.00  0.00     0.154 A 
HETATM    3  C   UNK N   1      29.108  17.106   4.528  0.00  0.00     0.318 A 
HETATM    4  O   UNK N   1      30.043  16.809   3.611  0.00  0.00    -0.300 OA
HETATM    5  C   UNK N   1      31.265  16.531   4.227  0.00  0.00     0.094 A 
HETATM    6  O   UNK N   1      27.943  17.357   4.256  0.00  0.00    -0.257 OA
HETATM    7  C   UNK N   1      32.313  17.533   3.780  0.00  0.00     0.052 C 
HETATM    8  C   UNK N   1      31.711  15.118   3.896  0.00  0.00     0.052 C 
ENDROOT
BRANCH   1   9
HETATM    9  C   UNK N   1      31.873  16.507   6.870  0.00  0.00    -0.024 A 
HETATM   10  C   UNK N   1      32.034  15.232   7.432  0.00  0.00     0.013 A 
HETATM   11  C   UNK N   1      32.916  15.006   8.475  0.00  0.00     0.024 A 
HETATM   12  C   UNK N   1      33.666  16.057   8.986  0.00  0.00     0.058 A 
HETATM   13  C   UNK N   1      33.513  17.348   8.456  0.00  0.00     0.024 A 
HETATM   14  C   UNK N   1      32.613  17.575   7.402  0.00  0.00     0.013 A 
BRANCH  12  15
HETATM   15  S   UNK N   1      34.855  15.712  10.272  0.00  0.00     0.171 S 
HETATM   16  C   UNK N   1      36.407  14.794  10.094  0.00  0.00     0.167 C 
HETATM   17  O   UNK N   1      35.152  17.029  11.005  0.00  0.00    -0.223 OA
HETATM   18  O   UNK N   1      34.066  15.002  11.384  0.00  0.00    -0.223 OA
ENDBRANCH  12  15
ENDBRANCH   1   9
BRANCH   2  19
HETATM   19  O   UNK N   1      29.086  17.247   7.040  0.00  0.00    -0.344 OA
BRANCH  19  20
HETATM   20  C   UNK N   1      28.716  18.449   7.579  0.00  0.00     0.180 C 
BRANCH  20  21
HETATM   21  C   UNK N   1      28.516  18.236   9.080  0.00  0.00     0.010 A 
HETATM   22  C   UNK N   1      29.726  18.728   9.874  0.00  0.00     0.007 A 
HETATM   23  C   UNK N   1      29.560  17.258   9.583  0.00  0.00     0.007 A 
ENDBRANCH  20  21
ENDBRANCH  19  20
ENDBRANCH   2  19
TORSDOF 5
ENDMDL
MODEL 2
REMARK VINA RESULT:      -6.3     13.383     16.673
REMARK  5 active torsions:
REMARK  status: ('A' for Active; 'I' for Inactive)
REMARK    1  A    between atoms: C_1  and  C_8 
REMARK    2  A    between atoms: C_2  and  S_7 
REMARK    3  A    between atoms: C_9  and  O_13 
REMARK    4  A    between atoms: O_13  and  C_18 
REMARK    5  A    between atoms: C_18  and  C_14 
ROOT
HETATM    1  C   UNK N   1      29.311  25.163  -4.401  0.00  0.00     0.026 A 
HETATM    2  C   UNK N   1      29.340  26.471  -4.172  0.00  0.00     0.154 A 
HETATM    3  C   UNK N   1      30.476  26.729  -3.337  0.00  0.00     0.318 A 
HETATM    4  O   UNK N   1      31.120  25.583  -3.066  0.00  0.00    -0.300 OA
HETATM    5  C   UNK N   1      30.479  24.503  -3.678  0.00  0.00     0.094 A 
HETATM    6  O   UNK N   1      30.848  27.828  -2.950  0.00  0.00    -0.257 OA
HETATM    7  C   UNK N   1      29.991  23.524  -2.624  0.00  0.00     0.052 C 
HETATM    8  C   UNK N   1      31.422  23.810  -4.645  0.00  0.00     0.052 C 
ENDROOT
BRANCH   1   9
HETATM    9  C   UNK N   1      28.265  24.501  -5.243  0.00  0.00    -0.024 A 
HETATM   10  C   UNK N   1      28.536  24.224  -6.591  0.00  0.00     0.013 A 
HETATM   11  C   UNK N   1      27.618  23.571  -7.396  0.00  0.00     0.024 A 
HETATM   12  C   UNK N   1      26.396  23.174  -6.869  0.00  0.00     0.058 A 
HETATM   13  C   UNK N   1      26.088  23.454  -5.529  0.00  0.00     0.024 A 
HETATM   14  C   UNK N   1      27.020  24.122  -4.716  0.00  0.00     0.013 A 
BRANCH  12  15
HETATM   15  S   UNK N   1      25.273  22.259  -7.912  0.00  0.00     0.171 S 
HETATM   16  C   UNK N   1      25.716  21.006  -9.143  0.00  0.00     0.167 C 
HETATM   17  O   UNK N   1      24.159  21.690  -7.020  0.00  0.00    -0.223 OA
HETATM   18  O   UNK N   1      24.449  23.319  -8.661  0.00  0.00    -0.223 OA
ENDBRANCH  12  15
ENDBRANCH   1   9
BRANCH   2  19
HETATM   19  O   UNK N   1      28.433  27.329  -4.679  0.00  0.00    -0.344 OA
BRANCH  19  20
HETATM   20  C   UNK N   1      27.271  27.747  -4.093  0.00  0.00     0.180 C 
BRANCH  20  21
HETATM   21  C   UNK N   1      26.369  28.292  -5.201  0.00  0.00     0.010 A 
HETATM   22  C   UNK N   1      25.211  27.337  -5.490  0.00  0.00     0.007 A 
HETATM   23  C   UNK N   1      26.422  27.349  -6.388  0.00  0.00     0.007 A 
ENDBRANCH  20  21
ENDBRANCH  19  20
ENDBRANCH   2  19
TORSDOF 5
ENDMDL
MODEL 3
REMARK VINA RESULT:      -6.2      1.370      3.950
REMARK  5 active torsions:
REMARK  status: ('A' for Active; 'I' for Inactive)
REMARK    1  A    between atoms: C_1  and  C_8 
REMARK    2  A    between atoms: C_2  and  S_7 
REMARK    3  A    between atoms: C_9  and  O_13 
REMARK    4  A    between atoms: O_13  and  C_18 
REMARK    5  A    between atoms: C_18  and  C_14 
ROOT
HETATM    1  C   UNK N   1      30.512  17.288   7.997  0.00  0.00     0.026 A 
HETATM    2  C   UNK N   1      30.124  17.273   6.727  0.00  0.00     0.154 A 
HETATM    3  C   UNK N   1      28.840  17.906   6.669  0.00  0.00     0.318 A 
HETATM    4  O   UNK N   1      28.460  18.295   7.897  0.00  0.00    -0.300 OA
HETATM    5  C   UNK N   1      29.431  17.955   8.842  0.00  0.00     0.094 A 
HETATM    6  O   UNK N   1      28.186  18.112   5.656  0.00  0.00    -0.257 OA
HETATM    7  C   UNK N   1      28.852  16.988   9.858  0.00  0.00     0.052 C 
HETATM    8  C   UNK N   1      29.950  19.202   9.535  0.00  0.00     0.052 C 
ENDROOT
BRANCH   1   9
HETATM    9  C   UNK N   1      31.815  16.717   8.465  0.00  0.00    -0.024 A 
HETATM   10  C   UNK N   1      32.948  17.540   8.524  0.00  0.00     0.013 A 
HETATM   11  C   UNK N   1      34.163  17.070   8.994  0.00  0.00     0.024 A 
HETATM   12  C   UNK N   1      34.275  15.754   9.421  0.00  0.00     0.058 A 
HETATM   13  C   UNK N   1      33.163  14.900   9.356  0.00  0.00     0.024 A 
HETATM   14  C   UNK N   1      31.933  15.379   8.874  0.00  0.00     0.013 A 
BRANCH  12  15
HETATM   15  S   UNK N   1      35.832  15.206  10.100  0.00  0.00     0.171 S 
HETATM   16  C   UNK N   1      37.069  14.170   9.276  0.00  0.00     0.167 C 
HETATM   17  O   UNK N   1      36.545  16.432  10.694  0.00  0.00    -0.223 OA
HETATM   18  O   UNK N   1      35.480  14.487  11.412  0.00  0.00    -0.223 OA
ENDBRANCH  12  15
ENDBRANCH   1   9
BRANCH   2  19
HETATM   19  O   UNK N   1      30.869  16.747   5.736  0.00  0.00    -0.344 OA
BRANCH  19  20
HETATM   20  C   UNK N   1      31.451  17.414   4.693  0.00  0.00     0.180 C 
BRANCH  20  21
HETATM   21  C   UNK N   1      32.957  17.158   4.769  0.00  0.00     0.010 A 
HETATM   22  C   UNK N   1      33.401  16.154   3.706  0.00  0.00     0.007 A 
HETATM   23  C   UNK N   1      33.193  15.705   5.130  0.00  0.00     0.007 A 
ENDBRANCH  20  21
ENDBRANCH  19  20
ENDBRANCH   2  19
TORSDOF 5
ENDMDL
MODEL 4
REMARK VINA RESULT:      -6.0     13.403     16.118
REMARK  5 active torsions:
REMARK  status: ('A' for Active; 'I' for Inactive)
REMARK    1  A    between atoms: C_1  and  C_8 
REMARK    2  A    between atoms: C_2  and  S_7 
REMARK    3  A    between atoms: C_9  and  O_13 
REMARK    4  A    between atoms: O_13  and  C_18 
REMARK    5  A    between atoms: C_18  and  C_14 
ROOT
HETATM    1  C   UNK N   1      26.379  23.206  -7.456  0.00  0.00     0.026 A 
HETATM    2  C   UNK N   1      26.195  24.271  -8.228  0.00  0.00     0.154 A 
HETATM    3  C   UNK N   1      25.198  23.925  -9.197  0.00  0.00     0.318 A 
HETATM    4  O   UNK N   1      24.789  22.660  -9.007  0.00  0.00    -0.300 OA
HETATM    5  C   UNK N   1      25.467  22.080  -7.932  0.00  0.00     0.094 A 
HETATM    6  O   UNK N   1      24.740  24.668 -10.054  0.00  0.00    -0.257 OA
HETATM    7  C   UNK N   1      26.272  20.885  -8.409  0.00  0.00     0.052 C 
HETATM    8  C   UNK N   1      24.483  21.659  -6.856  0.00  0.00     0.052 C 
ENDROOT
BRANCH   1   9
HETATM    9  C   UNK N   1      27.348  23.177  -6.315  0.00  0.00    -0.024 A 
HETATM   10  C   UNK N   1      28.600  22.570  -6.488  0.00  0.00     0.013 A 
HETATM   11  C   UNK N   1      29.546  22.559  -5.477  0.00  0.00     0.024 A 
HETATM   12  C   UNK N   1      29.262  23.160  -4.258  0.00  0.00     0.058 A 
HETATM   13  C   UNK N   1      28.010  23.759  -4.049  0.00  0.00     0.024 A 
HETATM   14  C   UNK N   1      27.050  23.764  -5.075  0.00  0.00     0.013 A 
BRANCH  12  15
HETATM   15  S   UNK N   1      30.537  23.202  -3.009  0.00  0.00     0.171 S 
HETATM   16  C   UNK N   1      31.941  22.068  -2.856  0.00  0.00     0.167 C 
HETATM   17  O   UNK N   1      31.065  24.642  -2.922  0.00  0.00    -0.223 OA
HETATM   18  O   UNK N   1      29.797  23.147  -1.663  0.00  0.00    -0.223 OA
ENDBRANCH  12  15
ENDBRANCH   1   9
BRANCH   2  19
HETATM   19  O   UNK N   1      26.861  25.430  -8.056  0.00  0.00    -0.344 OA
BRANCH  19  20
HETATM   20  C   UNK N   1      26.352  26.619  -7.610  0.00  0.00     0.180 C 
BRANCH  20  21
HETATM   21  C   UNK N   1      27.145  27.017  -6.364  0.00  0.00     0.010 A 
HETATM   22  C   UNK N   1      26.375  28.035  -5.522  0.00  0.00     0.007 A 
HETATM   23  C   UNK N   1      27.477  28.495  -6.443  0.00  0.00     0.007 A 
ENDBRANCH  20  21
ENDBRANCH  19  20
ENDBRANCH   2  19
TORSDOF 5
ENDMDL
MODEL 5
REMARK VINA RESULT:      -6.0     13.251     16.624
REMARK  5 active torsions:
REMARK  status: ('A' for Active; 'I' for Inactive)
REMARK    1  A    between atoms: C_1  and  C_8 
REMARK    2  A    between atoms: C_2  and  S_7 
REMARK    3  A    between atoms: C_9  and  O_13 
REMARK    4  A    between atoms: O_13  and  C_18 
REMARK    5  A    between atoms: C_18  and  C_14 
ROOT
HETATM    1  C   UNK N   1      28.029  26.843  -4.534  0.00  0.00     0.026 A 
HETATM    2  C   UNK N   1      29.291  26.746  -4.131  0.00  0.00     0.154 A 
HETATM    3  C   UNK N   1      29.628  27.983  -3.492  0.00  0.00     0.318 A 
HETATM    4  O   UNK N   1      28.575  28.816  -3.513  0.00  0.00    -0.300 OA
HETATM    5  C   UNK N   1      27.488  28.218  -4.156  0.00  0.00     0.094 A 
HETATM    6  O   UNK N   1      30.696  28.249  -2.960  0.00  0.00    -0.257 OA
HETATM    7  C   UNK N   1      27.109  29.018  -5.389  0.00  0.00     0.052 C 
HETATM    8  C   UNK N   1      26.307  28.117  -3.207  0.00  0.00     0.052 C 
ENDROOT
BRANCH   1   9
HETATM    9  C   UNK N   1      27.307  25.742  -5.247  0.00  0.00    -0.024 A 
HETATM   10  C   UNK N   1      27.416  25.633  -6.641  0.00  0.00     0.013 A 
HETATM   11  C   UNK N   1      26.805  24.605  -7.338  0.00  0.00     0.024 A 
HETATM   12  C   UNK N   1      26.064  23.651  -6.654  0.00  0.00     0.058 A 
HETATM   13  C   UNK N   1      25.922  23.743  -5.260  0.00  0.00     0.024 A 
HETATM   14  C   UNK N   1      26.538  24.791  -4.556  0.00  0.00     0.013 A 
BRANCH  12  15
HETATM   15  S   UNK N   1      25.363  22.292  -7.575  0.00  0.00     0.171 S 
HETATM   16  C   UNK N   1      26.272  20.980  -8.430  0.00  0.00     0.167 C 
HETATM   17  O   UNK N   1      24.278  21.641  -6.702  0.00  0.00    -0.223 OA
HETATM   18  O   UNK N   1      24.451  22.937  -8.631  0.00  0.00    -0.223 OA
ENDBRANCH  12  15
ENDBRANCH   1   9
BRANCH   2  19
HETATM   19  O   UNK N   1      30.042  25.644  -4.323  0.00  0.00    -0.344 OA
BRANCH  19  20
HETATM   20  C   UNK N   1      30.533  24.800  -3.365  0.00  0.00     0.180 C 
BRANCH  20  21
HETATM   21  C   UNK N   1      29.771  23.479  -3.483  0.00  0.00     0.010 A 
HETATM   22  C   UNK N   1      29.203  23.046  -2.132  0.00  0.00     0.007 A 
HETATM   23  C   UNK N   1      30.476  22.427  -2.650  0.00  0.00     0.007 A 
ENDBRANCH  20  21
ENDBRANCH  19  20
ENDBRANCH   2  19
TORSDOF 5
ENDMDL
MODEL 6
REMARK VINA RESULT:      -6.0      1.317      3.631
REMARK  5 active torsions:
REMARK  status: ('A' for Active; 'I' for Inactive)
REMARK    1  A    between atoms: C_1  and  C_8 
REMARK    2  A    between atoms: C_2  and  S_7 
REMARK    3  A    between atoms: C_9  and  O_13 
REMARK    4  A    between atoms: O_13  and  C_18 
REMARK    5  A    between atoms: C_18  and  C_14 
ROOT
HETATM    1  C   UNK N   1      29.608  17.584   6.631  0.00  0.00     0.026 A 
HETATM    2  C   UNK N   1      29.611  17.793   5.319  0.00  0.00     0.154 A 
HETATM    3  C   UNK N   1      28.271  18.130   4.941  0.00  0.00     0.318 A 
HETATM    4  O   UNK N   1      27.470  18.120   6.018  0.00  0.00    -0.300 OA
HETATM    5  C   UNK N   1      28.193  17.780   7.164  0.00  0.00     0.094 A 
HETATM    6  O   UNK N   1      27.896  18.429   3.815  0.00  0.00    -0.257 OA
HETATM    7  C   UNK N   1      27.647  16.495   7.760  0.00  0.00     0.052 C 
HETATM    8  C   UNK N   1      28.126  18.904   8.182  0.00  0.00     0.052 C 
ENDROOT
BRANCH   1   9
HETATM    9  C   UNK N   1      30.834  17.211   7.406  0.00  0.00    -0.024 A 
HETATM   10  C   UNK N   1      31.182  15.859   7.540  0.00  0.00     0.013 A 
HETATM   11  C   UNK N   1      32.330  15.468   8.208  0.00  0.00     0.024 A 
HETATM   12  C   UNK N   1      33.166  16.427   8.762  0.00  0.00     0.058 A 
HETATM   13  C   UNK N   1      32.835  17.788   8.660  0.00  0.00     0.024 A 
HETATM   14  C   UNK N   1      31.666  18.181   7.987  0.00  0.00     0.013 A 
BRANCH  12  15
HETATM   15  S   UNK N   1      34.681  15.893   9.540  0.00  0.00     0.171 S 
HETATM   16  C   UNK N   1      35.903  14.743   8.856  0.00  0.00     0.167 C 
HETATM   17  O   UNK N   1      35.421  17.143  10.042  0.00  0.00    -0.223 OA
HETATM   18  O   UNK N   1      34.264  15.311  10.900  0.00  0.00    -0.223 OA
ENDBRANCH  12  15
ENDBRANCH   1   9
BRANCH   2  19
HETATM   19  O   UNK N   1      30.721  17.694   4.560  0.00  0.00    -0.344 OA
BRANCH  19  20
HETATM   20  C   UNK N   1      31.172  16.589   3.894  0.00  0.00     0.180 C 
BRANCH  20  21
HETATM   21  C   UNK N   1      32.660  16.802   3.608  0.00  0.00     0.010 A 
HETATM   22  C   UNK N   1      33.529  16.051   4.617  0.00  0.00     0.007 A 
HETATM   23  C   UNK N   1      33.287  17.530   4.781  0.00  0.00     0.007 A 
ENDBRANCH  20  21
ENDBRANCH  19  20
ENDBRANCH   2  19
TORSDOF 5
ENDMDL
MODEL 7
REMARK VINA RESULT:      -6.0      2.584      3.633
REMARK  5 active torsions:
REMARK  status: ('A' for Active; 'I' for Inactive)
REMARK    1  A    between atoms: C_1  and  C_8 
REMARK    2  A    between atoms: C_2  and  S_7 
REMARK    3  A    between atoms: C_9  and  O_13 
REMARK    4  A    between atoms: O_13  and  C_18 
REMARK    5  A    between atoms: C_18  and  C_14 
ROOT
HETATM    1  C   UNK N   1      28.712  16.710   4.363  0.00  0.00     0.026 A 
HETATM    2  C   UNK N   1      27.802  17.677   4.384  0.00  0.00     0.154 A 
HETATM    3  C   UNK N   1      26.664  17.206   3.652  0.00  0.00     0.318 A 
HETATM    4  O   UNK N   1      26.892  15.965   3.193  0.00  0.00    -0.300 OA
HETATM    5  C   UNK N   1      28.165  15.528   3.568  0.00  0.00     0.094 A 
HETATM    6  O   UNK N   1      25.613  17.810   3.491  0.00  0.00    -0.257 OA
HETATM    7  C   UNK N   1      29.007  15.259   2.334  0.00  0.00     0.052 C 
HETATM    8  C   UNK N   1      28.062  14.276   4.420  0.00  0.00     0.052 C 
ENDROOT
BRANCH   1   9
HETATM    9  C   UNK N   1      30.048  16.823   5.029  0.00  0.00    -0.024 A 
HETATM   10  C   UNK N   1      30.188  16.431   6.368  0.00  0.00     0.013 A 
HETATM   11  C   UNK N   1      31.413  16.474   7.012  0.00  0.00     0.024 A 
HETATM   12  C   UNK N   1      32.538  16.912   6.327  0.00  0.00     0.058 A 
HETATM   13  C   UNK N   1      32.426  17.329   4.991  0.00  0.00     0.024 A 
HETATM   14  C   UNK N   1      31.180  17.290   4.343  0.00  0.00     0.013 A 
BRANCH  12  15
HETATM   15  S   UNK N   1      34.115  16.873   7.162  0.00  0.00     0.171 S 
HETATM   16  C   UNK N   1      34.445  16.232   8.824  0.00  0.00     0.167 C 
HETATM   17  O   UNK N   1      35.145  16.267   6.196  0.00  0.00    -0.223 OA
HETATM   18  O   UNK N   1      34.621  18.324   7.157  0.00  0.00    -0.223 OA
ENDBRANCH  12  15
ENDBRANCH   1   9
BRANCH   2  19
HETATM   19  O   UNK N   1      27.994  18.854   5.012  0.00  0.00    -0.344 OA
BRANCH  19  20
HETATM   20  C   UNK N   1      27.772  20.107   4.510  0.00  0.00     0.180 C 
BRANCH  20  21
HETATM   21  C   UNK N   1      26.685  20.758   5.366  0.00  0.00     0.010 A 
HETATM   22  C   UNK N   1      27.264  21.863   6.248  0.00  0.00     0.007 A 
HETATM   23  C   UNK N   1      26.988  20.500   6.828  0.00  0.00     0.007 A 
ENDBRANCH  20  21
ENDBRANCH  19  20
ENDBRANCH   2  19
TORSDOF 5
ENDMDL
MODEL 8
REMARK VINA RESULT:      -5.9      7.451     10.408
REMARK  5 active torsions:
REMARK  status: ('A' for Active; 'I' for Inactive)
REMARK    1  A    between atoms: C_1  and  C_8 
REMARK    2  A    between atoms: C_2  and  S_7 
REMARK    3  A    between atoms: C_9  and  O_13 
REMARK    4  A    between atoms: O_13  and  C_18 
REMARK    5  A    between atoms: C_18  and  C_14 
ROOT
HETATM    1  C   UNK N   1      22.445  18.906   3.747  0.00  0.00     0.026 A 
HETATM    2  C   UNK N   1      23.675  19.383   3.591  0.00  0.00     0.154 A 
HETATM    3  C   UNK N   1      23.598  20.451   2.639  0.00  0.00     0.318 A 
HETATM    4  O   UNK N   1      22.331  20.610   2.225  0.00  0.00    -0.300 OA
HETATM    5  C   UNK N   1      21.491  19.683   2.846  0.00  0.00     0.094 A 
HETATM    6  O   UNK N   1      24.528  21.156   2.273  0.00  0.00    -0.257 OA
HETATM    7  C   UNK N   1      20.855  18.778   1.807  0.00  0.00     0.052 C 
HETATM    8  C   UNK N   1      20.419  20.400   3.648  0.00  0.00     0.052 C 
ENDROOT
BRANCH   1   9
HETATM    9  C   UNK N   1      22.113  17.776   4.671  0.00  0.00    -0.024 A 
HETATM   10  C   UNK N   1      21.686  18.055   5.978  0.00  0.00     0.013 A 
HETATM   11  C   UNK N   1      21.324  17.045   6.853  0.00  0.00     0.024 A 
HETATM   12  C   UNK N   1      21.379  15.721   6.441  0.00  0.00     0.058 A 
HETATM   13  C   UNK N   1      21.820  15.409   5.145  0.00  0.00     0.024 A 
HETATM   14  C   UNK N   1      22.192  16.436   4.261  0.00  0.00     0.013 A 
BRANCH  12  15
HETATM   15  S   UNK N   1      20.823  14.452   7.567  0.00  0.00     0.171 S 
HETATM   16  C   UNK N   1      21.853  13.471   8.688  0.00  0.00     0.167 C 
HETATM   17  O   UNK N   1      19.639  15.018   8.367  0.00  0.00    -0.223 OA
HETATM   18  O   UNK N   1      20.053  13.441   6.702  0.00  0.00    -0.223 OA
ENDBRANCH  12  15
ENDBRANCH   1   9
BRANCH   2  19
HETATM   19  O   UNK N   1      24.742  18.899   4.256  0.00  0.00    -0.344 OA
BRANCH  19  20
HETATM   20  C   UNK N   1      25.391  19.474   5.314  0.00  0.00     0.180 C 
BRANCH  20  21
HETATM   21  C   UNK N   1      26.683  20.092   4.777  0.00  0.00     0.010 A 
HETATM   22  C   UNK N   1      27.827  19.936   5.780  0.00  0.00     0.007 A 
HETATM   23  C   UNK N   1      27.087  21.246   5.674  0.00  0.00     0.007 A 
ENDBRANCH  20  21
ENDBRANCH  19  20
ENDBRANCH   2  19
TORSDOF 5
ENDMDL
MODEL 9
REMARK VINA RESULT:      -5.9      3.284      6.000
REMARK  5 active torsions:
REMARK  status: ('A' for Active; 'I' for Inactive)
REMARK    1  A    between atoms: C_1  and  C_8 
REMARK    2  A    between atoms: C_2  and  S_7 
REMARK    3  A    between atoms: C_9  and  O_13 
REMARK    4  A    between atoms: O_13  and  C_18 
REMARK    5  A    between atoms: C_18  and  C_14 
ROOT
HETATM    1  C   UNK N   1      31.921  16.911   5.660  0.00  0.00     0.026 A 
HETATM    2  C   UNK N   1      32.427  17.524   6.724  0.00  0.00     0.154 A 
HETATM    3  C   UNK N   1      33.854  17.458   6.614  0.00  0.00     0.318 A 
HETATM    4  O   UNK N   1      34.200  16.807   5.492  0.00  0.00    -0.300 OA
HETATM    5  C   UNK N   1      33.064  16.396   4.791  0.00  0.00     0.094 A 
HETATM    6  O   UNK N   1      34.658  17.950   7.392  0.00  0.00    -0.257 OA
HETATM    7  C   UNK N   1      33.036  14.881   4.688  0.00  0.00     0.052 C 
HETATM    8  C   UNK N   1      33.044  17.020   3.408  0.00  0.00     0.052 C 
ENDROOT
BRANCH   1   9
HETATM    9  C   UNK N   1      30.451  16.775   5.412  0.00  0.00    -0.024 A 
HETATM   10  C   UNK N   1      29.774  15.638   5.876  0.00  0.00     0.013 A 
HETATM   11  C   UNK N   1      28.407  15.490   5.711  0.00  0.00     0.024 A 
HETATM   12  C   UNK N   1      27.677  16.483   5.073  0.00  0.00     0.058 A 
HETATM   13  C   UNK N   1      28.329  17.624   4.580  0.00  0.00     0.024 A 
HETATM   14  C   UNK N   1      29.717  17.769   4.745  0.00  0.00     0.013 A 
BRANCH  12  15
HETATM   15  S   UNK N   1      25.906  16.298   4.954  0.00  0.00     0.171 S 
HETATM   16  C   UNK N   1      24.991  15.449   3.641  0.00  0.00     0.167 C 
HETATM   17  O   UNK N   1      25.393  15.788   6.310  0.00  0.00    -0.223 OA
HETATM   18  O   UNK N   1      25.337  17.724   5.016  0.00  0.00    -0.223 OA
ENDBRANCH  12  15
ENDBRANCH   1   9
BRANCH   2  19
HETATM   19  O   UNK N   1      31.663  18.087   7.682  0.00  0.00    -0.344 OA
BRANCH  19  20
HETATM   20  C   UNK N   1      31.081  17.464   8.750  0.00  0.00     0.180 C 
BRANCH  20  21
HETATM   21  C   UNK N   1      29.997  18.398   9.291  0.00  0.00     0.010 A 
HETATM   22  C   UNK N   1      28.642  17.693   9.355  0.00  0.00     0.007 A 
HETATM   23  C   UNK N   1      28.957  18.623   8.211  0.00  0.00     0.007 A 
ENDBRANCH  20  21
ENDBRANCH  19  20
ENDBRANCH   2  19
TORSDOF 5
ENDMDL
