REMARK  5 active torsions:
REMARK  status: ('A' for Active; 'I' for Inactive)
REMARK    1  A    between atoms: C_1  and  C_8 
REMARK    2  A    between atoms: C_2  and  S_7 
REMARK    3  A    between atoms: C_9  and  O_13 
REMARK    4  A    between atoms: O_13  and  C_18 
REMARK    5  A    between atoms: C_18  and  C_14 
ROOT
HETATM    1  C   UNK N   1       0.285  -1.781  -0.157  0.00  0.00     0.026 A 
HETATM    2  C   UNK N   1       1.611  -1.718  -0.197  0.00  0.00     0.154 A 
HETATM    3  C   UNK N   1       2.096  -3.061  -0.314  0.00  0.00     0.318 A 
HETATM    4  O   UNK N   1       1.067  -3.923  -0.341  0.00  0.00    -0.300 OA
HETATM    5  C   UNK N   1      -0.148  -3.241  -0.241  0.00  0.00     0.094 A 
HETATM    6  O   UNK N   1       3.268  -3.395  -0.418  0.00  0.00    -0.257 OA
HETATM    7  C   UNK N   1      -0.883  -3.670   1.016  0.00  0.00     0.052 C 
HETATM    8  C   UNK N   1      -1.002  -3.505  -1.468  0.00  0.00     0.052 C 
ENDROOT
BRANCH   1   9
HETATM    9  C   UNK N   1      -0.592  -0.573  -0.041  0.00  0.00    -0.024 A 
HETATM   10  C   UNK N   1      -0.008   0.692   0.119  0.00  0.00     0.013 A 
HETATM   11  C   UNK N   1      -0.776   1.842   0.184  0.00  0.00     0.024 A 
HETATM   12  C   UNK N   1      -2.158   1.756   0.089  0.00  0.00     0.058 A 
HETATM   13  C   UNK N   1      -2.773   0.502  -0.053  0.00  0.00     0.024 A 
HETATM   14  C   UNK N   1      -1.991  -0.664  -0.113  0.00  0.00     0.013 A 
BRANCH  12  15
HETATM   15  S   UNK N   1      -3.110   3.266   0.090  0.00  0.00     0.171 S 
HETATM   16  C   UNK N   1      -4.873   3.435  -0.290  0.00  0.00     0.167 C 
HETATM   17  O   UNK N   1      -2.826   4.002   1.409  0.00  0.00    -0.223 OA
HETATM   18  O   UNK N   1      -2.375   4.218  -0.867  0.00  0.00    -0.223 OA
ENDBRANCH  12  15
ENDBRANCH   1   9
BRANCH   2  19
HETATM   19  O   UNK N   1       2.295  -0.558  -0.142  0.00  0.00    -0.344 OA
BRANCH  19  20
HETATM   20  C   UNK N   1       3.617  -0.390   0.165  0.00  0.00     0.180 C 
BRANCH  20  21
HETATM   21  C   UNK N   1       3.764   0.984   0.821  0.00  0.00     0.010 A 
HETATM   22  C   UNK N   1       3.042   2.062   0.013  0.00  0.00     0.007 A 
HETATM   23  C   UNK N   1       4.535   1.896  -0.113  0.00  0.00     0.007 A 
ENDBRANCH  20  21
ENDBRANCH  19  20
ENDBRANCH   2  19
TORSDOF 5
