MODEL 1
REMARK VINA RESULT:      -6.7      0.000      0.000
REMARK  5 active torsions:
REMARK  status: ('A' for Active; 'I' for Inactive)
REMARK    1  A    between atoms: C_13  and  C_8 
REMARK    2  A    between atoms: C_14  and  C_8 
REMARK    3  A    between atoms: C_19  and  C_13 
REMARK    4  A    between atoms: N_20  and  C_14 
REMARK    5  A    between atoms: N_21  and  C_15 
ROOT
HETATM    1  C   UNK N   1      37.205  13.455  11.515  0.00  0.00     0.031 C 
HETATM    2  C   UNK N   1      33.889  10.494  11.134  0.00  0.00     0.001 A 
HETATM    3  C   UNK N   1      33.692   9.936  12.412  0.00  0.00     0.002 A 
HETATM    4  C   UNK N   1      34.588  11.704  10.989  0.00  0.00     0.011 A 
HETATM    5  C   UNK N   1      34.189  10.586  13.552  0.00  0.00     0.031 A 
HETATM    6  C   UNK N   1      35.076  12.335  12.137  0.00  0.00    -0.013 A 
HETATM    7  C   UNK N   1      34.881  11.789  13.384  0.00  0.00     0.050 A 
HETATM    8  C   UNK N   1      36.044  13.654  13.743  0.00  0.00     0.242 A 
HETATM    9  C   UNK N   1      35.870  13.618  12.230  0.00  0.00     0.067 A 
HETATM   10  N   UNK N   1      35.465  12.598  14.371  0.00  0.00    -0.281 N 
HETATM   11  O   UNK N   1      36.657  14.531  14.332  0.00  0.00    -0.271 OA
ENDROOT
BRANCH   9  12
HETATM   12  C   UNK N   1      35.074  14.817  11.692  0.00  0.00     0.025 C 
BRANCH  12  13
HETATM   13  C   UNK N   1      35.919  15.780  10.857  0.00  0.00     0.021 C 
BRANCH  13  14
HETATM   14  C   UNK N   1      35.248  16.126   9.540  0.00  0.00     0.113 C 
BRANCH  14  15
HETATM   15  N   UNK N   1      34.280  17.187   9.762  0.00  0.00    -0.425 N 
HETATM   16  C   UNK N   1      34.059  17.842   8.487  0.00  0.00     0.139 C 
HETATM   17  H   UNK N   1      33.837  17.425  10.649  0.00  0.00     0.152 HD
ENDBRANCH  14  15
ENDBRANCH  13  14
ENDBRANCH  12  13
ENDBRANCH   9  12
BRANCH  10  18
HETATM   18  C   UNK N   1      35.460  12.357  15.790  0.00  0.00     0.042 A 
HETATM   19  C   UNK N   1      35.980  11.161  16.319  0.00  0.00     0.030 A 
HETATM   20  C   UNK N   1      35.984  10.928  17.695  0.00  0.00     0.002 A 
HETATM   21  C   UNK N   1      35.460  11.885  18.566  0.00  0.00     0.000 A 
HETATM   22  C   UNK N   1      34.937  13.076  18.060  0.00  0.00     0.002 A 
HETATM   23  C   UNK N   1      34.941  13.311  16.681  0.00  0.00     0.030 A 
ENDBRANCH  10  18
TORSDOF 5
ENDMDL
MODEL 2
REMARK VINA RESULT:      -6.7      2.110      2.703
REMARK  5 active torsions:
REMARK  status: ('A' for Active; 'I' for Inactive)
REMARK    1  A    between atoms: C_13  and  C_8 
REMARK    2  A    between atoms: C_14  and  C_8 
REMARK    3  A    between atoms: C_19  and  C_13 
REMARK    4  A    between atoms: N_20  and  C_14 
REMARK    5  A    between atoms: N_21  and  C_15 
ROOT
HETATM    1  C   UNK N   1      37.560  13.583  10.704  0.00  0.00     0.031 C 
HETATM    2  C   UNK N   1      38.010   9.618  12.700  0.00  0.00     0.001 A 
HETATM    3  C   UNK N   1      38.054   9.861  14.086  0.00  0.00     0.002 A 
HETATM    4  C   UNK N   1      37.506  10.593  11.824  0.00  0.00     0.011 A 
HETATM    5  C   UNK N   1      37.591  11.080  14.605  0.00  0.00     0.031 A 
HETATM    6  C   UNK N   1      37.051  11.802  12.360  0.00  0.00    -0.013 A 
HETATM    7  C   UNK N   1      37.094  12.037  13.715  0.00  0.00     0.050 A 
HETATM    8  C   UNK N   1      36.241  13.894  12.829  0.00  0.00     0.242 A 
HETATM    9  C   UNK N   1      36.495  12.998  11.623  0.00  0.00     0.067 A 
HETATM   10  N   UNK N   1      36.590  13.314  14.006  0.00  0.00    -0.281 N 
HETATM   11  O   UNK N   1      35.788  15.026  12.747  0.00  0.00    -0.271 OA
ENDROOT
BRANCH   9  12
HETATM   12  C   UNK N   1      35.209  12.646  10.860  0.00  0.00     0.025 C 
BRANCH  12  13
HETATM   13  C   UNK N   1      35.008  13.478   9.592  0.00  0.00     0.021 C 
BRANCH  13  14
HETATM   14  C   UNK N   1      33.738  14.307   9.654  0.00  0.00     0.113 C 
BRANCH  14  15
HETATM   15  N   UNK N   1      33.975  15.481  10.475  0.00  0.00    -0.425 N 
HETATM   16  C   UNK N   1      34.818  16.380   9.710  0.00  0.00     0.139 C 
HETATM   17  H   UNK N   1      33.614  15.644  11.416  0.00  0.00     0.152 HD
ENDBRANCH  14  15
ENDBRANCH  13  14
ENDBRANCH  12  13
ENDBRANCH   9  12
BRANCH  10  18
HETATM   18  C   UNK N   1      36.468  13.908  15.312  0.00  0.00     0.042 A 
HETATM   19  C   UNK N   1      35.559  13.394  16.255  0.00  0.00     0.030 A 
HETATM   20  C   UNK N   1      35.446  13.963  17.525  0.00  0.00     0.002 A 
HETATM   21  C   UNK N   1      36.235  15.062  17.870  0.00  0.00     0.000 A 
HETATM   22  C   UNK N   1      37.140  15.587  16.946  0.00  0.00     0.002 A 
HETATM   23  C   UNK N   1      37.258  15.011  15.677  0.00  0.00     0.030 A 
ENDBRANCH  10  18
TORSDOF 5
ENDMDL
MODEL 3
REMARK VINA RESULT:      -6.7      9.042     12.134
REMARK  5 active torsions:
REMARK  status: ('A' for Active; 'I' for Inactive)
REMARK    1  A    between atoms: C_13  and  C_8 
REMARK    2  A    between atoms: C_14  and  C_8 
REMARK    3  A    between atoms: C_19  and  C_13 
REMARK    4  A    between atoms: N_20  and  C_14 
REMARK    5  A    between atoms: N_21  and  C_15 
ROOT
HETATM    1  C   UNK N   1      32.134  17.247   5.742  0.00  0.00     0.031 C 
HETATM    2  C   UNK N   1      29.726  17.781   9.459  0.00  0.00     0.001 A 
HETATM    3  C   UNK N   1      28.564  18.489   9.095  0.00  0.00     0.002 A 
HETATM    4  C   UNK N   1      30.498  17.133   8.481  0.00  0.00     0.011 A 
HETATM    5  C   UNK N   1      28.166  18.551   7.750  0.00  0.00     0.031 A 
HETATM    6  C   UNK N   1      30.086  17.208   7.147  0.00  0.00    -0.013 A 
HETATM    7  C   UNK N   1      28.950  17.899   6.793  0.00  0.00     0.050 A 
HETATM    8  C   UNK N   1      29.770  17.111   4.879  0.00  0.00     0.242 A 
HETATM    9  C   UNK N   1      30.759  16.619   5.928  0.00  0.00     0.067 A 
HETATM   10  N   UNK N   1      28.749  17.835   5.406  0.00  0.00    -0.281 N 
HETATM   11  O   UNK N   1      29.892  16.895   3.682  0.00  0.00    -0.271 OA
ENDROOT
BRANCH   9  12
HETATM   12  C   UNK N   1      30.833  15.087   6.007  0.00  0.00     0.025 C 
BRANCH  12  13
HETATM   13  C   UNK N   1      32.102  14.508   5.379  0.00  0.00     0.021 C 
BRANCH  13  14
HETATM   14  C   UNK N   1      31.822  13.854   4.039  0.00  0.00     0.113 C 
BRANCH  14  15
HETATM   15  N   UNK N   1      32.027  14.828   2.981  0.00  0.00    -0.425 N 
HETATM   16  C   UNK N   1      33.445  15.129   2.941  0.00  0.00     0.139 C 
HETATM   17  H   UNK N   1      31.307  15.227   2.377  0.00  0.00     0.152 HD
ENDBRANCH  14  15
ENDBRANCH  13  14
ENDBRANCH  12  13
ENDBRANCH   9  12
BRANCH  10  18
HETATM   18  C   UNK N   1      27.664  18.429   4.669  0.00  0.00     0.042 A 
HETATM   19  C   UNK N   1      27.705  19.785   4.297  0.00  0.00     0.030 A 
HETATM   20  C   UNK N   1      26.657  20.361   3.575  0.00  0.00     0.002 A 
HETATM   21  C   UNK N   1      25.548  19.592   3.220  0.00  0.00     0.000 A 
HETATM   22  C   UNK N   1      25.490  18.245   3.584  0.00  0.00     0.002 A 
HETATM   23  C   UNK N   1      26.543  17.668   4.300  0.00  0.00     0.030 A 
ENDBRANCH  10  18
TORSDOF 5
ENDMDL
MODEL 4
REMARK VINA RESULT:      -6.6      2.667      3.877
REMARK  5 active torsions:
REMARK  status: ('A' for Active; 'I' for Inactive)
REMARK    1  A    between atoms: C_13  and  C_8 
REMARK    2  A    between atoms: C_14  and  C_8 
REMARK    3  A    between atoms: C_19  and  C_13 
REMARK    4  A    between atoms: N_20  and  C_14 
REMARK    5  A    between atoms: N_21  and  C_15 
ROOT
HETATM    1  C   UNK N   1      37.067  14.000  15.346  0.00  0.00     0.031 C 
HETATM    2  C   UNK N   1      38.551   9.945  14.222  0.00  0.00     0.001 A 
HETATM    3  C   UNK N   1      38.249   9.087  15.297  0.00  0.00     0.002 A 
HETATM    4  C   UNK N   1      37.897  11.182  14.096  0.00  0.00     0.011 A 
HETATM    5  C   UNK N   1      37.289   9.459  16.251  0.00  0.00     0.031 A 
HETATM    6  C   UNK N   1      36.945  11.535  15.057  0.00  0.00    -0.013 A 
HETATM    7  C   UNK N   1      36.650  10.695  16.105  0.00  0.00     0.050 A 
HETATM    8  C   UNK N   1      35.360  12.484  16.414  0.00  0.00     0.242 A 
HETATM    9  C   UNK N   1      36.137  12.809  15.145  0.00  0.00     0.067 A 
HETATM   10  N   UNK N   1      35.674  11.269  16.934  0.00  0.00    -0.281 N 
HETATM   11  O   UNK N   1      34.551  13.243  16.924  0.00  0.00    -0.271 OA
ENDROOT
BRANCH   9  12
HETATM   12  C   UNK N   1      35.230  12.991  13.919  0.00  0.00     0.025 C 
BRANCH  12  13
HETATM   13  C   UNK N   1      35.693  14.108  12.982  0.00  0.00     0.021 C 
BRANCH  13  14
HETATM   14  C   UNK N   1      36.119  13.571  11.628  0.00  0.00     0.113 C 
BRANCH  14  15
HETATM   15  N   UNK N   1      37.568  13.619  11.531  0.00  0.00    -0.425 N 
HETATM   16  C   UNK N   1      37.903  13.714  10.123  0.00  0.00     0.139 C 
HETATM   17  H   UNK N   1      38.228  13.591  12.309  0.00  0.00     0.152 HD
ENDBRANCH  14  15
ENDBRANCH  13  14
ENDBRANCH  12  13
ENDBRANCH   9  12
BRANCH  10  18
HETATM   18  C   UNK N   1      35.108  10.685  18.122  0.00  0.00     0.042 A 
HETATM   19  C   UNK N   1      34.267   9.559  18.040  0.00  0.00     0.030 A 
HETATM   20  C   UNK N   1      33.724   8.986  19.192  0.00  0.00     0.002 A 
HETATM   21  C   UNK N   1      34.008   9.533  20.444  0.00  0.00     0.000 A 
HETATM   22  C   UNK N   1      34.838  10.651  20.544  0.00  0.00     0.002 A 
HETATM   23  C   UNK N   1      35.387  11.220  19.390  0.00  0.00     0.030 A 
ENDBRANCH  10  18
TORSDOF 5
ENDMDL
MODEL 5
REMARK VINA RESULT:      -6.5      6.600     11.866
REMARK  5 active torsions:
REMARK  status: ('A' for Active; 'I' for Inactive)
REMARK    1  A    between atoms: C_13  and  C_8 
REMARK    2  A    between atoms: C_14  and  C_8 
REMARK    3  A    between atoms: C_19  and  C_13 
REMARK    4  A    between atoms: N_20  and  C_14 
REMARK    5  A    between atoms: N_21  and  C_15 
ROOT
HETATM    1  C   UNK N   1      32.209  17.296   5.727  0.00  0.00     0.031 C 
HETATM    2  C   UNK N   1      29.810  17.879   9.443  0.00  0.00     0.001 A 
HETATM    3  C   UNK N   1      28.641  18.571   9.070  0.00  0.00     0.002 A 
HETATM    4  C   UNK N   1      30.583  17.220   8.473  0.00  0.00     0.011 A 
HETATM    5  C   UNK N   1      28.238  18.606   7.726  0.00  0.00     0.031 A 
HETATM    6  C   UNK N   1      30.166  17.268   7.140  0.00  0.00    -0.013 A 
HETATM    7  C   UNK N   1      29.024  17.943   6.778  0.00  0.00     0.050 A 
HETATM    8  C   UNK N   1      29.844  17.127   4.875  0.00  0.00     0.242 A 
HETATM    9  C   UNK N   1      30.839  16.662   5.930  0.00  0.00     0.067 A 
HETATM   10  N   UNK N   1      28.819  17.852   5.392  0.00  0.00    -0.281 N 
HETATM   11  O   UNK N   1      29.963  16.891   3.682  0.00  0.00    -0.271 OA
ENDROOT
BRANCH   9  12
HETATM   12  C   UNK N   1      30.926  15.132   6.036  0.00  0.00     0.025 C 
BRANCH  12  13
HETATM   13  C   UNK N   1      32.352  14.617   6.238  0.00  0.00     0.021 C 
BRANCH  13  14
HETATM   14  C   UNK N   1      32.595  14.170   7.667  0.00  0.00     0.113 C 
BRANCH  14  15
HETATM   15  N   UNK N   1      33.600  15.028   8.271  0.00  0.00    -0.425 N 
HETATM   16  C   UNK N   1      33.387  14.998   9.705  0.00  0.00     0.139 C 
HETATM   17  H   UNK N   1      34.323  15.554   7.777  0.00  0.00     0.152 HD
ENDBRANCH  14  15
ENDBRANCH  13  14
ENDBRANCH  12  13
ENDBRANCH   9  12
BRANCH  10  18
HETATM   18  C   UNK N   1      27.727  18.425   4.650  0.00  0.00     0.042 A 
HETATM   19  C   UNK N   1      26.625  17.637   4.267  0.00  0.00     0.030 A 
HETATM   20  C   UNK N   1      25.561  18.193   3.554  0.00  0.00     0.002 A 
HETATM   21  C   UNK N   1      25.584  19.544   3.206  0.00  0.00     0.000 A 
HETATM   22  C   UNK N   1      26.669  20.340   3.575  0.00  0.00     0.002 A 
HETATM   23  C   UNK N   1      27.731  19.784   4.295  0.00  0.00     0.030 A 
ENDBRANCH  10  18
TORSDOF 5
ENDMDL
MODEL 6
REMARK VINA RESULT:      -6.5     19.952     23.585
REMARK  5 active torsions:
REMARK  status: ('A' for Active; 'I' for Inactive)
REMARK    1  A    between atoms: C_13  and  C_8 
REMARK    2  A    between atoms: C_14  and  C_8 
REMARK    3  A    between atoms: C_19  and  C_13 
REMARK    4  A    between atoms: N_20  and  C_14 
REMARK    5  A    between atoms: N_21  and  C_15 
ROOT
HETATM    1  C   UNK N   1      25.875  27.421  -3.334  0.00  0.00     0.031 C 
HETATM    2  C   UNK N   1      28.979  28.817  -6.220  0.00  0.00     0.001 A 
HETATM    3  C   UNK N   1      30.074  27.940  -6.097  0.00  0.00     0.002 A 
HETATM    4  C   UNK N   1      27.714  28.444  -5.735  0.00  0.00     0.011 A 
HETATM    5  C   UNK N   1      29.910  26.685  -5.492  0.00  0.00     0.031 A 
HETATM    6  C   UNK N   1      27.572  27.190  -5.135  0.00  0.00    -0.013 A 
HETATM    7  C   UNK N   1      28.642  26.335  -5.017  0.00  0.00     0.050 A 
HETATM    8  C   UNK N   1      26.933  25.258  -4.079  0.00  0.00     0.242 A 
HETATM    9  C   UNK N   1      26.329  26.584  -4.524  0.00  0.00     0.067 A 
HETATM   10  N   UNK N   1      28.253  25.147  -4.379  0.00  0.00    -0.281 N 
HETATM   11  O   UNK N   1      26.302  24.390  -3.495  0.00  0.00    -0.271 OA
ENDROOT
BRANCH   9  12
HETATM   12  C   UNK N   1      25.212  26.412  -5.564  0.00  0.00     0.025 C 
BRANCH  12  13
HETATM   13  C   UNK N   1      25.727  26.356  -7.003  0.00  0.00     0.021 C 
BRANCH  13  14
HETATM   14  C   UNK N   1      25.828  24.930  -7.513  0.00  0.00     0.113 C 
BRANCH  14  15
HETATM   15  N   UNK N   1      25.259  24.029  -6.526  0.00  0.00    -0.425 N 
HETATM   16  C   UNK N   1      25.908  22.743  -6.693  0.00  0.00     0.139 C 
HETATM   17  H   UNK N   1      24.537  24.259  -5.842  0.00  0.00     0.152 HD
ENDBRANCH  14  15
ENDBRANCH  13  14
ENDBRANCH  12  13
ENDBRANCH   9  12
BRANCH  10  18
HETATM   18  C   UNK N   1      29.095  24.016  -4.087  0.00  0.00     0.042 A 
HETATM   19  C   UNK N   1      29.756  23.911  -2.850  0.00  0.00     0.030 A 
HETATM   20  C   UNK N   1      30.566  22.810  -2.562  0.00  0.00     0.002 A 
HETATM   21  C   UNK N   1      30.734  21.800  -3.510  0.00  0.00     0.000 A 
HETATM   22  C   UNK N   1      30.088  21.889  -4.744  0.00  0.00     0.002 A 
HETATM   23  C   UNK N   1      29.271  22.988  -5.028  0.00  0.00     0.030 A 
ENDBRANCH  10  18
TORSDOF 5
ENDMDL
MODEL 7
REMARK VINA RESULT:      -6.5      6.420      9.054
REMARK  5 active torsions:
REMARK  status: ('A' for Active; 'I' for Inactive)
REMARK    1  A    between atoms: C_13  and  C_8 
REMARK    2  A    between atoms: C_14  and  C_8 
REMARK    3  A    between atoms: C_19  and  C_13 
REMARK    4  A    between atoms: N_20  and  C_14 
REMARK    5  A    between atoms: N_21  and  C_15 
ROOT
HETATM    1  C   UNK N   1      32.718  13.108   6.117  0.00  0.00     0.031 C 
HETATM    2  C   UNK N   1      33.212  16.425   3.174  0.00  0.00     0.001 A 
HETATM    3  C   UNK N   1      32.235  17.391   3.480  0.00  0.00     0.002 A 
HETATM    4  C   UNK N   1      33.568  15.451   4.121  0.00  0.00     0.011 A 
HETATM    5  C   UNK N   1      31.611  17.392   4.737  0.00  0.00     0.031 A 
HETATM    6  C   UNK N   1      32.933  15.467   5.367  0.00  0.00    -0.013 A 
HETATM    7  C   UNK N   1      31.980  16.413   5.665  0.00  0.00     0.050 A 
HETATM    8  C   UNK N   1      32.123  15.139   7.486  0.00  0.00     0.242 A 
HETATM    9  C   UNK N   1      33.129  14.517   6.526  0.00  0.00     0.067 A 
HETATM   10  N   UNK N   1      31.488  16.220   6.965  0.00  0.00    -0.281 N 
HETATM   11  O   UNK N   1      31.895  14.700   8.603  0.00  0.00    -0.271 OA
ENDROOT
BRANCH   9  12
HETATM   12  C   UNK N   1      34.570  14.562   7.058  0.00  0.00     0.025 C 
BRANCH  12  13
HETATM   13  C   UNK N   1      35.004  15.956   7.516  0.00  0.00     0.021 C 
BRANCH  13  14
HETATM   14  C   UNK N   1      35.038  16.071   9.028  0.00  0.00     0.113 C 
BRANCH  14  15
HETATM   15  N   UNK N   1      34.736  17.440   9.409  0.00  0.00    -0.425 N 
HETATM   16  C   UNK N   1      34.466  18.177   8.190  0.00  0.00     0.139 C 
HETATM   17  H   UNK N   1      34.716  17.813  10.359  0.00  0.00     0.152 HD
ENDBRANCH  14  15
ENDBRANCH  13  14
ENDBRANCH  12  13
ENDBRANCH   9  12
BRANCH  10  18
HETATM   18  C   UNK N   1      30.489  17.017   7.629  0.00  0.00     0.042 A 
HETATM   19  C   UNK N   1      30.848  17.920   8.646  0.00  0.00     0.030 A 
HETATM   20  C   UNK N   1      29.882  18.700   9.285  0.00  0.00     0.002 A 
HETATM   21  C   UNK N   1      28.539  18.584   8.922  0.00  0.00     0.000 A 
HETATM   22  C   UNK N   1      28.164  17.690   7.916  0.00  0.00     0.002 A 
HETATM   23  C   UNK N   1      29.134  16.916   7.272  0.00  0.00     0.030 A 
ENDBRANCH  10  18
TORSDOF 5
ENDMDL
MODEL 8
REMARK VINA RESULT:      -6.5      9.211     11.559
REMARK  5 active torsions:
REMARK  status: ('A' for Active; 'I' for Inactive)
REMARK    1  A    between atoms: C_13  and  C_8 
REMARK    2  A    between atoms: C_14  and  C_8 
REMARK    3  A    between atoms: C_19  and  C_13 
REMARK    4  A    between atoms: N_20  and  C_14 
REMARK    5  A    between atoms: N_21  and  C_15 
ROOT
HETATM    1  C   UNK N   1      26.775  15.959   6.632  0.00  0.00     0.031 C 
HETATM    2  C   UNK N   1      29.328  18.452   9.311  0.00  0.00     0.001 A 
HETATM    3  C   UNK N   1      30.665  18.206   8.945  0.00  0.00     0.002 A 
HETATM    4  C   UNK N   1      28.280  18.122   8.434  0.00  0.00     0.011 A 
HETATM    5  C   UNK N   1      30.964  17.631   7.700  0.00  0.00     0.031 A 
HETATM    6  C   UNK N   1      28.599  17.548   7.199  0.00  0.00    -0.013 A 
HETATM    7  C   UNK N   1      29.906  17.310   6.844  0.00  0.00     0.050 A 
HETATM    8  C   UNK N   1      28.694  16.585   5.122  0.00  0.00     0.242 A 
HETATM    9  C   UNK N   1      27.653  17.091   6.113  0.00  0.00     0.067 A 
HETATM   10  N   UNK N   1      29.968  16.727   5.568  0.00  0.00    -0.281 N 
HETATM   11  O   UNK N   1      28.413  16.083   4.044  0.00  0.00    -0.271 OA
ENDROOT
BRANCH   9  12
HETATM   12  C   UNK N   1      26.819  18.256   5.559  0.00  0.00     0.025 C 
BRANCH  12  13
HETATM   13  C   UNK N   1      27.667  19.433   5.075  0.00  0.00     0.021 C 
BRANCH  13  14
HETATM   14  C   UNK N   1      27.379  20.700   5.860  0.00  0.00     0.113 C 
BRANCH  14  15
HETATM   15  N   UNK N   1      26.166  20.513   6.637  0.00  0.00    -0.425 N 
HETATM   16  C   UNK N   1      26.100  21.597   7.599  0.00  0.00     0.139 C 
HETATM   17  H   UNK N   1      25.486  19.760   6.527  0.00  0.00     0.152 HD
ENDBRANCH  14  15
ENDBRANCH  13  14
ENDBRANCH  12  13
ENDBRANCH   9  12
BRANCH  10  18
HETATM   18  C   UNK N   1      31.162  16.345   4.860  0.00  0.00     0.042 A 
HETATM   19  C   UNK N   1      31.802  17.246   3.989  0.00  0.00     0.030 A 
HETATM   20  C   UNK N   1      32.964  16.879   3.307  0.00  0.00     0.002 A 
HETATM   21  C   UNK N   1      33.502  15.603   3.481  0.00  0.00     0.000 A 
HETATM   22  C   UNK N   1      32.879  14.696   4.339  0.00  0.00     0.002 A 
HETATM   23  C   UNK N   1      31.719  15.066   5.027  0.00  0.00     0.030 A 
ENDBRANCH  10  18
TORSDOF 5
ENDMDL
MODEL 9
REMARK VINA RESULT:      -6.4      5.737     11.243
REMARK  5 active torsions:
REMARK  status: ('A' for Active; 'I' for Inactive)
REMARK    1  A    between atoms: C_13  and  C_8 
REMARK    2  A    between atoms: C_14  and  C_8 
REMARK    3  A    between atoms: C_19  and  C_13 
REMARK    4  A    between atoms: N_20  and  C_14 
REMARK    5  A    between atoms: N_21  and  C_15 
ROOT
HETATM    1  C   UNK N   1      31.597  15.336   7.580  0.00  0.00     0.031 C 
HETATM    2  C   UNK N   1      33.491  16.174   3.628  0.00  0.00     0.001 A 
HETATM    3  C   UNK N   1      32.460  16.584   2.761  0.00  0.00     0.002 A 
HETATM    4  C   UNK N   1      33.298  16.197   5.020  0.00  0.00     0.011 A 
HETATM    5  C   UNK N   1      31.232  17.024   3.279  0.00  0.00     0.031 A 
HETATM    6  C   UNK N   1      32.067  16.637   5.516  0.00  0.00    -0.013 A 
HETATM    7  C   UNK N   1      31.063  17.038   4.667  0.00  0.00     0.050 A 
HETATM    8  C   UNK N   1      30.215  17.257   6.715  0.00  0.00     0.242 A 
HETATM    9  C   UNK N   1      31.622  16.726   6.958  0.00  0.00     0.067 A 
HETATM   10  N   UNK N   1      29.930  17.428   5.398  0.00  0.00    -0.281 N 
HETATM   11  O   UNK N   1      29.417  17.489   7.610  0.00  0.00    -0.271 OA
ENDROOT
BRANCH   9  12
HETATM   12  C   UNK N   1      32.498  17.699   7.762  0.00  0.00     0.025 C 
BRANCH  12  13
HETATM   13  C   UNK N   1      33.039  17.098   9.060  0.00  0.00     0.021 C 
BRANCH  13  14
HETATM   14  C   UNK N   1      34.555  17.133   9.112  0.00  0.00     0.113 C 
BRANCH  14  15
HETATM   15  N   UNK N   1      34.984  17.157  10.499  0.00  0.00    -0.425 N 
HETATM   16  C   UNK N   1      35.885  16.037  10.691  0.00  0.00     0.139 C 
HETATM   17  H   UNK N   1      34.704  17.836  11.208  0.00  0.00     0.152 HD
ENDBRANCH  14  15
ENDBRANCH  13  14
ENDBRANCH  12  13
ENDBRANCH   9  12
BRANCH  10  18
HETATM   18  C   UNK N   1      28.687  17.914   4.857  0.00  0.00     0.042 A 
HETATM   19  C   UNK N   1      28.443  19.295   4.744  0.00  0.00     0.030 A 
HETATM   20  C   UNK N   1      27.242  19.769   4.212  0.00  0.00     0.002 A 
HETATM   21  C   UNK N   1      26.263  18.868   3.789  0.00  0.00     0.000 A 
HETATM   22  C   UNK N   1      26.487  17.495   3.896  0.00  0.00     0.002 A 
HETATM   23  C   UNK N   1      27.693  17.022   4.423  0.00  0.00     0.030 A 
ENDBRANCH  10  18
TORSDOF 5
ENDMDL
