MODEL 1
REMARK VINA RESULT:      -5.0      0.000      0.000
REMARK  5 active torsions:
REMARK  status: ('A' for Active; 'I' for Inactive)
REMARK    1  A    between atoms: O_1  and  C_4 
REMARK    2  A    between atoms: O_2  and  C_7 
REMARK    3  A    between atoms: N_3  and  C_5 
REMARK    4  A    between atoms: C_4  and  C_5 
REMARK    5  A    between atoms: C_4  and  C_8 
ROOT
HETATM    1  C   UNK N   1      31.505  17.155   5.131  0.00  0.00     0.065 A 
HETATM    2  C   UNK N   1      33.328  17.573   7.203  0.00  0.00    -0.028 A 
HETATM    3  C   UNK N   1      31.062  17.146   6.456  0.00  0.00     0.037 A 
HETATM    4  C   UNK N   1      32.847  17.370   4.834  0.00  0.00     0.037 A 
HETATM    5  C   UNK N   1      31.978  17.356   7.497  0.00  0.00     0.012 A 
HETATM    6  C   UNK N   1      33.758  17.579   5.871  0.00  0.00     0.012 A 
ENDROOT
BRANCH   2   7
HETATM    7  C   UNK N   1      34.329  17.800   8.291  0.00  0.00     0.168 C 
BRANCH   7   8
HETATM    8  O   UNK N   1      34.994  19.027   8.375  0.00  0.00    -0.389 OA
HETATM    9  H   UNK N   1      34.640  19.803   7.914  0.00  0.00     0.210 HD
ENDBRANCH   7   8
BRANCH   7  10
HETATM   10  C   UNK N   1      34.615  16.694   9.298  0.00  0.00     0.149 C 
BRANCH  10  11
HETATM   11  N   UNK N   1      35.062  17.213  10.574  0.00  0.00    -0.423 N 
HETATM   12  C   UNK N   1      35.823  16.134  11.177  0.00  0.00     0.139 C 
HETATM   13  H   UNK N   1      34.881  18.137  10.965  0.00  0.00     0.152 HD
ENDBRANCH  10  11
ENDBRANCH   7  10
ENDBRANCH   2   7
BRANCH   1  14
HETATM   14  O   UNK N   1      30.626  16.953   4.128  0.00  0.00    -0.361 OA
HETATM   15  H   UNK N   1      30.635  16.147   3.651  0.00  0.00     0.217 HD
ENDBRANCH   1  14
TORSDOF 5
ENDMDL
MODEL 2
REMARK VINA RESULT:      -5.0      4.091      5.281
REMARK  5 active torsions:
REMARK  status: ('A' for Active; 'I' for Inactive)
REMARK    1  A    between atoms: O_1  and  C_4 
REMARK    2  A    between atoms: O_2  and  C_7 
REMARK    3  A    between atoms: N_3  and  C_5 
REMARK    4  A    between atoms: C_4  and  C_5 
REMARK    5  A    between atoms: C_4  and  C_8 
ROOT
HETATM    1  C   UNK N   1      27.837  19.686   4.664  0.00  0.00     0.065 A 
HETATM    2  C   UNK N   1      28.249  18.951   7.325  0.00  0.00    -0.028 A 
HETATM    3  C   UNK N   1      27.401  20.527   5.691  0.00  0.00     0.037 A 
HETATM    4  C   UNK N   1      28.474  18.485   4.955  0.00  0.00     0.037 A 
HETATM    5  C   UNK N   1      27.608  20.159   7.028  0.00  0.00     0.012 A 
HETATM    6  C   UNK N   1      28.680  18.118   6.287  0.00  0.00     0.012 A 
ENDROOT
BRANCH   2   7
HETATM    7  C   UNK N   1      28.485  18.530   8.741  0.00  0.00     0.168 C 
BRANCH   7   8
HETATM    8  O   UNK N   1      27.438  17.973   9.481  0.00  0.00    -0.389 OA
HETATM    9  H   UNK N   1      27.311  17.012   9.494  0.00  0.00     0.210 HD
ENDBRANCH   7   8
BRANCH   7  10
HETATM   10  C   UNK N   1      29.863  18.711   9.365  0.00  0.00     0.149 C 
BRANCH  10  11
HETATM   11  N   UNK N   1      30.633  17.484   9.364  0.00  0.00    -0.423 N 
HETATM   12  C   UNK N   1      31.743  17.734   8.464  0.00  0.00     0.139 C 
HETATM   13  H   UNK N   1      30.438  16.630   9.885  0.00  0.00     0.152 HD
ENDBRANCH  10  11
ENDBRANCH   7  10
ENDBRANCH   2   7
BRANCH   1  14
HETATM   14  O   UNK N   1      27.638  20.039   3.377  0.00  0.00    -0.361 OA
HETATM   15  H   UNK N   1      27.307  19.413   2.765  0.00  0.00     0.217 HD
ENDBRANCH   1  14
TORSDOF 5
ENDMDL
MODEL 3
REMARK VINA RESULT:      -5.0      9.607     12.092
REMARK  5 active torsions:
REMARK  status: ('A' for Active; 'I' for Inactive)
REMARK    1  A    between atoms: O_1  and  C_4 
REMARK    2  A    between atoms: O_2  and  C_7 
REMARK    3  A    between atoms: N_3  and  C_5 
REMARK    4  A    between atoms: C_4  and  C_5 
REMARK    5  A    between atoms: C_4  and  C_8 
ROOT
HETATM    1  C   UNK N   1      35.312  11.449  19.703  0.00  0.00     0.065 A 
HETATM    2  C   UNK N   1      35.467  12.471  17.110  0.00  0.00    -0.028 A 
HETATM    3  C   UNK N   1      35.116  12.814  19.483  0.00  0.00     0.037 A 
HETATM    4  C   UNK N   1      35.584  10.593  18.640  0.00  0.00     0.037 A 
HETATM    5  C   UNK N   1      35.194  13.329  18.181  0.00  0.00     0.012 A 
HETATM    6  C   UNK N   1      35.661  11.105  17.344  0.00  0.00     0.012 A 
ENDROOT
BRANCH   2   7
HETATM    7  C   UNK N   1      35.557  12.989  15.710  0.00  0.00     0.168 C 
BRANCH   7   8
HETATM    8  O   UNK N   1      34.391  13.151  14.955  0.00  0.00    -0.389 OA
HETATM    9  H   UNK N   1      34.226  13.987  14.491  0.00  0.00     0.210 HD
ENDBRANCH   7   8
BRANCH   7  10
HETATM   10  C   UNK N   1      36.916  13.336  15.116  0.00  0.00     0.149 C 
BRANCH  10  11
HETATM   11  N   UNK N   1      36.983  14.708  14.657  0.00  0.00    -0.423 N 
HETATM   12  C   UNK N   1      37.365  15.480  15.824  0.00  0.00     0.139 C 
HETATM   13  H   UNK N   1      36.801  15.056  13.716  0.00  0.00     0.152 HD
ENDBRANCH  10  11
ENDBRANCH   7  10
ENDBRANCH   2   7
BRANCH   1  14
HETATM   14  O   UNK N   1      35.237  10.952  20.954  0.00  0.00    -0.361 OA
HETATM   15  H   UNK N   1      35.099  11.528  21.680  0.00  0.00     0.217 HD
ENDBRANCH   1  14
TORSDOF 5
ENDMDL
MODEL 4
REMARK VINA RESULT:      -4.8      7.588     11.389
REMARK  5 active torsions:
REMARK  status: ('A' for Active; 'I' for Inactive)
REMARK    1  A    between atoms: O_1  and  C_4 
REMARK    2  A    between atoms: O_2  and  C_7 
REMARK    3  A    between atoms: N_3  and  C_5 
REMARK    4  A    between atoms: C_4  and  C_5 
REMARK    5  A    between atoms: C_4  and  C_8 
ROOT
HETATM    1  C   UNK N   1      35.276  12.668  19.182  0.00  0.00     0.065 A 
HETATM    2  C   UNK N   1      35.330  12.593  16.392  0.00  0.00    -0.028 A 
HETATM    3  C   UNK N   1      35.414  11.443  18.524  0.00  0.00     0.037 A 
HETATM    4  C   UNK N   1      35.166  13.851  18.460  0.00  0.00     0.037 A 
HETATM    5  C   UNK N   1      35.441  11.405  17.122  0.00  0.00     0.012 A 
HETATM    6  C   UNK N   1      35.193  13.813  17.064  0.00  0.00     0.012 A 
ENDROOT
BRANCH   2   7
HETATM    7  C   UNK N   1      35.356  12.586  14.897  0.00  0.00     0.168 C 
BRANCH   7   8
HETATM    8  O   UNK N   1      34.208  12.223  14.186  0.00  0.00    -0.389 OA
HETATM    9  H   UNK N   1      33.380  12.047  14.659  0.00  0.00     0.210 HD
ENDBRANCH   7   8
BRANCH   7  10
HETATM   10  C   UNK N   1      36.632  12.974  14.160  0.00  0.00     0.149 C 
BRANCH  10  11
HETATM   11  N   UNK N   1      36.748  14.405  13.975  0.00  0.00    -0.423 N 
HETATM   12  C   UNK N   1      36.086  14.680  12.714  0.00  0.00     0.139 C 
HETATM   13  H   UNK N   1      37.198  15.076  14.597  0.00  0.00     0.152 HD
ENDBRANCH  10  11
ENDBRANCH   7  10
ENDBRANCH   2   7
BRANCH   1  14
HETATM   14  O   UNK N   1      35.250  12.706  20.530  0.00  0.00    -0.361 OA
HETATM   15  H   UNK N   1      36.044  12.612  21.017  0.00  0.00     0.217 HD
ENDBRANCH   1  14
TORSDOF 5
ENDMDL
MODEL 5
REMARK VINA RESULT:      -4.6     13.119     14.630
REMARK  5 active torsions:
REMARK  status: ('A' for Active; 'I' for Inactive)
REMARK    1  A    between atoms: O_1  and  C_4 
REMARK    2  A    between atoms: O_2  and  C_7 
REMARK    3  A    between atoms: N_3  and  C_5 
REMARK    4  A    between atoms: C_4  and  C_5 
REMARK    5  A    between atoms: C_4  and  C_8 
ROOT
HETATM    1  C   UNK N   1      17.719  18.901  10.900  0.00  0.00     0.065 A 
HETATM    2  C   UNK N   1      19.339  17.784   8.920  0.00  0.00    -0.028 A 
HETATM    3  C   UNK N   1      17.276  17.780  10.192  0.00  0.00     0.037 A 
HETATM    4  C   UNK N   1      18.960  19.466  10.627  0.00  0.00     0.037 A 
HETATM    5  C   UNK N   1      18.090  17.219   9.197  0.00  0.00     0.012 A 
HETATM    6  C   UNK N   1      19.770  18.906   9.636  0.00  0.00     0.012 A 
ENDROOT
BRANCH   2   7
HETATM    7  C   UNK N   1      20.230  17.209   7.865  0.00  0.00     0.168 C 
BRANCH   7   8
HETATM    8  O   UNK N   1      21.018  18.060   7.084  0.00  0.00    -0.389 OA
HETATM    9  H   UNK N   1      21.932  18.250   7.345  0.00  0.00     0.210 HD
ENDBRANCH   7   8
BRANCH   7  10
HETATM   10  C   UNK N   1      20.273  15.701   7.649  0.00  0.00     0.149 C 
BRANCH  10  11
HETATM   11  N   UNK N   1      21.262  15.053   8.484  0.00  0.00    -0.423 N 
HETATM   12  C   UNK N   1      20.500  14.248   9.420  0.00  0.00     0.139 C 
HETATM   13  H   UNK N   1      22.276  15.143   8.427  0.00  0.00     0.152 HD
ENDBRANCH  10  11
ENDBRANCH   7  10
ENDBRANCH   2   7
BRANCH   1  14
HETATM   14  O   UNK N   1      16.938  19.442  11.856  0.00  0.00    -0.361 OA
HETATM   15  H   UNK N   1      17.005  19.142  12.741  0.00  0.00     0.217 HD
ENDBRANCH   1  14
TORSDOF 5
ENDMDL
MODEL 6
REMARK VINA RESULT:      -4.6      8.999     11.676
REMARK  5 active torsions:
REMARK  status: ('A' for Active; 'I' for Inactive)
REMARK    1  A    between atoms: O_1  and  C_4 
REMARK    2  A    between atoms: O_2  and  C_7 
REMARK    3  A    between atoms: N_3  and  C_5 
REMARK    4  A    between atoms: C_4  and  C_5 
REMARK    5  A    between atoms: C_4  and  C_8 
ROOT
HETATM    1  C   UNK N   1      35.326  12.655  19.178  0.00  0.00     0.065 A 
HETATM    2  C   UNK N   1      35.092  12.444  16.404  0.00  0.00    -0.028 A 
HETATM    3  C   UNK N   1      35.184  13.810  18.404  0.00  0.00     0.037 A 
HETATM    4  C   UNK N   1      35.352  11.400  18.578  0.00  0.00     0.037 A 
HETATM    5  C   UNK N   1      35.066  13.704  17.010  0.00  0.00     0.012 A 
HETATM    6  C   UNK N   1      35.235  11.295  17.190  0.00  0.00     0.012 A 
ENDROOT
BRANCH   2   7
HETATM    7  C   UNK N   1      34.969  12.298  14.920  0.00  0.00     0.168 C 
BRANCH   7   8
HETATM    8  O   UNK N   1      34.785  13.434  14.126  0.00  0.00    -0.389 OA
HETATM    9  H   UNK N   1      34.499  13.339  13.204  0.00  0.00     0.210 HD
ENDBRANCH   7   8
BRANCH   7  10
HETATM   10  C   UNK N   1      35.045  10.915  14.287  0.00  0.00     0.149 C 
BRANCH  10  11
HETATM   11  N   UNK N   1      33.757  10.455  13.812  0.00  0.00    -0.423 N 
HETATM   12  C   UNK N   1      33.940  10.215  12.392  0.00  0.00     0.139 C 
HETATM   13  H   UNK N   1      32.904  10.327  14.356  0.00  0.00     0.152 HD
ENDBRANCH  10  11
ENDBRANCH   7  10
ENDBRANCH   2   7
BRANCH   1  14
HETATM   14  O   UNK N   1      35.439  12.754  20.518  0.00  0.00    -0.361 OA
HETATM   15  H   UNK N   1      35.557  13.593  20.917  0.00  0.00     0.217 HD
ENDBRANCH   1  14
TORSDOF 5
ENDMDL
MODEL 7
REMARK VINA RESULT:      -4.6     11.157     13.098
REMARK  5 active torsions:
REMARK  status: ('A' for Active; 'I' for Inactive)
REMARK    1  A    between atoms: O_1  and  C_4 
REMARK    2  A    between atoms: O_2  and  C_7 
REMARK    3  A    between atoms: N_3  and  C_5 
REMARK    4  A    between atoms: C_4  and  C_5 
REMARK    5  A    between atoms: C_4  and  C_8 
ROOT
HETATM    1  C   UNK N   1      24.196  12.254  10.995  0.00  0.00     0.065 A 
HETATM    2  C   UNK N   1      21.896  13.230   9.750  0.00  0.00    -0.028 A 
HETATM    3  C   UNK N   1      22.944  12.018  11.568  0.00  0.00     0.037 A 
HETATM    4  C   UNK N   1      24.308  12.972   9.809  0.00  0.00     0.037 A 
HETATM    5  C   UNK N   1      21.788  12.509  10.943  0.00  0.00     0.012 A 
HETATM    6  C   UNK N   1      23.157  13.460   9.186  0.00  0.00     0.012 A 
ENDROOT
BRANCH   2   7
HETATM    7  C   UNK N   1      20.683  13.766   9.058  0.00  0.00     0.168 C 
BRANCH   7   8
HETATM    8  O   UNK N   1      19.531  14.047   9.799  0.00  0.00    -0.389 OA
HETATM    9  H   UNK N   1      18.665  13.747   9.482  0.00  0.00     0.210 HD
ENDBRANCH   7   8
BRANCH   7  10
HETATM   10  C   UNK N   1      20.711  14.002   7.554  0.00  0.00     0.149 C 
BRANCH  10  11
HETATM   11  N   UNK N   1      20.251  15.327   7.195  0.00  0.00    -0.423 N 
HETATM   12  C   UNK N   1      20.684  15.520   5.823  0.00  0.00     0.139 C 
HETATM   13  H   UNK N   1      19.734  15.984   7.779  0.00  0.00     0.152 HD
ENDBRANCH  10  11
ENDBRANCH   7  10
ENDBRANCH   2   7
BRANCH   1  14
HETATM   14  O   UNK N   1      25.308  11.784  11.595  0.00  0.00    -0.361 OA
HETATM   15  H   UNK N   1      26.120  11.763  11.128  0.00  0.00     0.217 HD
ENDBRANCH   1  14
TORSDOF 5
ENDMDL
MODEL 8
REMARK VINA RESULT:      -4.5      4.276      6.183
REMARK  5 active torsions:
REMARK  status: ('A' for Active; 'I' for Inactive)
REMARK    1  A    between atoms: O_1  and  C_4 
REMARK    2  A    between atoms: O_2  and  C_7 
REMARK    3  A    between atoms: N_3  and  C_5 
REMARK    4  A    between atoms: C_4  and  C_5 
REMARK    5  A    between atoms: C_4  and  C_8 
ROOT
HETATM    1  C   UNK N   1      32.143  16.832   7.600  0.00  0.00     0.065 A 
HETATM    2  C   UNK N   1      29.608  17.976   7.849  0.00  0.00    -0.028 A 
HETATM    3  C   UNK N   1      31.161  16.556   6.646  0.00  0.00     0.037 A 
HETATM    4  C   UNK N   1      31.869  17.673   8.675  0.00  0.00     0.037 A 
HETATM    5  C   UNK N   1      29.887  17.130   6.771  0.00  0.00     0.012 A 
HETATM    6  C   UNK N   1      30.601  18.245   8.798  0.00  0.00     0.012 A 
ENDROOT
BRANCH   2   7
HETATM    7  C   UNK N   1      28.260  18.604   8.010  0.00  0.00     0.168 C 
BRANCH   7   8
HETATM    8  O   UNK N   1      27.574  18.471   9.221  0.00  0.00    -0.389 OA
HETATM    9  H   UNK N   1      28.000  18.034   9.974  0.00  0.00     0.210 HD
ENDBRANCH   7   8
BRANCH   7  10
HETATM   10  C   UNK N   1      27.646  19.383   6.854  0.00  0.00     0.149 C 
BRANCH  10  11
HETATM   11  N   UNK N   1      26.598  20.282   7.291  0.00  0.00    -0.423 N 
HETATM   12  C   UNK N   1      26.826  21.514   6.560  0.00  0.00     0.139 C 
HETATM   13  H   UNK N   1      25.859  20.091   7.967  0.00  0.00     0.152 HD
ENDBRANCH  10  11
ENDBRANCH   7  10
ENDBRANCH   2   7
BRANCH   1  14
HETATM   14  O   UNK N   1      33.368  16.281   7.482  0.00  0.00    -0.361 OA
HETATM   15  H   UNK N   1      34.036  16.485   8.106  0.00  0.00     0.217 HD
ENDBRANCH   1  14
TORSDOF 5
ENDMDL
MODEL 9
REMARK VINA RESULT:      -4.5     16.339     17.704
REMARK  5 active torsions:
REMARK  status: ('A' for Active; 'I' for Inactive)
REMARK    1  A    between atoms: O_1  and  C_4 
REMARK    2  A    between atoms: O_2  and  C_7 
REMARK    3  A    between atoms: N_3  and  C_5 
REMARK    4  A    between atoms: C_4  and  C_5 
REMARK    5  A    between atoms: C_4  and  C_8 
ROOT
HETATM    1  C   UNK N   1      25.707  27.291  -3.877  0.00  0.00     0.065 A 
HETATM    2  C   UNK N   1      25.791  25.364  -5.895  0.00  0.00    -0.028 A 
HETATM    3  C   UNK N   1      26.350  26.072  -3.646  0.00  0.00     0.037 A 
HETATM    4  C   UNK N   1      25.108  27.553  -5.105  0.00  0.00     0.037 A 
HETATM    5  C   UNK N   1      26.393  25.104  -4.659  0.00  0.00     0.012 A 
HETATM    6  C   UNK N   1      25.151  26.588  -6.114  0.00  0.00     0.012 A 
ENDROOT
BRANCH   2   7
HETATM    7  C   UNK N   1      25.819  24.351  -6.996  0.00  0.00     0.168 C 
BRANCH   7   8
HETATM    8  O   UNK N   1      25.649  24.763  -8.321  0.00  0.00    -0.389 OA
HETATM    9  H   UNK N   1      26.411  25.071  -8.835  0.00  0.00     0.210 HD
ENDBRANCH   7   8
BRANCH   7  10
HETATM   10  C   UNK N   1      26.034  22.880  -6.665  0.00  0.00     0.149 C 
BRANCH  10  11
HETATM   11  N   UNK N   1      24.834  22.092  -6.854  0.00  0.00    -0.423 N 
HETATM   12  C   UNK N   1      25.167  21.137  -7.895  0.00  0.00     0.139 C 
HETATM   13  H   UNK N   1      23.946  22.187  -6.363  0.00  0.00     0.152 HD
ENDBRANCH  10  11
ENDBRANCH   7  10
ENDBRANCH   2   7
BRANCH   1  14
HETATM   14  O   UNK N   1      25.666  28.223  -2.904  0.00  0.00    -0.361 OA
HETATM   15  H   UNK N   1      26.427  28.733  -2.710  0.00  0.00     0.217 HD
ENDBRANCH   1  14
TORSDOF 5
ENDMDL
