MODEL 1
REMARK VINA RESULT:      -7.9      0.000      0.000
REMARK  8 active torsions:
REMARK  status: ('A' for Active; 'I' for Inactive)
REMARK    1  A    between atoms: C_23  and  C_3 
REMARK    2  A    between atoms: N_30  and  C_4 
REMARK    3  A    between atoms: C_19  and  C_18 
REMARK    4  A    between atoms: N_29  and  C_18 
REMARK    5  A    between atoms: N_31  and  C_19 
REMARK    6  A    between atoms: C_25  and  C_20 
REMARK    7  A    between atoms: N_32  and  C_22 
REMARK       I    between atoms: N_32  and  C_23 
REMARK    8  A    between atoms: N_32  and  C_25 
ROOT
HETATM    1  C   UNK N   1      23.589  16.795   5.434  0.00  0.00     0.067 C 
HETATM    2  C   UNK N   1      21.434  18.118   5.080  0.00  0.00     0.067 C 
HETATM    3  C   UNK N   1      22.764  15.807   6.215  0.00  0.00     0.275 C 
HETATM    4  C   UNK N   1      20.778  17.076   6.000  0.00  0.00     0.275 C 
HETATM    5  C   UNK N   1      22.729  17.560   4.402  0.00  0.00     0.071 C 
HETATM    6  N   UNK N   1      21.781  16.578   6.940  0.00  0.00     0.090 N 
ENDROOT
BRANCH   5   7
HETATM    7  C   UNK N   1      22.274  16.486   3.374  0.00  0.00    -0.029 A 
HETATM    8  C   UNK N   1      23.179  15.516   2.882  0.00  0.00     0.010 A 
HETATM    9  C   UNK N   1      22.801  14.616   1.884  0.00  0.00     0.001 A 
HETATM   10  C   UNK N   1      21.518  14.679   1.343  0.00  0.00     0.000 A 
HETATM   11  C   UNK N   1      20.610  15.632   1.806  0.00  0.00     0.001 A 
HETATM   12  C   UNK N   1      20.983  16.533   2.809  0.00  0.00     0.010 A 
ENDBRANCH   5   7
BRANCH   5  13
HETATM   13  N   UNK N   1      23.586  18.719   3.950  0.00  0.00    -0.301 N 
HETATM   14  C   UNK N   1      22.940  19.734   3.224  0.00  0.00     0.225 C 
HETATM   15  O   UNK N   1      23.563  20.657   2.736  0.00  0.00    -0.273 OA
BRANCH  13  16
HETATM   16  C   UNK N   1      25.026  18.797   4.281  0.00  0.00     0.077 A 
HETATM   17  C   UNK N   1      25.463  19.736   5.233  0.00  0.00     0.033 A 
HETATM   18  C   UNK N   1      26.804  19.944   5.541  0.00  0.00     0.002 A 
HETATM   19  C   UNK N   1      27.781  19.191   4.913  0.00  0.00     0.003 A 
HETATM   20  C   UNK N   1      27.412  18.231   3.982  0.00  0.00     0.044 A 
HETATM   21  C   UNK N   1      26.069  18.018   3.649  0.00  0.00     0.143 A 
HETATM   22  F   UNK N   1      25.865  17.113   2.669  0.00  0.00    -0.204 F 
ENDBRANCH  13  16
BRANCH  14  23
HETATM   23  C   UNK N   1      21.444  19.710   2.951  0.00  0.00     0.099 C 
HETATM   24  C   UNK N   1      20.918  21.003   2.342  0.00  0.00     0.014 C 
ENDBRANCH  14  23
ENDBRANCH   5  13
BRANCH   6  25
HETATM   25  C   UNK N   1      21.177  15.698   7.902  0.00  0.00     0.294 C 
BRANCH  25  26
HETATM   26  C   UNK N   1      21.607  14.296   7.549  0.00  0.00     0.181 C 
BRANCH  26  27
HETATM   27  N   UNK N   1      21.862  13.504   8.737  0.00  0.00    -0.226 N 
HETATM   28  C   UNK N   1      23.030  13.146   9.317  0.00  0.00     0.354 A 
HETATM   29  N   UNK N   1      22.776  12.498  10.468  0.00  0.00    -0.228 N 
HETATM   30  O   UNK N   1      24.147  13.403   8.890  0.00  0.00    -0.244 OA
HETATM   31  N   UNK N   1      21.456  12.444  10.581  0.00  0.00    -0.002 NA
HETATM   32  N   UNK N   1      20.904  13.054   9.537  0.00  0.00    -0.002 NA
BRANCH  29  33
HETATM   33  C   UNK N   1      23.715  12.036  11.470  0.00  0.00     0.147 C 
HETATM   34  C   UNK N   1      22.983  11.890  12.793  0.00  0.00     0.028 C 
ENDBRANCH  29  33
ENDBRANCH  26  27
ENDBRANCH  25  26
ENDBRANCH   6  25
TORSDOF 8
ENDMDL
MODEL 2
REMARK VINA RESULT:      -7.9      3.472      4.811
REMARK  8 active torsions:
REMARK  status: ('A' for Active; 'I' for Inactive)
REMARK    1  A    between atoms: C_23  and  C_3 
REMARK    2  A    between atoms: N_30  and  C_4 
REMARK    3  A    between atoms: C_19  and  C_18 
REMARK    4  A    between atoms: N_29  and  C_18 
REMARK    5  A    between atoms: N_31  and  C_19 
REMARK    6  A    between atoms: C_25  and  C_20 
REMARK    7  A    between atoms: N_32  and  C_22 
REMARK       I    between atoms: N_32  and  C_23 
REMARK    8  A    between atoms: N_32  and  C_25 
ROOT
HETATM    1  C   UNK N   1      26.651  15.862   6.594  0.00  0.00     0.067 C 
HETATM    2  C   UNK N   1      25.127  17.299   5.133  0.00  0.00     0.067 C 
HETATM    3  C   UNK N   1      25.578  14.807   6.542  0.00  0.00     0.275 C 
HETATM    4  C   UNK N   1      24.101  16.166   5.287  0.00  0.00     0.275 C 
HETATM    5  C   UNK N   1      26.591  16.792   5.361  0.00  0.00     0.071 C 
HETATM    6  N   UNK N   1      24.315  15.507   6.575  0.00  0.00     0.090 N 
ENDROOT
BRANCH   5   7
HETATM    7  C   UNK N   1      26.949  15.888   4.148  0.00  0.00    -0.029 A 
HETATM    8  C   UNK N   1      28.137  15.120   4.136  0.00  0.00     0.010 A 
HETATM    9  C   UNK N   1      28.512  14.387   3.008  0.00  0.00     0.001 A 
HETATM   10  C   UNK N   1      27.717  14.421   1.863  0.00  0.00     0.000 A 
HETATM   11  C   UNK N   1      26.544  15.177   1.849  0.00  0.00     0.001 A 
HETATM   12  C   UNK N   1      26.163  15.909   2.978  0.00  0.00     0.010 A 
ENDBRANCH   5   7
BRANCH   5  13
HETATM   13  N   UNK N   1      27.471  17.970   5.707  0.00  0.00    -0.301 N 
HETATM   14  C   UNK N   1      27.336  19.115   4.902  0.00  0.00     0.225 C 
HETATM   15  O   UNK N   1      28.068  20.075   5.042  0.00  0.00    -0.273 OA
BRANCH  13  16
HETATM   16  C   UNK N   1      28.405  17.932   6.853  0.00  0.00     0.077 A 
HETATM   17  C   UNK N   1      28.004  18.479   8.086  0.00  0.00     0.033 A 
HETATM   18  C   UNK N   1      28.845  18.570   9.191  0.00  0.00     0.002 A 
HETATM   19  C   UNK N   1      30.141  18.089   9.113  0.00  0.00     0.003 A 
HETATM   20  C   UNK N   1      30.588  17.516   7.932  0.00  0.00     0.044 A 
HETATM   21  C   UNK N   1      29.760  17.428   6.806  0.00  0.00     0.143 A 
HETATM   22  F   UNK N   1      30.356  16.924   5.705  0.00  0.00    -0.204 F 
ENDBRANCH  13  16
BRANCH  14  23
HETATM   23  C   UNK N   1      26.319  19.199   3.775  0.00  0.00     0.099 C 
HETATM   24  C   UNK N   1      26.227  20.581   3.143  0.00  0.00     0.014 C 
ENDBRANCH  14  23
ENDBRANCH   5  13
BRANCH   6  25
HETATM   25  C   UNK N   1      23.293  14.526   6.815  0.00  0.00     0.294 C 
BRANCH  25  26
HETATM   26  C   UNK N   1      22.020  15.055   6.204  0.00  0.00     0.181 C 
BRANCH  26  27
HETATM   27  N   UNK N   1      21.076  15.475   7.223  0.00  0.00    -0.226 N 
HETATM   28  C   UNK N   1      20.703  16.714   7.614  0.00  0.00     0.354 A 
HETATM   29  N   UNK N   1      19.716  16.617   8.521  0.00  0.00    -0.228 N 
HETATM   30  O   UNK N   1      21.158  17.765   7.185  0.00  0.00    -0.244 OA
HETATM   31  N   UNK N   1      19.499  15.320   8.698  0.00  0.00    -0.002 NA
HETATM   32  N   UNK N   1      20.318  14.631   7.912  0.00  0.00    -0.002 NA
BRANCH  29  33
HETATM   33  C   UNK N   1      18.937  17.679   9.126  0.00  0.00     0.147 C 
HETATM   34  C   UNK N   1      17.482  17.246   9.181  0.00  0.00     0.028 C 
ENDBRANCH  29  33
ENDBRANCH  26  27
ENDBRANCH  25  26
ENDBRANCH   6  25
TORSDOF 8
ENDMDL
MODEL 3
REMARK VINA RESULT:      -7.8      4.333      8.027
REMARK  8 active torsions:
REMARK  status: ('A' for Active; 'I' for Inactive)
REMARK    1  A    between atoms: C_23  and  C_3 
REMARK    2  A    between atoms: N_30  and  C_4 
REMARK    3  A    between atoms: C_19  and  C_18 
REMARK    4  A    between atoms: N_29  and  C_18 
REMARK    5  A    between atoms: N_31  and  C_19 
REMARK    6  A    between atoms: C_25  and  C_20 
REMARK    7  A    between atoms: N_32  and  C_22 
REMARK       I    between atoms: N_32  and  C_23 
REMARK    8  A    between atoms: N_32  and  C_25 
ROOT
HETATM    1  C   UNK N   1      27.707  16.387   3.656  0.00  0.00     0.067 C 
HETATM    2  C   UNK N   1      27.032  15.793   6.046  0.00  0.00     0.067 C 
HETATM    3  C   UNK N   1      26.277  16.802   3.436  0.00  0.00     0.275 C 
HETATM    4  C   UNK N   1      25.602  16.148   5.609  0.00  0.00     0.275 C 
HETATM    5  C   UNK N   1      28.105  16.492   5.145  0.00  0.00     0.071 C 
HETATM    6  N   UNK N   1      25.462  15.870   4.180  0.00  0.00     0.090 N 
ENDROOT
BRANCH   5   7
HETATM    7  C   UNK N   1      28.053  18.010   5.477  0.00  0.00    -0.029 A 
HETATM    8  C   UNK N   1      27.912  18.462   6.810  0.00  0.00     0.010 A 
HETATM    9  C   UNK N   1      27.762  19.819   7.101  0.00  0.00     0.001 A 
HETATM   10  C   UNK N   1      27.731  20.751   6.065  0.00  0.00     0.000 A 
HETATM   11  C   UNK N   1      27.859  20.329   4.741  0.00  0.00     0.001 A 
HETATM   12  C   UNK N   1      28.014  18.970   4.446  0.00  0.00     0.010 A 
ENDBRANCH   5   7
BRANCH   5  13
HETATM   13  N   UNK N   1      29.411  15.741   5.263  0.00  0.00    -0.301 N 
HETATM   14  C   UNK N   1      29.350  14.345   5.113  0.00  0.00     0.225 C 
HETATM   15  O   UNK N   1      30.329  13.647   5.287  0.00  0.00    -0.273 OA
BRANCH  13  16
HETATM   16  C   UNK N   1      30.693  16.441   5.495  0.00  0.00     0.077 A 
HETATM   17  C   UNK N   1      31.472  16.832   4.391  0.00  0.00     0.033 A 
HETATM   18  C   UNK N   1      32.731  17.413   4.512  0.00  0.00     0.002 A 
HETATM   19  C   UNK N   1      33.263  17.651   5.768  0.00  0.00     0.003 A 
HETATM   20  C   UNK N   1      32.532  17.310   6.896  0.00  0.00     0.044 A 
HETATM   21  C   UNK N   1      31.270  16.713   6.793  0.00  0.00     0.143 A 
HETATM   22  F   UNK N   1      30.713  16.361   7.972  0.00  0.00    -0.204 F 
ENDBRANCH  13  16
BRANCH  14  23
HETATM   23  C   UNK N   1      28.053  13.620   4.788  0.00  0.00     0.099 C 
HETATM   24  C   UNK N   1      28.241  12.135   4.508  0.00  0.00     0.014 C 
ENDBRANCH  14  23
ENDBRANCH   5  13
BRANCH   6  25
HETATM   25  C   UNK N   1      24.102  16.066   3.760  0.00  0.00     0.294 C 
BRANCH  25  26
HETATM   26  C   UNK N   1      23.483  17.055   4.715  0.00  0.00     0.181 C 
BRANCH  26  27
HETATM   27  N   UNK N   1      23.060  18.262   4.030  0.00  0.00    -0.226 N 
HETATM   28  C   UNK N   1      21.837  18.637   3.592  0.00  0.00     0.354 A 
HETATM   29  N   UNK N   1      21.901  19.891   3.111  0.00  0.00    -0.228 N 
HETATM   30  O   UNK N   1      20.818  17.963   3.657  0.00  0.00    -0.244 OA
HETATM   31  N   UNK N   1      23.164  20.274   3.238  0.00  0.00    -0.002 NA
HETATM   32  N   UNK N   1      23.863  19.292   3.796  0.00  0.00    -0.002 NA
BRANCH  29  33
HETATM   33  C   UNK N   1      20.819  20.736   2.645  0.00  0.00     0.147 C 
HETATM   34  C   UNK N   1      20.779  20.681   1.127  0.00  0.00     0.028 C 
ENDBRANCH  29  33
ENDBRANCH  26  27
ENDBRANCH  25  26
ENDBRANCH   6  25
TORSDOF 8
ENDMDL
MODEL 4
REMARK VINA RESULT:      -7.8      6.629      9.522
REMARK  8 active torsions:
REMARK  status: ('A' for Active; 'I' for Inactive)
REMARK    1  A    between atoms: C_23  and  C_3 
REMARK    2  A    between atoms: N_30  and  C_4 
REMARK    3  A    between atoms: C_19  and  C_18 
REMARK    4  A    between atoms: N_29  and  C_18 
REMARK    5  A    between atoms: N_31  and  C_19 
REMARK    6  A    between atoms: C_25  and  C_20 
REMARK    7  A    between atoms: N_32  and  C_22 
REMARK       I    between atoms: N_32  and  C_23 
REMARK    8  A    between atoms: N_32  and  C_25 
ROOT
HETATM    1  C   UNK N   1      29.912  16.316   6.797  0.00  0.00     0.067 C 
HETATM    2  C   UNK N   1      30.426  16.801   4.344  0.00  0.00     0.067 C 
HETATM    3  C   UNK N   1      31.090  17.188   7.137  0.00  0.00     0.275 C 
HETATM    4  C   UNK N   1      31.657  17.556   4.869  0.00  0.00     0.275 C 
HETATM    5  C   UNK N   1      29.303  16.696   5.428  0.00  0.00     0.071 C 
HETATM    6  N   UNK N   1      32.089  16.941   6.123  0.00  0.00     0.090 N 
ENDROOT
BRANCH   5   7
HETATM    7  C   UNK N   1      28.725  18.127   5.621  0.00  0.00    -0.029 A 
HETATM    8  C   UNK N   1      28.301  18.578   6.893  0.00  0.00     0.010 A 
HETATM    9  C   UNK N   1      27.688  19.823   7.050  0.00  0.00     0.001 A 
HETATM   10  C   UNK N   1      27.471  20.635   5.938  0.00  0.00     0.000 A 
HETATM   11  C   UNK N   1      27.874  20.208   4.672  0.00  0.00     0.001 A 
HETATM   12  C   UNK N   1      28.492  18.963   4.511  0.00  0.00     0.010 A 
ENDBRANCH   5   7
BRANCH   5  13
HETATM   13  N   UNK N   1      28.380  15.554   5.072  0.00  0.00    -0.301 N 
HETATM   14  C   UNK N   1      28.967  14.282   4.960  0.00  0.00     0.225 C 
HETATM   15  O   UNK N   1      28.326  13.321   4.583  0.00  0.00    -0.273 OA
BRANCH  13  16
HETATM   16  C   UNK N   1      26.928  15.758   4.880  0.00  0.00     0.077 A 
HETATM   17  C   UNK N   1      26.431  15.992   3.585  0.00  0.00     0.033 A 
HETATM   18  C   UNK N   1      25.097  16.285   3.320  0.00  0.00     0.002 A 
HETATM   19  C   UNK N   1      24.182  16.335   4.358  0.00  0.00     0.003 A 
HETATM   20  C   UNK N   1      24.606  16.089   5.655  0.00  0.00     0.044 A 
HETATM   21  C   UNK N   1      25.947  15.807   5.942  0.00  0.00     0.143 A 
HETATM   22  F   UNK N   1      26.227  15.671   7.256  0.00  0.00    -0.204 F 
ENDBRANCH  13  16
BRANCH  14  23
HETATM   23  C   UNK N   1      30.443  14.042   5.239  0.00  0.00     0.099 C 
HETATM   24  C   UNK N   1      31.103  13.095   4.246  0.00  0.00     0.014 C 
ENDBRANCH  14  23
ENDBRANCH   5  13
BRANCH   6  25
HETATM   25  C   UNK N   1      33.314  17.535   6.580  0.00  0.00     0.294 C 
BRANCH  25  26
HETATM   26  C   UNK N   1      33.066  18.040   7.979  0.00  0.00     0.181 C 
BRANCH  26  27
HETATM   27  N   UNK N   1      33.943  17.397   8.940  0.00  0.00    -0.226 N 
HETATM   28  C   UNK N   1      33.908  16.149   9.459  0.00  0.00     0.354 A 
HETATM   29  N   UNK N   1      34.991  15.958  10.232  0.00  0.00    -0.228 N 
HETATM   30  O   UNK N   1      33.052  15.305   9.231  0.00  0.00    -0.244 OA
HETATM   31  N   UNK N   1      35.675  17.093  10.202  0.00  0.00    -0.002 NA
HETATM   32  N   UNK N   1      35.044  17.961   9.419  0.00  0.00    -0.002 NA
BRANCH  29  33
HETATM   33  C   UNK N   1      35.426  14.744  10.893  0.00  0.00     0.147 C 
HETATM   34  C   UNK N   1      35.938  15.100  12.279  0.00  0.00     0.028 C 
ENDBRANCH  29  33
ENDBRANCH  26  27
ENDBRANCH  25  26
ENDBRANCH   6  25
TORSDOF 8
ENDMDL
MODEL 5
REMARK VINA RESULT:      -7.5     12.257     16.257
REMARK  8 active torsions:
REMARK  status: ('A' for Active; 'I' for Inactive)
REMARK    1  A    between atoms: C_23  and  C_3 
REMARK    2  A    between atoms: N_30  and  C_4 
REMARK    3  A    between atoms: C_19  and  C_18 
REMARK    4  A    between atoms: N_29  and  C_18 
REMARK    5  A    between atoms: N_31  and  C_19 
REMARK    6  A    between atoms: C_25  and  C_20 
REMARK    7  A    between atoms: N_32  and  C_22 
REMARK       I    between atoms: N_32  and  C_23 
REMARK    8  A    between atoms: N_32  and  C_25 
ROOT
HETATM    1  C   UNK N   1      35.312  13.233  12.990  0.00  0.00     0.067 C 
HETATM    2  C   UNK N   1      37.551  12.349  12.136  0.00  0.00     0.067 C 
HETATM    3  C   UNK N   1      35.145  13.887  11.645  0.00  0.00     0.275 C 
HETATM    4  C   UNK N   1      37.268  13.178  10.874  0.00  0.00     0.275 C 
HETATM    5  C   UNK N   1      36.235  11.995  12.906  0.00  0.00     0.071 C 
HETATM    6  N   UNK N   1      36.457  14.338  11.243  0.00  0.00     0.090 N 
ENDROOT
BRANCH   5   7
HETATM    7  C   UNK N   1      35.462  10.968  12.032  0.00  0.00    -0.029 A 
HETATM    8  C   UNK N   1      35.958  10.565  10.770  0.00  0.00     0.010 A 
HETATM    9  C   UNK N   1      35.217   9.721   9.939  0.00  0.00     0.001 A 
HETATM   10  C   UNK N   1      33.959   9.278  10.343  0.00  0.00     0.000 A 
HETATM   11  C   UNK N   1      33.446   9.669  11.582  0.00  0.00     0.001 A 
HETATM   12  C   UNK N   1      34.187  10.509  12.419  0.00  0.00     0.010 A 
ENDBRANCH   5   7
BRANCH   5  13
HETATM   13  N   UNK N   1      36.579  11.657  14.338  0.00  0.00    -0.301 N 
HETATM   14  C   UNK N   1      37.322  10.484  14.547  0.00  0.00     0.225 C 
HETATM   15  O   UNK N   1      37.563  10.078  15.667  0.00  0.00    -0.273 OA
BRANCH  13  16
HETATM   16  C   UNK N   1      36.179  12.533  15.461  0.00  0.00     0.077 A 
HETATM   17  C   UNK N   1      36.812  13.779  15.622  0.00  0.00     0.033 A 
HETATM   18  C   UNK N   1      36.568  14.628  16.697  0.00  0.00     0.002 A 
HETATM   19  C   UNK N   1      35.645  14.268  17.664  0.00  0.00     0.003 A 
HETATM   20  C   UNK N   1      34.969  13.062  17.549  0.00  0.00     0.044 A 
HETATM   21  C   UNK N   1      35.212  12.190  16.481  0.00  0.00     0.143 A 
HETATM   22  F   UNK N   1      34.544  11.019  16.545  0.00  0.00    -0.204 F 
ENDBRANCH  13  16
BRANCH  14  23
HETATM   23  C   UNK N   1      37.815   9.620  13.396  0.00  0.00     0.099 C 
HETATM   24  C   UNK N   1      37.352   8.171  13.483  0.00  0.00     0.014 C 
ENDBRANCH  14  23
ENDBRANCH   5  13
BRANCH   6  25
HETATM   25  C   UNK N   1      36.279  15.208  10.113  0.00  0.00     0.294 C 
BRANCH  25  26
HETATM   26  C   UNK N   1      35.554  16.433  10.610  0.00  0.00     0.181 C 
BRANCH  26  27
HETATM   27  N   UNK N   1      34.703  17.001   9.581  0.00  0.00    -0.226 N 
HETATM   28  C   UNK N   1      33.523  16.567   9.084  0.00  0.00     0.354 A 
HETATM   29  N   UNK N   1      33.044  17.476   8.216  0.00  0.00    -0.228 N 
HETATM   30  O   UNK N   1      32.952  15.533   9.400  0.00  0.00    -0.244 OA
HETATM   31  N   UNK N   1      33.939  18.453   8.169  0.00  0.00    -0.002 NA
HETATM   32  N   UNK N   1      34.939  18.167   8.995  0.00  0.00    -0.002 NA
BRANCH  29  33
HETATM   33  C   UNK N   1      31.766  17.487   7.534  0.00  0.00     0.147 C 
HETATM   34  C   UNK N   1      30.694  17.937   8.513  0.00  0.00     0.028 C 
ENDBRANCH  29  33
ENDBRANCH  26  27
ENDBRANCH  25  26
ENDBRANCH   6  25
TORSDOF 8
ENDMDL
MODEL 6
REMARK VINA RESULT:      -7.4      6.406      9.237
REMARK  8 active torsions:
REMARK  status: ('A' for Active; 'I' for Inactive)
REMARK    1  A    between atoms: C_23  and  C_3 
REMARK    2  A    between atoms: N_30  and  C_4 
REMARK    3  A    between atoms: C_19  and  C_18 
REMARK    4  A    between atoms: N_29  and  C_18 
REMARK    5  A    between atoms: N_31  and  C_19 
REMARK    6  A    between atoms: C_25  and  C_20 
REMARK    7  A    between atoms: N_32  and  C_22 
REMARK       I    between atoms: N_32  and  C_23 
REMARK    8  A    between atoms: N_32  and  C_25 
ROOT
HETATM    1  C   UNK N   1      29.118  15.590   5.469  0.00  0.00     0.067 C 
HETATM    2  C   UNK N   1      30.153  17.818   4.769  0.00  0.00     0.067 C 
HETATM    3  C   UNK N   1      30.488  15.193   5.952  0.00  0.00     0.275 C 
HETATM    4  C   UNK N   1      31.492  17.203   5.204  0.00  0.00     0.275 C 
HETATM    5  C   UNK N   1      28.939  17.126   5.475  0.00  0.00     0.071 C 
HETATM    6  N   UNK N   1      31.431  15.754   5.012  0.00  0.00     0.090 N 
ENDROOT
BRANCH   5   7
HETATM    7  C   UNK N   1      28.993  17.538   6.973  0.00  0.00    -0.029 A 
HETATM    8  C   UNK N   1      30.148  18.144   7.523  0.00  0.00     0.010 A 
HETATM    9  C   UNK N   1      30.237  18.422   8.888  0.00  0.00     0.001 A 
HETATM   10  C   UNK N   1      29.184  18.083   9.736  0.00  0.00     0.000 A 
HETATM   11  C   UNK N   1      28.038  17.478   9.218  0.00  0.00     0.001 A 
HETATM   12  C   UNK N   1      27.942  17.202   7.850  0.00  0.00     0.010 A 
ENDBRANCH   5   7
BRANCH   5  13
HETATM   13  N   UNK N   1      27.688  17.384   4.668  0.00  0.00    -0.301 N 
HETATM   14  C   UNK N   1      27.325  18.729   4.483  0.00  0.00     0.225 C 
HETATM   15  O   UNK N   1      26.284  19.032   3.933  0.00  0.00    -0.273 OA
BRANCH  13  16
HETATM   16  C   UNK N   1      26.903  16.279   4.077  0.00  0.00     0.077 A 
HETATM   17  C   UNK N   1      27.159  15.885   2.751  0.00  0.00     0.033 A 
HETATM   18  C   UNK N   1      26.412  14.921   2.082  0.00  0.00     0.002 A 
HETATM   19  C   UNK N   1      25.370  14.281   2.733  0.00  0.00     0.003 A 
HETATM   20  C   UNK N   1      25.084  14.608   4.050  0.00  0.00     0.044 A 
HETATM   21  C   UNK N   1      25.816  15.586   4.734  0.00  0.00     0.143 A 
HETATM   22  F   UNK N   1      25.372  15.857   5.979  0.00  0.00    -0.204 F 
ENDBRANCH  13  16
BRANCH  14  23
HETATM   23  C   UNK N   1      28.170  19.878   5.012  0.00  0.00     0.099 C 
HETATM   24  C   UNK N   1      27.433  20.766   6.005  0.00  0.00     0.014 C 
ENDBRANCH  14  23
ENDBRANCH   5  13
BRANCH   6  25
HETATM   25  C   UNK N   1      32.708  15.156   5.284  0.00  0.00     0.294 C 
BRANCH  25  26
HETATM   26  C   UNK N   1      33.660  16.277   5.615  0.00  0.00     0.181 C 
BRANCH  26  27
HETATM   27  N   UNK N   1      34.330  16.050   6.882  0.00  0.00    -0.226 N 
HETATM   28  C   UNK N   1      34.290  16.760   8.033  0.00  0.00     0.354 A 
HETATM   29  N   UNK N   1      34.987  16.109   8.981  0.00  0.00    -0.228 N 
HETATM   30  O   UNK N   1      33.684  17.808   8.205  0.00  0.00    -0.244 OA
HETATM   31  N   UNK N   1      35.467  15.015   8.406  0.00  0.00    -0.002 NA
HETATM   32  N   UNK N   1      35.067  14.978   7.140  0.00  0.00    -0.002 NA
BRANCH  29  33
HETATM   33  C   UNK N   1      35.122  16.436  10.386  0.00  0.00     0.147 C 
HETATM   34  C   UNK N   1      34.671  15.241  11.210  0.00  0.00     0.028 C 
ENDBRANCH  29  33
ENDBRANCH  26  27
ENDBRANCH  25  26
ENDBRANCH   6  25
TORSDOF 8
ENDMDL
MODEL 7
REMARK VINA RESULT:      -7.4     11.472     15.294
REMARK  8 active torsions:
REMARK  status: ('A' for Active; 'I' for Inactive)
REMARK    1  A    between atoms: C_23  and  C_3 
REMARK    2  A    between atoms: N_30  and  C_4 
REMARK    3  A    between atoms: C_19  and  C_18 
REMARK    4  A    between atoms: N_29  and  C_18 
REMARK    5  A    between atoms: N_31  and  C_19 
REMARK    6  A    between atoms: C_25  and  C_20 
REMARK    7  A    between atoms: N_32  and  C_22 
REMARK       I    between atoms: N_32  and  C_23 
REMARK    8  A    between atoms: N_32  and  C_25 
ROOT
HETATM    1  C   UNK N   1      34.740  13.833  11.821  0.00  0.00     0.067 C 
HETATM    2  C   UNK N   1      37.038  13.767  10.710  0.00  0.00     0.067 C 
HETATM    3  C   UNK N   1      34.401  14.957  10.878  0.00  0.00     0.275 C 
HETATM    4  C   UNK N   1      36.563  14.992   9.914  0.00  0.00     0.275 C 
HETATM    5  C   UNK N   1      35.835  12.914  11.235  0.00  0.00     0.071 C 
HETATM    6  N   UNK N   1      35.605  15.741  10.727  0.00  0.00     0.090 N 
ENDROOT
BRANCH   5   7
HETATM    7  C   UNK N   1      35.184  12.240   9.995  0.00  0.00    -0.029 A 
HETATM    8  C   UNK N   1      34.109  11.331  10.138  0.00  0.00     0.010 A 
HETATM    9  C   UNK N   1      33.589  10.647   9.037  0.00  0.00     0.001 A 
HETATM   10  C   UNK N   1      34.145  10.843   7.774  0.00  0.00     0.000 A 
HETATM   11  C   UNK N   1      35.211  11.730   7.609  0.00  0.00     0.001 A 
HETATM   12  C   UNK N   1      35.731  12.419   8.709  0.00  0.00     0.010 A 
ENDBRANCH   5   7
BRANCH   5  13
HETATM   13  N   UNK N   1      36.304  12.065  12.394  0.00  0.00    -0.301 N 
HETATM   14  C   UNK N   1      37.316  11.129  12.120  0.00  0.00     0.225 C 
HETATM   15  O   UNK N   1      37.689  10.336  12.963  0.00  0.00    -0.273 OA
BRANCH  13  16
HETATM   16  C   UNK N   1      35.747  12.230  13.754  0.00  0.00     0.077 A 
HETATM   17  C   UNK N   1      36.435  13.027  14.687  0.00  0.00     0.033 A 
HETATM   18  C   UNK N   1      36.037  13.167  16.013  0.00  0.00     0.002 A 
HETATM   19  C   UNK N   1      34.899  12.520  16.464  0.00  0.00     0.003 A 
HETATM   20  C   UNK N   1      34.163  11.739  15.585  0.00  0.00     0.044 A 
HETATM   21  C   UNK N   1      34.556  11.576  14.252  0.00  0.00     0.143 A 
HETATM   22  F   UNK N   1      33.792  10.723  13.537  0.00  0.00    -0.204 F 
ENDBRANCH  13  16
BRANCH  14  23
HETATM   23  C   UNK N   1      37.959  11.008  10.747  0.00  0.00     0.099 C 
HETATM   24  C   UNK N   1      37.825   9.620  10.135  0.00  0.00     0.014 C 
ENDBRANCH  14  23
ENDBRANCH   5  13
BRANCH   6  25
HETATM   25  C   UNK N   1      35.235  16.964  10.071  0.00  0.00     0.294 C 
BRANCH  25  26
HETATM   26  C   UNK N   1      33.914  16.717   9.389  0.00  0.00     0.181 C 
BRANCH  26  27
HETATM   27  N   UNK N   1      34.024  16.856   7.948  0.00  0.00    -0.226 N 
HETATM   28  C   UNK N   1      33.739  15.978   6.960  0.00  0.00     0.354 A 
HETATM   29  N   UNK N   1      33.894  16.583   5.769  0.00  0.00    -0.228 N 
HETATM   30  O   UNK N   1      33.357  14.827   7.116  0.00  0.00    -0.244 OA
HETATM   31  N   UNK N   1      34.292  17.821   6.029  0.00  0.00    -0.002 NA
HETATM   32  N   UNK N   1      34.368  17.986   7.345  0.00  0.00    -0.002 NA
BRANCH  29  33
HETATM   33  C   UNK N   1      33.592  16.069   4.449  0.00  0.00     0.147 C 
HETATM   34  C   UNK N   1      32.471  16.900   3.846  0.00  0.00     0.028 C 
ENDBRANCH  29  33
ENDBRANCH  26  27
ENDBRANCH  25  26
ENDBRANCH   6  25
TORSDOF 8
ENDMDL
MODEL 8
REMARK VINA RESULT:      -7.4      6.745      9.482
REMARK  8 active torsions:
REMARK  status: ('A' for Active; 'I' for Inactive)
REMARK    1  A    between atoms: C_23  and  C_3 
REMARK    2  A    between atoms: N_30  and  C_4 
REMARK    3  A    between atoms: C_19  and  C_18 
REMARK    4  A    between atoms: N_29  and  C_18 
REMARK    5  A    between atoms: N_31  and  C_19 
REMARK    6  A    between atoms: C_25  and  C_20 
REMARK    7  A    between atoms: N_32  and  C_22 
REMARK       I    between atoms: N_32  and  C_23 
REMARK    8  A    between atoms: N_32  and  C_25 
ROOT
HETATM    1  C   UNK N   1      29.670  15.356   5.649  0.00  0.00     0.067 C 
HETATM    2  C   UNK N   1      30.486  17.627   4.813  0.00  0.00     0.067 C 
HETATM    3  C   UNK N   1      31.051  15.154   6.214  0.00  0.00     0.275 C 
HETATM    4  C   UNK N   1      31.862  17.202   5.347  0.00  0.00     0.275 C 
HETATM    5  C   UNK N   1      29.323  16.857   5.526  0.00  0.00     0.071 C 
HETATM    6  N   UNK N   1      31.970  15.746   5.269  0.00  0.00     0.090 N 
ENDROOT
BRANCH   5   7
HETATM    7  C   UNK N   1      29.261  17.385   6.986  0.00  0.00    -0.029 A 
HETATM    8  C   UNK N   1      30.385  17.996   7.591  0.00  0.00     0.010 A 
HETATM    9  C   UNK N   1      30.366  18.378   8.933  0.00  0.00     0.001 A 
HETATM   10  C   UNK N   1      29.229  18.141   9.705  0.00  0.00     0.000 A 
HETATM   11  C   UNK N   1      28.111  17.532   9.134  0.00  0.00     0.001 A 
HETATM   12  C   UNK N   1      28.125  17.152   7.788  0.00  0.00     0.010 A 
ENDBRANCH   5   7
BRANCH   5  13
HETATM   13  N   UNK N   1      28.091  16.910   4.653  0.00  0.00    -0.301 N 
HETATM   14  C   UNK N   1      27.583  18.187   4.359  0.00  0.00     0.225 C 
HETATM   15  O   UNK N   1      26.542  18.327   3.747  0.00  0.00    -0.273 OA
BRANCH  13  16
HETATM   16  C   UNK N   1      27.469  15.683   4.111  0.00  0.00     0.077 A 
HETATM   17  C   UNK N   1      26.486  15.018   4.866  0.00  0.00     0.033 A 
HETATM   18  C   UNK N   1      25.912  13.811   4.480  0.00  0.00     0.002 A 
HETATM   19  C   UNK N   1      26.290  13.218   3.287  0.00  0.00     0.003 A 
HETATM   20  C   UNK N   1      27.237  13.837   2.486  0.00  0.00     0.044 A 
HETATM   21  C   UNK N   1      27.835  15.045   2.865  0.00  0.00     0.143 A 
HETATM   22  F   UNK N   1      28.798  15.486   2.028  0.00  0.00    -0.204 F 
ENDBRANCH  13  16
BRANCH  14  23
HETATM   23  C   UNK N   1      28.262  19.461   4.838  0.00  0.00     0.099 C 
HETATM   24  C   UNK N   1      27.365  20.339   5.701  0.00  0.00     0.014 C 
ENDBRANCH  14  23
ENDBRANCH   5  13
BRANCH   6  25
HETATM   25  C   UNK N   1      33.291  15.318   5.638  0.00  0.00     0.294 C 
BRANCH  25  26
HETATM   26  C   UNK N   1      33.980  16.503   6.266  0.00  0.00     0.181 C 
BRANCH  26  27
HETATM   27  N   UNK N   1      34.536  16.168   7.564  0.00  0.00    -0.226 N 
HETATM   28  C   UNK N   1      34.699  16.931   8.669  0.00  0.00     0.354 A 
HETATM   29  N   UNK N   1      35.157  16.164   9.675  0.00  0.00    -0.228 N 
HETATM   30  O   UNK N   1      34.434  18.121   8.761  0.00  0.00    -0.244 OA
HETATM   31  N   UNK N   1      35.291  14.941   9.179  0.00  0.00    -0.002 NA
HETATM   32  N   UNK N   1      34.913  14.944   7.906  0.00  0.00    -0.002 NA
BRANCH  29  33
HETATM   33  C   UNK N   1      35.367  16.526  11.062  0.00  0.00     0.147 C 
HETATM   34  C   UNK N   1      35.823  15.293  11.824  0.00  0.00     0.028 C 
ENDBRANCH  29  33
ENDBRANCH  26  27
ENDBRANCH  25  26
ENDBRANCH   6  25
TORSDOF 8
ENDMDL
MODEL 9
REMARK VINA RESULT:      -7.3      5.112      8.210
REMARK  8 active torsions:
REMARK  status: ('A' for Active; 'I' for Inactive)
REMARK    1  A    between atoms: C_23  and  C_3 
REMARK    2  A    between atoms: N_30  and  C_4 
REMARK    3  A    between atoms: C_19  and  C_18 
REMARK    4  A    between atoms: N_29  and  C_18 
REMARK    5  A    between atoms: N_31  and  C_19 
REMARK    6  A    between atoms: C_25  and  C_20 
REMARK    7  A    between atoms: N_32  and  C_22 
REMARK       I    between atoms: N_32  and  C_23 
REMARK    8  A    between atoms: N_32  and  C_25 
ROOT
HETATM    1  C   UNK N   1      27.951  17.126   6.549  0.00  0.00     0.067 C 
HETATM    2  C   UNK N   1      29.214  18.436   4.757  0.00  0.00     0.067 C 
HETATM    3  C   UNK N   1      26.686  17.691   5.962  0.00  0.00     0.275 C 
HETATM    4  C   UNK N   1      27.841  19.006   4.368  0.00  0.00     0.275 C 
HETATM    5  C   UNK N   1      29.084  17.064   5.499  0.00  0.00     0.071 C 
HETATM    6  N   UNK N   1      26.991  19.044   5.558  0.00  0.00     0.090 N 
ENDROOT
BRANCH   5   7
HETATM    7  C   UNK N   1      28.608  16.025   4.445  0.00  0.00    -0.029 A 
HETATM    8  C   UNK N   1      27.943  14.839   4.836  0.00  0.00     0.010 A 
HETATM    9  C   UNK N   1      27.606  13.857   3.903  0.00  0.00     0.001 A 
HETATM   10  C   UNK N   1      27.943  14.031   2.561  0.00  0.00     0.000 A 
HETATM   11  C   UNK N   1      28.606  15.189   2.152  0.00  0.00     0.001 A 
HETATM   12  C   UNK N   1      28.942  16.177   3.084  0.00  0.00     0.010 A 
ENDBRANCH   5   7
BRANCH   5  13
HETATM   13  N   UNK N   1      30.346  16.810   6.289  0.00  0.00    -0.301 N 
HETATM   14  C   UNK N   1      30.425  17.408   7.558  0.00  0.00     0.225 C 
HETATM   15  O   UNK N   1      31.438  17.342   8.226  0.00  0.00    -0.273 OA
BRANCH  13  16
HETATM   16  C   UNK N   1      31.432  15.952   5.766  0.00  0.00     0.077 A 
HETATM   17  C   UNK N   1      31.483  14.599   6.147  0.00  0.00     0.033 A 
HETATM   18  C   UNK N   1      32.515  13.741   5.780  0.00  0.00     0.002 A 
HETATM   19  C   UNK N   1      33.547  14.204   4.983  0.00  0.00     0.003 A 
HETATM   20  C   UNK N   1      33.541  15.523   4.554  0.00  0.00     0.044 A 
HETATM   21  C   UNK N   1      32.518  16.405   4.924  0.00  0.00     0.143 A 
HETATM   22  F   UNK N   1      32.687  17.676   4.503  0.00  0.00    -0.204 F 
ENDBRANCH  13  16
BRANCH  14  23
HETATM   23  C   UNK N   1      29.281  18.221   8.145  0.00  0.00     0.099 C 
HETATM   24  C   UNK N   1      29.477  18.572   9.614  0.00  0.00     0.014 C 
ENDBRANCH  14  23
ENDBRANCH   5  13
BRANCH   6  25
HETATM   25  C   UNK N   1      25.742  19.691   5.264  0.00  0.00     0.294 C 
BRANCH  25  26
HETATM   26  C   UNK N   1      25.482  19.502   3.791  0.00  0.00     0.181 C 
BRANCH  26  27
HETATM   27  N   UNK N   1      24.114  19.840   3.445  0.00  0.00    -0.226 N 
HETATM   28  C   UNK N   1      22.964  19.163   3.662  0.00  0.00     0.354 A 
HETATM   29  N   UNK N   1      21.923  19.915   3.264  0.00  0.00    -0.228 N 
HETATM   30  O   UNK N   1      22.872  18.058   4.178  0.00  0.00    -0.244 OA
HETATM   31  N   UNK N   1      22.437  21.040   2.787  0.00  0.00    -0.002 NA
HETATM   32  N   UNK N   1      23.760  20.996   2.899  0.00  0.00    -0.002 NA
BRANCH  29  33
HETATM   33  C   UNK N   1      20.506  19.645   3.408  0.00  0.00     0.147 C 
HETATM   34  C   UNK N   1      20.064  18.740   2.271  0.00  0.00     0.028 C 
ENDBRANCH  29  33
ENDBRANCH  26  27
ENDBRANCH  25  26
ENDBRANCH   6  25
TORSDOF 8
ENDMDL
