MODEL 1
REMARK VINA RESULT:      -5.2      0.000      0.000
REMARK  3 active torsions:
REMARK  status: ('A' for Active; 'I' for Inactive)
REMARK    1  A    between atoms: N_2  and  N_7 
REMARK    2  A    between atoms: N_2  and  C_9 
REMARK       I    between atoms: N_8  and  C_13 
REMARK    3  A    between atoms: C_10  and  C_13 
ROOT
HETATM    1  N   UNK N   1      30.552  17.908   9.201  0.00  0.00    -0.284 N 
ATOM      2  HN  UNK N   1      30.161  18.167  10.107  1.00  0.00     0.188 HD
HETATM    3  N   UNK N   1      31.858  18.083   8.976  0.00  0.00    -0.294 N 
ATOM      4  HN  UNK N   1      32.441  18.483   9.711  1.00  0.00     0.187 HD
HETATM    5  C   UNK N   1      29.732  17.392   8.246  0.00  0.00     0.130 A 
HETATM    6  C   UNK N   1      32.427  17.740   7.788  0.00  0.00     0.115 A 
HETATM    7  C   UNK N   1      30.268  17.018   7.014  0.00  0.00     0.053 A 
HETATM    8  C   UNK N   1      31.629  17.188   6.783  0.00  0.00     0.040 A 
ENDROOT
BRANCH   5   9
HETATM    9  N   UNK N   1      28.345  17.243   8.510  0.00  0.00    -0.308 N 
HETATM   10  H   UNK N   1      27.843  16.426   8.129  0.00  0.00     0.182 HD
BRANCH   9  11
HETATM   11  N   UNK N   1      27.668  18.160   9.310  0.00  0.00    -0.248 NA
HETATM   12  H   UNK N   1      28.227  19.043   9.343  0.00  0.00     0.143 HD
HETATM   13  H   UNK N   1      27.602  17.777  10.279  0.00  0.00     0.143 HD
ENDBRANCH   9  11
ENDBRANCH   5   9
BRANCH   6  14
HETATM   14  C   UNK N   1      33.870  17.973   7.546  0.00  0.00     0.267 C 
HETATM   15  O   UNK N   1      34.335  17.792   6.431  0.00  0.00    -0.266 OA
HETATM   16  N   UNK N   1      34.681  18.402   8.544  0.00  0.00    -0.365 N 
HETATM   17  H   UNK N   1      35.680  18.575   8.359  0.00  0.00     0.159 HD
HETATM   18  H   UNK N   1      34.316  18.572   9.491  0.00  0.00     0.159 HD
ENDBRANCH   6  14
TORSDOF 3
ENDMDL
MODEL 2
REMARK VINA RESULT:      -5.1      8.140      9.492
REMARK  3 active torsions:
REMARK  status: ('A' for Active; 'I' for Inactive)
REMARK    1  A    between atoms: N_2  and  N_7 
REMARK    2  A    between atoms: N_2  and  C_9 
REMARK       I    between atoms: N_8  and  C_13 
REMARK    3  A    between atoms: C_10  and  C_13 
ROOT
HETATM    1  N   UNK N   1      24.764  12.507  11.531  0.00  0.00    -0.284 N 
ATOM      2  HN  UNK N   1      25.369  12.580  12.349  1.00  0.00     0.188 HD
HETATM    3  N   UNK N   1      25.219  12.905  10.339  0.00  0.00    -0.294 N 
ATOM      4  HN  UNK N   1      26.163  13.286  10.269  1.00  0.00     0.187 HD
HETATM    5  C   UNK N   1      23.507  12.006  11.676  0.00  0.00     0.130 A 
HETATM    6  C   UNK N   1      24.454  12.815   9.218  0.00  0.00     0.115 A 
HETATM    7  C   UNK N   1      22.684  11.886  10.555  0.00  0.00     0.053 A 
HETATM    8  C   UNK N   1      23.163  12.290   9.314  0.00  0.00     0.040 A 
ENDROOT
BRANCH   5   9
HETATM    9  N   UNK N   1      23.046  11.615  12.960  0.00  0.00    -0.308 N 
HETATM   10  H   UNK N   1      22.271  10.937  13.035  0.00  0.00     0.182 HD
BRANCH   9  11
HETATM   11  N   UNK N   1      23.653  12.101  14.116  0.00  0.00    -0.248 NA
HETATM   12  H   UNK N   1      24.552  11.586  14.257  0.00  0.00     0.143 HD
HETATM   13  H   UNK N   1      23.030  11.905  14.931  0.00  0.00     0.143 HD
ENDBRANCH   9  11
ENDBRANCH   5   9
BRANCH   6  14
HETATM   14  C   UNK N   1      24.965  13.293   7.913  0.00  0.00     0.267 C 
HETATM   15  O   UNK N   1      25.490  14.394   7.833  0.00  0.00    -0.266 OA
HETATM   16  N   UNK N   1      24.875  12.517   6.805  0.00  0.00    -0.365 N 
HETATM   17  H   UNK N   1      25.249  12.855   5.906  0.00  0.00     0.159 HD
HETATM   18  H   UNK N   1      24.447  11.582   6.844  0.00  0.00     0.159 HD
ENDBRANCH   6  14
TORSDOF 3
ENDMDL
MODEL 3
REMARK VINA RESULT:      -5.1      2.538      4.704
REMARK  3 active torsions:
REMARK  status: ('A' for Active; 'I' for Inactive)
REMARK    1  A    between atoms: N_2  and  N_7 
REMARK    2  A    between atoms: N_2  and  C_9 
REMARK       I    between atoms: N_8  and  C_13 
REMARK    3  A    between atoms: C_10  and  C_13 
ROOT
HETATM    1  N   UNK N   1      31.925  17.534   8.971  0.00  0.00    -0.284 N 
ATOM      2  HN  UNK N   1      32.689  17.628   9.640  1.00  0.00     0.188 HD
HETATM    3  N   UNK N   1      30.667  17.730   9.379  0.00  0.00    -0.294 N 
ATOM      4  HN  UNK N   1      30.491  17.959  10.357  1.00  0.00     0.187 HD
HETATM    5  C   UNK N   1      32.207  17.213   7.679  0.00  0.00     0.130 A 
HETATM    6  C   UNK N   1      29.616  17.629   8.520  0.00  0.00     0.115 A 
HETATM    7  C   UNK N   1      31.165  17.104   6.758  0.00  0.00     0.053 A 
HETATM    8  C   UNK N   1      29.858  17.319   7.180  0.00  0.00     0.040 A 
ENDROOT
BRANCH   5   9
HETATM    9  N   UNK N   1      33.552  16.988   7.285  0.00  0.00    -0.308 N 
HETATM   10  H   UNK N   1      34.060  16.173   7.661  0.00  0.00     0.182 HD
BRANCH   9  11
HETATM   11  N   UNK N   1      34.177  17.828   6.366  0.00  0.00    -0.248 NA
HETATM   12  H   UNK N   1      33.883  17.540   5.405  0.00  0.00     0.143 HD
HETATM   13  H   UNK N   1      35.211  17.703   6.445  0.00  0.00     0.143 HD
ENDBRANCH   9  11
ENDBRANCH   5   9
BRANCH   6  14
HETATM   14  C   UNK N   1      28.227  17.816   9.000  0.00  0.00     0.267 C 
HETATM   15  O   UNK N   1      27.704  16.956   9.692  0.00  0.00    -0.266 OA
HETATM   16  N   UNK N   1      27.533  18.940   8.696  0.00  0.00    -0.365 N 
HETATM   17  H   UNK N   1      26.573  19.065   9.049  0.00  0.00     0.159 HD
HETATM   18  H   UNK N   1      27.951  19.685   8.122  0.00  0.00     0.159 HD
ENDBRANCH   6  14
TORSDOF 3
ENDMDL
MODEL 4
REMARK VINA RESULT:      -5.1     10.610     11.226
REMARK  3 active torsions:
REMARK  status: ('A' for Active; 'I' for Inactive)
REMARK    1  A    between atoms: N_2  and  N_7 
REMARK    2  A    between atoms: N_2  and  C_9 
REMARK       I    between atoms: N_8  and  C_13 
REMARK    3  A    between atoms: C_10  and  C_13 
ROOT
HETATM    1  N   UNK N   1      23.470  12.726  10.845  0.00  0.00    -0.284 N 
ATOM      2  HN  UNK N   1      24.468  12.658  11.048  1.00  0.00     0.188 HD
HETATM    3  N   UNK N   1      23.068  13.333   9.724  0.00  0.00    -0.294 N 
ATOM      4  HN  UNK N   1      23.766  13.728   9.094  1.00  0.00     0.187 HD
HETATM    5  C   UNK N   1      22.575  12.196  11.723  0.00  0.00     0.130 A 
HETATM    6  C   UNK N   1      21.749  13.436   9.404  0.00  0.00     0.115 A 
HETATM    7  C   UNK N   1      21.212  12.270  11.437  0.00  0.00     0.053 A 
HETATM    8  C   UNK N   1      20.794  12.890  10.265  0.00  0.00     0.040 A 
ENDROOT
BRANCH   5   9
HETATM    9  N   UNK N   1      23.035  11.580  12.916  0.00  0.00    -0.308 N 
HETATM   10  H   UNK N   1      22.880  10.570  13.056  0.00  0.00     0.182 HD
BRANCH   9  11
HETATM   11  N   UNK N   1      23.727  12.313  13.877  0.00  0.00    -0.248 NA
HETATM   12  H   UNK N   1      23.818  13.298  13.537  0.00  0.00     0.143 HD
HETATM   13  H   UNK N   1      24.686  11.911  13.980  0.00  0.00     0.143 HD
ENDBRANCH   9  11
ENDBRANCH   5   9
BRANCH   6  14
HETATM   14  C   UNK N   1      21.323  14.142   8.173  0.00  0.00     0.267 C 
HETATM   15  O   UNK N   1      20.167  14.048   7.791  0.00  0.00    -0.266 OA
HETATM   16  N   UNK N   1      22.196  14.906   7.474  0.00  0.00    -0.365 N 
HETATM   17  H   UNK N   1      21.883  15.405   6.628  0.00  0.00     0.159 HD
HETATM   18  H   UNK N   1      23.174  15.011   7.777  0.00  0.00     0.159 HD
ENDBRANCH   6  14
TORSDOF 3
ENDMDL
MODEL 5
REMARK VINA RESULT:      -5.0     12.205     12.675
REMARK  3 active torsions:
REMARK  status: ('A' for Active; 'I' for Inactive)
REMARK    1  A    between atoms: N_2  and  N_7 
REMARK    2  A    between atoms: N_2  and  C_9 
REMARK       I    between atoms: N_8  and  C_13 
REMARK    3  A    between atoms: C_10  and  C_13 
ROOT
HETATM    1  N   UNK N   1      19.065  17.580   2.632  0.00  0.00    -0.284 N 
ATOM      2  HN  UNK N   1      18.292  17.072   2.201  1.00  0.00     0.188 HD
HETATM    3  N   UNK N   1      19.482  18.727   2.086  0.00  0.00    -0.294 N 
ATOM      4  HN  UNK N   1      19.027  19.070   1.240  1.00  0.00     0.187 HD
HETATM    5  C   UNK N   1      19.652  17.075   3.752  0.00  0.00     0.130 A 
HETATM    6  C   UNK N   1      20.500  19.447   2.632  0.00  0.00     0.115 A 
HETATM    7  C   UNK N   1      20.695  17.779   4.353  0.00  0.00     0.053 A 
HETATM    8  C   UNK N   1      21.120  18.978   3.792  0.00  0.00     0.040 A 
ENDROOT
BRANCH   5   9
HETATM    9  N   UNK N   1      19.201  15.843   4.291  0.00  0.00    -0.308 N 
HETATM   10  H   UNK N   1      19.699  14.972   4.050  0.00  0.00     0.182 HD
BRANCH   9  11
HETATM   11  N   UNK N   1      18.123  15.801   5.173  0.00  0.00    -0.248 NA
HETATM   12  H   UNK N   1      18.135  14.877   5.663  0.00  0.00     0.143 HD
HETATM   13  H   UNK N   1      17.237  15.870   4.624  0.00  0.00     0.143 HD
ENDBRANCH   9  11
ENDBRANCH   5   9
BRANCH   6  14
HETATM   14  C   UNK N   1      20.969  20.698   1.992  0.00  0.00     0.267 C 
HETATM   15  O   UNK N   1      21.829  21.372   2.538  0.00  0.00    -0.266 OA
HETATM   16  N   UNK N   1      20.469  21.096   0.797  0.00  0.00    -0.365 N 
HETATM   17  H   UNK N   1      20.815  21.961   0.355  0.00  0.00     0.159 HD
HETATM   18  H   UNK N   1      19.750  20.544   0.310  0.00  0.00     0.159 HD
ENDBRANCH   6  14
TORSDOF 3
ENDMDL
MODEL 6
REMARK VINA RESULT:      -5.0     12.295     12.980
REMARK  3 active torsions:
REMARK  status: ('A' for Active; 'I' for Inactive)
REMARK    1  A    between atoms: N_2  and  N_7 
REMARK    2  A    between atoms: N_2  and  C_9 
REMARK       I    between atoms: N_8  and  C_13 
REMARK    3  A    between atoms: C_10  and  C_13 
ROOT
HETATM    1  N   UNK N   1      19.448  18.958   1.936  0.00  0.00    -0.284 N 
ATOM      2  HN  UNK N   1      18.844  19.158   1.139  1.00  0.00     0.188 HD
HETATM    3  N   UNK N   1      19.208  17.879   2.688  0.00  0.00    -0.294 N 
ATOM      4  HN  UNK N   1      18.417  17.278   2.458  1.00  0.00     0.187 HD
HETATM    5  C   UNK N   1      20.484  19.797   2.213  0.00  0.00     0.130 A 
HETATM    6  C   UNK N   1      19.994  17.564   3.753  0.00  0.00     0.115 A 
HETATM    7  C   UNK N   1      21.323  19.514   3.290  0.00  0.00     0.053 A 
HETATM    8  C   UNK N   1      21.081  18.385   4.065  0.00  0.00     0.040 A 
ENDROOT
BRANCH   5   9
HETATM    9  N   UNK N   1      20.695  20.947   1.409  0.00  0.00    -0.308 N 
HETATM   10  H   UNK N   1      20.835  21.863   1.863  0.00  0.00     0.182 HD
BRANCH   9  11
HETATM   11  N   UNK N   1      20.760  20.847   0.021  0.00  0.00    -0.248 NA
HETATM   12  H   UNK N   1      21.706  20.486  -0.239  0.00  0.00     0.143 HD
HETATM   13  H   UNK N   1      20.647  21.800  -0.390  0.00  0.00     0.143 HD
ENDBRANCH   9  11
ENDBRANCH   5   9
BRANCH   6  14
HETATM   14  C   UNK N   1      19.691  16.383   4.593  0.00  0.00     0.267 C 
HETATM   15  O   UNK N   1      20.007  16.381   5.774  0.00  0.00    -0.266 OA
HETATM   16  N   UNK N   1      19.051  15.307   4.074  0.00  0.00    -0.365 N 
HETATM   17  H   UNK N   1      18.832  14.497   4.673  0.00  0.00     0.159 HD
HETATM   18  H   UNK N   1      18.765  15.284   3.085  0.00  0.00     0.159 HD
ENDBRANCH   6  14
TORSDOF 3
ENDMDL
MODEL 7
REMARK VINA RESULT:      -4.9     11.088     14.101
REMARK  3 active torsions:
REMARK  status: ('A' for Active; 'I' for Inactive)
REMARK    1  A    between atoms: N_2  and  N_7 
REMARK    2  A    between atoms: N_2  and  C_9 
REMARK       I    between atoms: N_8  and  C_13 
REMARK    3  A    between atoms: C_10  and  C_13 
ROOT
HETATM    1  N   UNK N   1      43.186  23.450   2.397  0.00  0.00    -0.284 N 
ATOM      2  HN  UNK N   1      43.121  24.370   1.962  1.00  0.00     0.188 HD
HETATM    3  N   UNK N   1      42.099  22.673   2.456  0.00  0.00    -0.294 N 
ATOM      4  HN  UNK N   1      41.219  23.019   2.075  1.00  0.00     0.187 HD
HETATM    5  C   UNK N   1      44.379  23.037   2.905  0.00  0.00     0.130 A 
HETATM    6  C   UNK N   1      42.140  21.433   3.015  0.00  0.00     0.115 A 
HETATM    7  C   UNK N   1      44.474  21.770   3.482  0.00  0.00     0.053 A 
HETATM    8  C   UNK N   1      43.347  20.958   3.533  0.00  0.00     0.040 A 
ENDROOT
BRANCH   5   9
HETATM    9  N   UNK N   1      45.507  23.896   2.848  0.00  0.00    -0.308 N 
HETATM   10  H   UNK N   1      46.455  23.489   2.883  0.00  0.00     0.182 HD
BRANCH   9  11
HETATM   11  N   UNK N   1      45.350  25.272   2.701  0.00  0.00    -0.248 NA
HETATM   12  H   UNK N   1      46.193  25.649   2.210  0.00  0.00     0.143 HD
HETATM   13  H   UNK N   1      45.301  25.707   3.650  0.00  0.00     0.143 HD
ENDBRANCH   9  11
ENDBRANCH   5   9
BRANCH   6  14
HETATM   14  C   UNK N   1      40.917  20.602   3.101  0.00  0.00     0.267 C 
HETATM   15  O   UNK N   1      40.928  19.574   3.761  0.00  0.00    -0.266 OA
HETATM   16  N   UNK N   1      39.777  20.976   2.470  0.00  0.00    -0.365 N 
HETATM   17  H   UNK N   1      38.928  20.398   2.551  0.00  0.00     0.159 HD
HETATM   18  H   UNK N   1      39.736  21.842   1.914  0.00  0.00     0.159 HD
ENDBRANCH   6  14
TORSDOF 3
ENDMDL
MODEL 8
REMARK VINA RESULT:      -4.9      3.413      5.629
REMARK  3 active torsions:
REMARK  status: ('A' for Active; 'I' for Inactive)
REMARK    1  A    between atoms: N_2  and  N_7 
REMARK    2  A    between atoms: N_2  and  C_9 
REMARK       I    between atoms: N_8  and  C_13 
REMARK    3  A    between atoms: C_10  and  C_13 
ROOT
HETATM    1  N   UNK N   1      35.179  16.955  10.939  0.00  0.00    -0.284 N 
ATOM      2  HN  UNK N   1      35.210  17.517  11.790  1.00  0.00     0.188 HD
HETATM    3  N   UNK N   1      34.586  17.450   9.847  0.00  0.00    -0.294 N 
ATOM      4  HN  UNK N   1      34.165  18.378   9.887  1.00  0.00     0.187 HD
HETATM    5  C   UNK N   1      35.743  15.716  10.938  0.00  0.00     0.130 A 
HETATM    6  C   UNK N   1      34.532  16.745   8.685  0.00  0.00     0.115 A 
HETATM    7  C   UNK N   1      35.719  14.956   9.768  0.00  0.00     0.053 A 
HETATM    8  C   UNK N   1      35.113  15.476   8.630  0.00  0.00     0.040 A 
ENDROOT
BRANCH   5   9
HETATM    9  N   UNK N   1      36.342  15.212  12.121  0.00  0.00    -0.308 N 
HETATM   10  H   UNK N   1      36.235  15.734  13.004  0.00  0.00     0.182 HD
BRANCH   9  11
HETATM   11  N   UNK N   1      37.034  14.003  12.111  0.00  0.00    -0.248 NA
HETATM   12  H   UNK N   1      37.662  13.991  11.275  0.00  0.00     0.143 HD
HETATM   13  H   UNK N   1      36.346  13.223  12.017  0.00  0.00     0.143 HD
ENDBRANCH   9  11
ENDBRANCH   5   9
BRANCH   6  14
HETATM   14  C   UNK N   1      33.841  17.297   7.497  0.00  0.00     0.267 C 
HETATM   15  O   UNK N   1      34.491  17.837   6.614  0.00  0.00    -0.266 OA
HETATM   16  N   UNK N   1      32.496  17.196   7.366  0.00  0.00    -0.365 N 
HETATM   17  H   UNK N   1      32.029  17.570   6.527  0.00  0.00     0.159 HD
HETATM   18  H   UNK N   1      31.924  16.738   8.089  0.00  0.00     0.159 HD
ENDBRANCH   6  14
TORSDOF 3
ENDMDL
MODEL 9
REMARK VINA RESULT:      -4.7      9.341     10.812
REMARK  3 active torsions:
REMARK  status: ('A' for Active; 'I' for Inactive)
REMARK    1  A    between atoms: N_2  and  N_7 
REMARK    2  A    between atoms: N_2  and  C_9 
REMARK       I    between atoms: N_8  and  C_13 
REMARK    3  A    between atoms: C_10  and  C_13 
ROOT
HETATM    1  N   UNK N   1      22.306  20.479   2.469  0.00  0.00    -0.284 N 
ATOM      2  HN  UNK N   1      22.563  21.361   2.027  1.00  0.00     0.188 HD
HETATM    3  N   UNK N   1      23.146  19.914   3.342  0.00  0.00    -0.294 N 
ATOM      4  HN  UNK N   1      24.036  20.370   3.544  1.00  0.00     0.187 HD
HETATM    5  C   UNK N   1      21.115  19.900   2.157  0.00  0.00     0.130 A 
HETATM    6  C   UNK N   1      22.842  18.744   3.968  0.00  0.00     0.115 A 
HETATM    7  C   UNK N   1      20.754  18.703   2.776  0.00  0.00     0.053 A 
HETATM    8  C   UNK N   1      21.622  18.122   3.693  0.00  0.00     0.040 A 
ENDROOT
BRANCH   5   9
HETATM    9  N   UNK N   1      20.258  20.514   1.207  0.00  0.00    -0.308 N 
HETATM   10  H   UNK N   1      19.270  20.681   1.451  0.00  0.00     0.182 HD
BRANCH   9  11
HETATM   11  N   UNK N   1      20.745  20.929  -0.031  0.00  0.00    -0.248 NA
HETATM   12  H   UNK N   1      21.751  20.652  -0.098  0.00  0.00     0.143 HD
HETATM   13  H   UNK N   1      20.687  21.971  -0.082  0.00  0.00     0.143 HD
ENDBRANCH   9  11
ENDBRANCH   5   9
BRANCH   6  14
HETATM   14  C   UNK N   1      23.801  18.117   4.907  0.00  0.00     0.267 C 
HETATM   15  O   UNK N   1      24.958  18.507   4.942  0.00  0.00    -0.266 OA
HETATM   16  N   UNK N   1      23.406  17.127   5.743  0.00  0.00    -0.365 N 
HETATM   17  H   UNK N   1      24.079  16.710   6.404  0.00  0.00     0.159 HD
HETATM   18  H   UNK N   1      22.435  16.784   5.743  0.00  0.00     0.159 HD
ENDBRANCH   6  14
TORSDOF 3
ENDMDL
