MODEL 1
REMARK VINA RESULT:      -6.0      0.000      0.000
REMARK  7 active torsions:
REMARK  status: ('A' for Active; 'I' for Inactive)
REMARK    1  A    between atoms: C_1  and  C_2 
REMARK    2  A    between atoms: C_1  and  O_3 
REMARK    3  A    between atoms: C_1  and  C_4 
REMARK    4  A    between atoms: O_3  and  C_7 
REMARK    5  A    between atoms: C_4  and  C_8 
REMARK    6  A    between atoms: C_8  and  N_13 
REMARK    7  A    between atoms: C_12  and  O_19 
ROOT
HETATM    1  C   UNK N   1      32.934  17.468   6.867  0.00  0.00     0.163 C 
ENDROOT
BRANCH   1   2
HETATM    2  C   UNK N   1      33.061  16.950   5.445  0.00  0.00    -0.029 A 
HETATM    3  C   UNK N   1      32.347  17.563   4.402  0.00  0.00     0.010 A 
HETATM    4  C   UNK N   1      32.428  17.075   3.096  0.00  0.00     0.001 A 
HETATM    5  C   UNK N   1      33.231  15.968   2.816  0.00  0.00     0.000 A 
HETATM    6  C   UNK N   1      33.942  15.345   3.845  0.00  0.00     0.001 A 
HETATM    7  C   UNK N   1      33.848  15.825   5.156  0.00  0.00     0.010 A 
ENDBRANCH   1   2
BRANCH   1   8
HETATM    8  O   UNK N   1      31.996  16.895   7.714  0.00  0.00    -0.338 OA
BRANCH   8   9
HETATM    9  C   UNK N   1      30.784  17.396   8.073  0.00  0.00     0.103 A 
HETATM   10  C   UNK N   1      30.646  18.341   9.104  0.00  0.00     0.040 A 
HETATM   11  C   UNK N   1      29.385  18.815   9.471  0.00  0.00     0.003 A 
HETATM   12  C   UNK N   1      28.247  18.362   8.803  0.00  0.00     0.003 A 
HETATM   13  C   UNK N   1      28.372  17.441   7.761  0.00  0.00     0.039 A 
HETATM   14  C   UNK N   1      29.636  16.952   7.391  0.00  0.00     0.101 A 
BRANCH  14  15
HETATM   15  O   UNK N   1      29.775  16.071   6.367  0.00  0.00    -0.353 OA
HETATM   16  C   UNK N   1      28.943  16.051   5.270  0.00  0.00     0.210 C 
ENDBRANCH  14  15
ENDBRANCH   8   9
ENDBRANCH   1   8
BRANCH   1  17
HETATM   17  C   UNK N   1      34.172  17.976   7.616  0.00  0.00     0.056 C 
BRANCH  17  18
HETATM   18  C   UNK N   1      34.774  16.937   8.557  0.00  0.00     0.116 C 
BRANCH  18  19
HETATM   19  N   UNK N   1      34.288  17.124   9.914  0.00  0.00    -0.425 N 
HETATM   20  C   UNK N   1      35.256  16.485  10.788  0.00  0.00     0.139 C 
HETATM   21  H   UNK N   1      33.435  17.607  10.197  0.00  0.00     0.152 HD
ENDBRANCH  18  19
ENDBRANCH  17  18
ENDBRANCH   1  17
TORSDOF 7
ENDMDL
MODEL 2
REMARK VINA RESULT:      -5.7      1.404      5.079
REMARK  7 active torsions:
REMARK  status: ('A' for Active; 'I' for Inactive)
REMARK    1  A    between atoms: C_1  and  C_2 
REMARK    2  A    between atoms: C_1  and  O_3 
REMARK    3  A    between atoms: C_1  and  C_4 
REMARK    4  A    between atoms: O_3  and  C_7 
REMARK    5  A    between atoms: C_4  and  C_8 
REMARK    6  A    between atoms: C_8  and  N_13 
REMARK    7  A    between atoms: C_12  and  O_19 
ROOT
HETATM    1  C   UNK N   1      33.167  17.626   7.535  0.00  0.00     0.163 C 
ENDROOT
BRANCH   1   2
HETATM    2  C   UNK N   1      31.691  17.751   7.868  0.00  0.00    -0.029 A 
HETATM    3  C   UNK N   1      31.268  18.611   8.896  0.00  0.00     0.010 A 
HETATM    4  C   UNK N   1      29.918  18.710   9.235  0.00  0.00     0.001 A 
HETATM    5  C   UNK N   1      28.970  17.951   8.546  0.00  0.00     0.000 A 
HETATM    6  C   UNK N   1      29.377  17.088   7.525  0.00  0.00     0.001 A 
HETATM    7  C   UNK N   1      30.733  16.978   7.196  0.00  0.00     0.010 A 
ENDBRANCH   1   2
BRANCH   1   8
HETATM    8  O   UNK N   1      33.597  17.916   6.247  0.00  0.00    -0.338 OA
BRANCH   8   9
HETATM    9  C   UNK N   1      33.446  17.158   5.130  0.00  0.00     0.103 A 
HETATM   10  C   UNK N   1      32.546  17.510   4.109  0.00  0.00     0.040 A 
HETATM   11  C   UNK N   1      32.389  16.695   2.986  0.00  0.00     0.003 A 
HETATM   12  C   UNK N   1      33.140  15.525   2.861  0.00  0.00     0.003 A 
HETATM   13  C   UNK N   1      34.055  15.176   3.856  0.00  0.00     0.039 A 
HETATM   14  C   UNK N   1      34.213  15.985   4.994  0.00  0.00     0.101 A 
BRANCH  14  15
HETATM   15  O   UNK N   1      35.112  15.669   5.961  0.00  0.00    -0.353 OA
HETATM   16  C   UNK N   1      35.220  14.410   6.509  0.00  0.00     0.210 C 
ENDBRANCH  14  15
ENDBRANCH   8   9
ENDBRANCH   1   8
BRANCH   1  17
HETATM   17  C   UNK N   1      34.227  17.947   8.596  0.00  0.00     0.056 C 
BRANCH  17  18
HETATM   18  C   UNK N   1      34.650  16.729   9.412  0.00  0.00     0.116 C 
BRANCH  18  19
HETATM   19  N   UNK N   1      35.133  17.126  10.724  0.00  0.00    -0.425 N 
HETATM   20  C   UNK N   1      35.575  15.910  11.383  0.00  0.00     0.139 C 
HETATM   21  H   UNK N   1      35.155  18.071  11.107  0.00  0.00     0.152 HD
ENDBRANCH  18  19
ENDBRANCH  17  18
ENDBRANCH   1  17
TORSDOF 7
ENDMDL
MODEL 3
REMARK VINA RESULT:      -5.7      2.836      5.510
REMARK  7 active torsions:
REMARK  status: ('A' for Active; 'I' for Inactive)
REMARK    1  A    between atoms: C_1  and  C_2 
REMARK    2  A    between atoms: C_1  and  O_3 
REMARK    3  A    between atoms: C_1  and  C_4 
REMARK    4  A    between atoms: O_3  and  C_7 
REMARK    5  A    between atoms: C_4  and  C_8 
REMARK    6  A    between atoms: C_8  and  N_13 
REMARK    7  A    between atoms: C_12  and  O_19 
ROOT
HETATM    1  C   UNK N   1      28.846  17.252   4.646  0.00  0.00     0.163 C 
ENDROOT
BRANCH   1   2
HETATM    2  C   UNK N   1      27.767  18.317   4.552  0.00  0.00    -0.029 A 
HETATM    3  C   UNK N   1      28.082  19.665   4.789  0.00  0.00     0.010 A 
HETATM    4  C   UNK N   1      27.093  20.650   4.740  0.00  0.00     0.001 A 
HETATM    5  C   UNK N   1      25.775  20.297   4.449  0.00  0.00     0.000 A 
HETATM    6  C   UNK N   1      25.446  18.958   4.218  0.00  0.00     0.001 A 
HETATM    7  C   UNK N   1      26.435  17.970   4.281  0.00  0.00     0.010 A 
ENDBRANCH   1   2
BRANCH   1   8
HETATM    8  O   UNK N   1      29.076  16.627   5.864  0.00  0.00    -0.338 OA
BRANCH   8   9
HETATM    9  C   UNK N   1      29.202  17.208   7.085  0.00  0.00     0.103 A 
HETATM   10  C   UNK N   1      28.087  17.487   7.895  0.00  0.00     0.040 A 
HETATM   11  C   UNK N   1      28.245  18.113   9.132  0.00  0.00     0.003 A 
HETATM   12  C   UNK N   1      29.520  18.455   9.585  0.00  0.00     0.003 A 
HETATM   13  C   UNK N   1      30.639  18.161   8.802  0.00  0.00     0.039 A 
HETATM   14  C   UNK N   1      30.488  17.540   7.551  0.00  0.00     0.101 A 
BRANCH  14  15
HETATM   15  O   UNK N   1      31.568  17.231   6.787  0.00  0.00    -0.353 OA
HETATM   16  C   UNK N   1      32.860  17.538   7.148  0.00  0.00     0.210 C 
ENDBRANCH  14  15
ENDBRANCH   8   9
ENDBRANCH   1   8
BRANCH   1  17
HETATM   17  C   UNK N   1      29.129  16.334   3.450  0.00  0.00     0.056 C 
BRANCH  17  18
HETATM   18  C   UNK N   1      30.561  16.440   2.935  0.00  0.00     0.116 C 
BRANCH  18  19
HETATM   19  N   UNK N   1      31.322  17.403   3.714  0.00  0.00    -0.425 N 
HETATM   20  C   UNK N   1      32.722  17.144   3.431  0.00  0.00     0.139 C 
HETATM   21  H   UNK N   1      30.946  18.117   4.338  0.00  0.00     0.152 HD
ENDBRANCH  18  19
ENDBRANCH  17  18
ENDBRANCH   1  17
TORSDOF 7
ENDMDL
MODEL 4
REMARK VINA RESULT:      -5.6      3.089      6.200
REMARK  7 active torsions:
REMARK  status: ('A' for Active; 'I' for Inactive)
REMARK    1  A    between atoms: C_1  and  C_2 
REMARK    2  A    between atoms: C_1  and  O_3 
REMARK    3  A    between atoms: C_1  and  C_4 
REMARK    4  A    between atoms: O_3  and  C_7 
REMARK    5  A    between atoms: C_4  and  C_8 
REMARK    6  A    between atoms: C_8  and  N_13 
REMARK    7  A    between atoms: C_12  and  O_19 
ROOT
HETATM    1  C   UNK N   1      28.543  17.099   5.648  0.00  0.00     0.163 C 
ENDROOT
BRANCH   1   2
HETATM    2  C   UNK N   1      27.976  18.505   5.553  0.00  0.00    -0.029 A 
HETATM    3  C   UNK N   1      27.669  19.060   4.299  0.00  0.00     0.010 A 
HETATM    4  C   UNK N   1      27.180  20.364   4.195  0.00  0.00     0.001 A 
HETATM    5  C   UNK N   1      26.987  21.128   5.347  0.00  0.00     0.000 A 
HETATM    6  C   UNK N   1      27.293  20.590   6.600  0.00  0.00     0.001 A 
HETATM    7  C   UNK N   1      27.797  19.288   6.702  0.00  0.00     0.010 A 
ENDBRANCH   1   2
BRANCH   1   8
HETATM    8  O   UNK N   1      29.390  16.781   6.701  0.00  0.00    -0.338 OA
BRANCH   8   9
HETATM    9  C   UNK N   1      30.699  17.114   6.844  0.00  0.00     0.103 A 
HETATM   10  C   UNK N   1      31.591  17.107   5.757  0.00  0.00     0.040 A 
HETATM   11  C   UNK N   1      32.939  17.424   5.940  0.00  0.00     0.003 A 
HETATM   12  C   UNK N   1      33.410  17.767   7.208  0.00  0.00     0.003 A 
HETATM   13  C   UNK N   1      32.530  17.802   8.292  0.00  0.00     0.039 A 
HETATM   14  C   UNK N   1      31.174  17.475   8.119  0.00  0.00     0.101 A 
BRANCH  14  15
HETATM   15  O   UNK N   1      30.303  17.523   9.159  0.00  0.00    -0.353 OA
HETATM   16  C   UNK N   1      29.822  18.700   9.688  0.00  0.00     0.210 C 
ENDBRANCH  14  15
ENDBRANCH   8   9
ENDBRANCH   1   8
BRANCH   1  17
HETATM   17  C   UNK N   1      27.712  15.899   5.178  0.00  0.00     0.056 C 
BRANCH  17  18
HETATM   18  C   UNK N   1      26.286  15.905   5.721  0.00  0.00     0.116 C 
BRANCH  18  19
HETATM   19  N   UNK N   1      26.282  15.770   7.168  0.00  0.00    -0.425 N 
HETATM   20  C   UNK N   1      25.558  14.547   7.464  0.00  0.00     0.139 C 
HETATM   21  H   UNK N   1      26.702  16.410   7.842  0.00  0.00     0.152 HD
ENDBRANCH  18  19
ENDBRANCH  17  18
ENDBRANCH   1  17
TORSDOF 7
ENDMDL
MODEL 5
REMARK VINA RESULT:      -5.6      2.674      5.600
REMARK  7 active torsions:
REMARK  status: ('A' for Active; 'I' for Inactive)
REMARK    1  A    between atoms: C_1  and  C_2 
REMARK    2  A    between atoms: C_1  and  O_3 
REMARK    3  A    between atoms: C_1  and  C_4 
REMARK    4  A    between atoms: O_3  and  C_7 
REMARK    5  A    between atoms: C_4  and  C_8 
REMARK    6  A    between atoms: C_8  and  N_13 
REMARK    7  A    between atoms: C_12  and  O_19 
ROOT
HETATM    1  C   UNK N   1      28.162  17.747   6.545  0.00  0.00     0.163 C 
ENDROOT
BRANCH   1   2
HETATM    2  C   UNK N   1      27.385  18.382   5.405  0.00  0.00    -0.029 A 
HETATM    3  C   UNK N   1      27.671  19.696   5.000  0.00  0.00     0.010 A 
HETATM    4  C   UNK N   1      26.942  20.304   3.976  0.00  0.00     0.001 A 
HETATM    5  C   UNK N   1      25.917  19.600   3.340  0.00  0.00     0.000 A 
HETATM    6  C   UNK N   1      25.618  18.294   3.737  0.00  0.00     0.001 A 
HETATM    7  C   UNK N   1      26.340  17.691   4.773  0.00  0.00     0.010 A 
ENDBRANCH   1   2
BRANCH   1   8
HETATM    8  O   UNK N   1      29.130  16.794   6.256  0.00  0.00    -0.338 OA
BRANCH   8   9
HETATM    9  C   UNK N   1      30.406  17.006   5.842  0.00  0.00     0.103 A 
HETATM   10  C   UNK N   1      30.696  17.562   4.583  0.00  0.00     0.040 A 
HETATM   11  C   UNK N   1      32.018  17.739   4.171  0.00  0.00     0.003 A 
HETATM   12  C   UNK N   1      33.068  17.379   5.018  0.00  0.00     0.003 A 
HETATM   13  C   UNK N   1      32.794  16.849   6.280  0.00  0.00     0.039 A 
HETATM   14  C   UNK N   1      31.466  16.658   6.699  0.00  0.00     0.101 A 
BRANCH  14  15
HETATM   15  O   UNK N   1      31.184  16.161   7.931  0.00  0.00    -0.353 OA
HETATM   16  C   UNK N   1      32.148  15.690   8.794  0.00  0.00     0.210 C 
ENDBRANCH  14  15
ENDBRANCH   8   9
ENDBRANCH   1   8
BRANCH   1  17
HETATM   17  C   UNK N   1      28.494  18.563   7.800  0.00  0.00     0.056 C 
BRANCH  17  18
HETATM   18  C   UNK N   1      28.301  17.781   9.096  0.00  0.00     0.116 C 
BRANCH  18  19
HETATM   19  N   UNK N   1      29.472  17.892   9.948  0.00  0.00    -0.425 N 
HETATM   20  C   UNK N   1      30.272  18.977   9.407  0.00  0.00     0.139 C 
HETATM   21  H   UNK N   1      29.691  17.320  10.764  0.00  0.00     0.152 HD
ENDBRANCH  18  19
ENDBRANCH  17  18
ENDBRANCH   1  17
TORSDOF 7
ENDMDL
MODEL 6
REMARK VINA RESULT:      -5.5      3.259      5.873
REMARK  7 active torsions:
REMARK  status: ('A' for Active; 'I' for Inactive)
REMARK    1  A    between atoms: C_1  and  C_2 
REMARK    2  A    between atoms: C_1  and  O_3 
REMARK    3  A    between atoms: C_1  and  C_4 
REMARK    4  A    between atoms: O_3  and  C_7 
REMARK    5  A    between atoms: C_4  and  C_8 
REMARK    6  A    between atoms: C_8  and  N_13 
REMARK    7  A    between atoms: C_12  and  O_19 
ROOT
HETATM    1  C   UNK N   1      29.226  17.189   5.556  0.00  0.00     0.163 C 
ENDROOT
BRANCH   1   2
HETATM    2  C   UNK N   1      29.382  17.617   7.005  0.00  0.00    -0.029 A 
HETATM    3  C   UNK N   1      28.259  18.015   7.750  0.00  0.00     0.010 A 
HETATM    4  C   UNK N   1      28.394  18.443   9.072  0.00  0.00     0.001 A 
HETATM    5  C   UNK N   1      29.655  18.474   9.668  0.00  0.00     0.000 A 
HETATM    6  C   UNK N   1      30.781  18.086   8.937  0.00  0.00     0.001 A 
HETATM    7  C   UNK N   1      30.648  17.671   7.607  0.00  0.00     0.010 A 
ENDBRANCH   1   2
BRANCH   1   8
HETATM    8  O   UNK N   1      28.790  18.117   4.620  0.00  0.00    -0.338 OA
BRANCH   8   9
HETATM    9  C   UNK N   1      27.508  18.438   4.304  0.00  0.00     0.103 A 
HETATM   10  C   UNK N   1      26.636  17.514   3.702  0.00  0.00     0.040 A 
HETATM   11  C   UNK N   1      25.334  17.883   3.360  0.00  0.00     0.003 A 
HETATM   12  C   UNK N   1      24.880  19.175   3.629  0.00  0.00     0.003 A 
HETATM   13  C   UNK N   1      25.727  20.096   4.248  0.00  0.00     0.039 A 
HETATM   14  C   UNK N   1      27.043  19.736   4.587  0.00  0.00     0.101 A 
BRANCH  14  15
HETATM   15  O   UNK N   1      27.872  20.614   5.207  0.00  0.00    -0.353 OA
HETATM   16  C   UNK N   1      27.476  21.417   6.254  0.00  0.00     0.210 C 
ENDBRANCH  14  15
ENDBRANCH   8   9
ENDBRANCH   1   8
BRANCH   1  17
HETATM   17  C   UNK N   1      30.175  16.145   4.954  0.00  0.00     0.056 C 
BRANCH  17  18
HETATM   18  C   UNK N   1      30.905  16.643   3.710  0.00  0.00     0.116 C 
BRANCH  18  19
HETATM   19  N   UNK N   1      31.592  17.896   3.979  0.00  0.00    -0.425 N 
HETATM   20  C   UNK N   1      32.884  17.542   4.538  0.00  0.00     0.139 C 
HETATM   21  H   UNK N   1      31.235  18.837   3.810  0.00  0.00     0.152 HD
ENDBRANCH  18  19
ENDBRANCH  17  18
ENDBRANCH   1  17
TORSDOF 7
ENDMDL
MODEL 7
REMARK VINA RESULT:      -5.4      2.778      5.868
REMARK  7 active torsions:
REMARK  status: ('A' for Active; 'I' for Inactive)
REMARK    1  A    between atoms: C_1  and  C_2 
REMARK    2  A    between atoms: C_1  and  O_3 
REMARK    3  A    between atoms: C_1  and  C_4 
REMARK    4  A    between atoms: O_3  and  C_7 
REMARK    5  A    between atoms: C_4  and  C_8 
REMARK    6  A    between atoms: C_8  and  N_13 
REMARK    7  A    between atoms: C_12  and  O_19 
ROOT
HETATM    1  C   UNK N   1      28.682  16.916   5.563  0.00  0.00     0.163 C 
ENDROOT
BRANCH   1   2
HETATM    2  C   UNK N   1      28.131  18.329   5.488  0.00  0.00    -0.029 A 
HETATM    3  C   UNK N   1      27.957  19.084   6.660  0.00  0.00     0.010 A 
HETATM    4  C   UNK N   1      27.420  20.371   6.609  0.00  0.00     0.001 A 
HETATM    5  C   UNK N   1      27.053  20.923   5.380  0.00  0.00     0.000 A 
HETATM    6  C   UNK N   1      27.215  20.182   4.207  0.00  0.00     0.001 A 
HETATM    7  C   UNK N   1      27.740  18.885   4.261  0.00  0.00     0.010 A 
ENDBRANCH   1   2
BRANCH   1   8
HETATM    8  O   UNK N   1      29.549  16.581   6.594  0.00  0.00    -0.338 OA
BRANCH   8   9
HETATM    9  C   UNK N   1      30.819  17.023   6.788  0.00  0.00     0.103 A 
HETATM   10  C   UNK N   1      31.775  17.012   5.757  0.00  0.00     0.040 A 
HETATM   11  C   UNK N   1      33.082  17.443   5.993  0.00  0.00     0.003 A 
HETATM   12  C   UNK N   1      33.446  17.906   7.259  0.00  0.00     0.003 A 
HETATM   13  C   UNK N   1      32.501  17.945   8.285  0.00  0.00     0.039 A 
HETATM   14  C   UNK N   1      31.186  17.504   8.058  0.00  0.00     0.101 A 
BRANCH  14  15
HETATM   15  O   UNK N   1      30.250  17.554   9.041  0.00  0.00    -0.353 OA
HETATM   16  C   UNK N   1      29.921  18.711   9.712  0.00  0.00     0.210 C 
ENDBRANCH  14  15
ENDBRANCH   8   9
ENDBRANCH   1   8
BRANCH   1  17
HETATM   17  C   UNK N   1      27.824  15.729   5.107  0.00  0.00     0.056 C 
BRANCH  17  18
HETATM   18  C   UNK N   1      28.574  14.758   4.199  0.00  0.00     0.116 C 
BRANCH  18  19
HETATM   19  N   UNK N   1      29.642  14.091   4.924  0.00  0.00    -0.425 N 
HETATM   20  C   UNK N   1      30.726  13.903   3.976  0.00  0.00     0.139 C 
HETATM   21  H   UNK N   1      29.632  13.809   5.904  0.00  0.00     0.152 HD
ENDBRANCH  18  19
ENDBRANCH  17  18
ENDBRANCH   1  17
TORSDOF 7
ENDMDL
MODEL 8
REMARK VINA RESULT:      -5.4      2.010      2.943
REMARK  7 active torsions:
REMARK  status: ('A' for Active; 'I' for Inactive)
REMARK    1  A    between atoms: C_1  and  C_2 
REMARK    2  A    between atoms: C_1  and  O_3 
REMARK    3  A    between atoms: C_1  and  C_4 
REMARK    4  A    between atoms: O_3  and  C_7 
REMARK    5  A    between atoms: C_4  and  C_8 
REMARK    6  A    between atoms: C_8  and  N_13 
REMARK    7  A    between atoms: C_12  and  O_19 
ROOT
HETATM    1  C   UNK N   1      30.881  16.732   6.592  0.00  0.00     0.163 C 
ENDROOT
BRANCH   1   2
HETATM    2  C   UNK N   1      31.667  16.399   5.335  0.00  0.00    -0.029 A 
HETATM    3  C   UNK N   1      32.175  17.428   4.526  0.00  0.00     0.010 A 
HETATM    4  C   UNK N   1      32.869  17.137   3.350  0.00  0.00     0.001 A 
HETATM    5  C   UNK N   1      33.068  15.808   2.972  0.00  0.00     0.000 A 
HETATM    6  C   UNK N   1      32.563  14.774   3.764  0.00  0.00     0.001 A 
HETATM    7  C   UNK N   1      31.855  15.068   4.935  0.00  0.00     0.010 A 
ENDBRANCH   1   2
BRANCH   1   8
HETATM    8  O   UNK N   1      29.507  16.911   6.503  0.00  0.00    -0.338 OA
BRANCH   8   9
HETATM    9  C   UNK N   1      28.834  18.067   6.261  0.00  0.00     0.103 A 
HETATM   10  C   UNK N   1      28.662  18.570   4.960  0.00  0.00     0.040 A 
HETATM   11  C   UNK N   1      27.993  19.776   4.745  0.00  0.00     0.003 A 
HETATM   12  C   UNK N   1      27.472  20.488   5.827  0.00  0.00     0.003 A 
HETATM   13  C   UNK N   1      27.614  19.988   7.122  0.00  0.00     0.039 A 
HETATM   14  C   UNK N   1      28.295  18.780   7.349  0.00  0.00     0.101 A 
BRANCH  14  15
HETATM   15  O   UNK N   1      28.425  18.271   8.601  0.00  0.00    -0.353 OA
HETATM   16  C   UNK N   1      29.365  18.717   9.503  0.00  0.00     0.210 C 
ENDBRANCH  14  15
ENDBRANCH   8   9
ENDBRANCH   1   8
BRANCH   1  17
HETATM   17  C   UNK N   1      31.313  16.157   7.946  0.00  0.00     0.056 C 
BRANCH  17  18
HETATM   18  C   UNK N   1      32.705  16.611   8.376  0.00  0.00     0.116 C 
BRANCH  18  19
HETATM   19  N   UNK N   1      32.839  18.053   8.260  0.00  0.00    -0.425 N 
HETATM   20  C   UNK N   1      34.243  18.315   7.998  0.00  0.00     0.139 C 
HETATM   21  H   UNK N   1      32.094  18.745   8.348  0.00  0.00     0.152 HD
ENDBRANCH  18  19
ENDBRANCH  17  18
ENDBRANCH   1  17
TORSDOF 7
ENDMDL
MODEL 9
REMARK VINA RESULT:      -5.4     13.298     15.845
REMARK  7 active torsions:
REMARK  status: ('A' for Active; 'I' for Inactive)
REMARK    1  A    between atoms: C_1  and  C_2 
REMARK    2  A    between atoms: C_1  and  O_3 
REMARK    3  A    between atoms: C_1  and  C_4 
REMARK    4  A    between atoms: O_3  and  C_7 
REMARK    5  A    between atoms: C_4  and  C_8 
REMARK    6  A    between atoms: C_8  and  N_13 
REMARK    7  A    between atoms: C_12  and  O_19 
ROOT
HETATM    1  C   UNK N   1      27.226  24.144  -4.838  0.00  0.00     0.163 C 
ENDROOT
BRANCH   1   2
HETATM    2  C   UNK N   1      26.497  25.469  -4.693  0.00  0.00    -0.029 A 
HETATM    3  C   UNK N   1      25.719  25.967  -5.751  0.00  0.00     0.010 A 
HETATM    4  C   UNK N   1      25.071  27.200  -5.644  0.00  0.00     0.001 A 
HETATM    5  C   UNK N   1      25.191  27.948  -4.471  0.00  0.00     0.000 A 
HETATM    6  C   UNK N   1      25.966  27.467  -3.413  0.00  0.00     0.001 A 
HETATM    7  C   UNK N   1      26.626  26.238  -3.527  0.00  0.00     0.010 A 
ENDBRANCH   1   2
BRANCH   1   8
HETATM    8  O   UNK N   1      27.530  23.675  -6.108  0.00  0.00    -0.338 OA
BRANCH   8   9
HETATM    9  C   UNK N   1      26.884  22.710  -6.814  0.00  0.00     0.103 A 
HETATM   10  C   UNK N   1      25.493  22.525  -6.720  0.00  0.00     0.040 A 
HETATM   11  C   UNK N   1      24.861  21.505  -7.434  0.00  0.00     0.003 A 
HETATM   12  C   UNK N   1      25.607  20.667  -8.264  0.00  0.00     0.003 A 
HETATM   13  C   UNK N   1      26.985  20.855  -8.385  0.00  0.00     0.039 A 
HETATM   14  C   UNK N   1      27.631  21.873  -7.663  0.00  0.00     0.101 A 
BRANCH  14  15
HETATM   15  O   UNK N   1      28.968  22.080  -7.786  0.00  0.00    -0.353 OA
HETATM   16  C   UNK N   1      29.752  21.422  -8.706  0.00  0.00     0.210 C 
ENDBRANCH  14  15
ENDBRANCH   8   9
ENDBRANCH   1   8
BRANCH   1  17
HETATM   17  C   UNK N   1      28.258  23.714  -3.788  0.00  0.00     0.056 C 
BRANCH  17  18
HETATM   18  C   UNK N   1      29.646  23.470  -4.374  0.00  0.00     0.116 C 
BRANCH  18  19
HETATM   19  N   UNK N   1      29.794  22.088  -4.798  0.00  0.00    -0.425 N 
HETATM   20  C   UNK N   1      30.527  21.411  -3.743  0.00  0.00     0.139 C 
HETATM   21  H   UNK N   1      29.453  21.675  -5.667  0.00  0.00     0.152 HD
ENDBRANCH  18  19
ENDBRANCH  17  18
ENDBRANCH   1  17
TORSDOF 7
ENDMDL
