MODEL 1
REMARK VINA RESULT:      -5.9      0.000      0.000
REMARK  4 active torsions:
REMARK  status: ('A' for Active; 'I' for Inactive)
REMARK    1  A    between atoms: O_1  and  C_9 
REMARK    2  A    between atoms: O_1  and  C_13 
REMARK    3  A    between atoms: C_5  and  C_8 
REMARK    4  A    between atoms: C_13  and  C_15 
ROOT
HETATM    1  C   UNK N   1      35.850  13.482  16.603  0.00  0.00    -0.021 A 
HETATM    2  C   UNK N   1      36.572  13.948  15.453  0.00  0.00     0.075 A 
HETATM    3  C   UNK N   1      35.811  14.291  17.752  0.00  0.00     0.010 A 
HETATM    4  C   UNK N   1      37.227  15.185  15.527  0.00  0.00     0.037 A 
HETATM    5  C   UNK N   1      36.483  15.512  17.800  0.00  0.00     0.001 A 
HETATM    6  C   UNK N   1      37.190  15.957  16.688  0.00  0.00     0.003 A 
ENDROOT
BRANCH   2   7
HETATM    7  O   UNK N   1      36.657  13.285  14.265  0.00  0.00    -0.343 OA
BRANCH   7   8
HETATM    8  C   UNK N   1      35.618  13.039  13.399  0.00  0.00     0.251 C 
BRANCH   8   9
HETATM    9  C   UNK N   1      35.488  14.098  12.349  0.00  0.00     0.097 A 
HETATM   10  N   UNK N   1      36.451  15.060  12.060  0.00  0.00    -0.377 N 
HETATM   11  C   UNK N   1      35.969  15.916  11.011  0.00  0.00     0.140 A 
HETATM   12  H   UNK N   1      37.360  15.164  12.529  0.00  0.00     0.160 HD
HETATM   13  C   UNK N   1      34.571  15.314  10.704  0.00  0.00     0.140 A 
HETATM   14  N   UNK N   1      34.450  14.207  11.630  0.00  0.00    -0.377 N 
ATOM     15  HN  UNK N   1      33.635  13.596  11.696  1.00  0.00     0.160 HD
ENDBRANCH   8   9
ENDBRANCH   7   8
ENDBRANCH   2   7
BRANCH   1  16
HETATM   16  C   UNK N   1      35.069  12.187  16.642  0.00  0.00     0.021 A 
HETATM   17  C   UNK N   1      35.211  11.467  17.978  0.00  0.00     0.010 A 
HETATM   18  C   UNK N   1      36.011  10.996  16.795  0.00  0.00     0.010 A 
ENDBRANCH   1  16
TORSDOF 4
ENDMDL
MODEL 2
REMARK VINA RESULT:      -5.8      1.465      2.508
REMARK  4 active torsions:
REMARK  status: ('A' for Active; 'I' for Inactive)
REMARK    1  A    between atoms: O_1  and  C_9 
REMARK    2  A    between atoms: O_1  and  C_13 
REMARK    3  A    between atoms: C_5  and  C_8 
REMARK    4  A    between atoms: C_13  and  C_15 
ROOT
HETATM    1  C   UNK N   1      35.093  11.324  16.701  0.00  0.00    -0.021 A 
HETATM    2  C   UNK N   1      35.075  12.712  16.336  0.00  0.00     0.075 A 
HETATM    3  C   UNK N   1      35.160  10.982  18.063  0.00  0.00     0.010 A 
HETATM    4  C   UNK N   1      35.144  13.674  17.353  0.00  0.00     0.037 A 
HETATM    5  C   UNK N   1      35.240  11.962  19.051  0.00  0.00     0.001 A 
HETATM    6  C   UNK N   1      35.232  13.307  18.695  0.00  0.00     0.003 A 
ENDROOT
BRANCH   2   7
HETATM    7  O   UNK N   1      34.974  13.181  15.060  0.00  0.00    -0.343 OA
BRANCH   7   8
HETATM    8  C   UNK N   1      36.004  13.303  14.158  0.00  0.00     0.251 C 
BRANCH   8   9
HETATM    9  C   UNK N   1      35.622  14.119  12.962  0.00  0.00     0.097 A 
HETATM   10  N   UNK N   1      34.597  13.805  12.075  0.00  0.00    -0.377 N 
HETATM   11  C   UNK N   1      34.538  14.805  11.043  0.00  0.00     0.140 A 
HETATM   12  H   UNK N   1      33.985  12.981  12.128  0.00  0.00     0.160 HD
HETATM   13  C   UNK N   1      35.678  15.775  11.453  0.00  0.00     0.140 A 
HETATM   14  N   UNK N   1      36.234  15.185  12.654  0.00  0.00    -0.377 N 
ATOM     15  HN  UNK N   1      37.015  15.575  13.181  1.00  0.00     0.160 HD
ENDBRANCH   8   9
ENDBRANCH   7   8
ENDBRANCH   2   7
BRANCH   1  16
HETATM   16  C   UNK N   1      34.985  10.188  15.707  0.00  0.00     0.021 A 
HETATM   17  C   UNK N   1      35.538   8.880  16.262  0.00  0.00     0.010 A 
HETATM   18  C   UNK N   1      36.371   9.691  15.307  0.00  0.00     0.010 A 
ENDBRANCH   1  16
TORSDOF 4
ENDMDL
MODEL 3
REMARK VINA RESULT:      -5.7      5.051      9.543
REMARK  4 active torsions:
REMARK  status: ('A' for Active; 'I' for Inactive)
REMARK    1  A    between atoms: O_1  and  C_9 
REMARK    2  A    between atoms: O_1  and  C_13 
REMARK    3  A    between atoms: C_5  and  C_8 
REMARK    4  A    between atoms: C_13  and  C_15 
ROOT
HETATM    1  C   UNK N   1      31.176  17.296   7.165  0.00  0.00    -0.021 A 
HETATM    2  C   UNK N   1      32.591  17.480   7.326  0.00  0.00     0.075 A 
HETATM    3  C   UNK N   1      30.654  17.168   5.866  0.00  0.00     0.010 A 
HETATM    4  C   UNK N   1      33.395  17.544   6.181  0.00  0.00     0.037 A 
HETATM    5  C   UNK N   1      31.478  17.249   4.745  0.00  0.00     0.001 A 
HETATM    6  C   UNK N   1      32.847  17.437   4.903  0.00  0.00     0.003 A 
ENDROOT
BRANCH   2   7
HETATM    7  O   UNK N   1      33.231  17.577   8.526  0.00  0.00    -0.343 OA
BRANCH   7   8
HETATM    8  C   UNK N   1      34.592  17.625   8.716  0.00  0.00     0.251 C 
BRANCH   8   9
HETATM    9  C   UNK N   1      35.067  16.608   9.706  0.00  0.00     0.097 A 
HETATM   10  N   UNK N   1      35.498  15.324   9.389  0.00  0.00    -0.377 N 
HETATM   11  C   UNK N   1      35.857  14.631  10.596  0.00  0.00     0.140 A 
HETATM   12  H   UNK N   1      35.540  14.918   8.445  0.00  0.00     0.160 HD
HETATM   13  C   UNK N   1      35.586  15.700  11.688  0.00  0.00     0.140 A 
HETATM   14  N   UNK N   1      35.100  16.847  10.950  0.00  0.00    -0.377 N 
ATOM     15  HN  UNK N   1      34.820  17.731  11.376  1.00  0.00     0.160 HD
ENDBRANCH   8   9
ENDBRANCH   7   8
ENDBRANCH   2   7
BRANCH   1  16
HETATM   16  C   UNK N   1      30.204  17.170   8.317  0.00  0.00     0.021 A 
HETATM   17  C   UNK N   1      28.875  17.859   8.029  0.00  0.00     0.010 A 
HETATM   18  C   UNK N   1      29.889  18.541   8.906  0.00  0.00     0.010 A 
ENDBRANCH   1  16
TORSDOF 4
ENDMDL
MODEL 4
REMARK VINA RESULT:      -5.6      5.819     10.585
REMARK  4 active torsions:
REMARK  status: ('A' for Active; 'I' for Inactive)
REMARK    1  A    between atoms: O_1  and  C_9 
REMARK    2  A    between atoms: O_1  and  C_13 
REMARK    3  A    between atoms: C_5  and  C_8 
REMARK    4  A    between atoms: C_13  and  C_15 
ROOT
HETATM    1  C   UNK N   1      31.619  17.372   5.238  0.00  0.00    -0.021 A 
HETATM    2  C   UNK N   1      31.830  17.120   6.635  0.00  0.00     0.075 A 
HETATM    3  C   UNK N   1      30.304  17.547   4.772  0.00  0.00     0.010 A 
HETATM    4  C   UNK N   1      30.714  17.038   7.479  0.00  0.00     0.037 A 
HETATM    5  C   UNK N   1      29.213  17.447   5.634  0.00  0.00     0.001 A 
HETATM    6  C   UNK N   1      29.418  17.193   6.986  0.00  0.00     0.003 A 
ENDROOT
BRANCH   2   7
HETATM    7  O   UNK N   1      33.050  16.971   7.224  0.00  0.00    -0.343 OA
BRANCH   7   8
HETATM    8  C   UNK N   1      33.553  17.736   8.250  0.00  0.00     0.251 C 
BRANCH   8   9
HETATM    9  C   UNK N   1      34.073  16.905   9.381  0.00  0.00     0.097 A 
HETATM   10  N   UNK N   1      33.579  15.658   9.750  0.00  0.00    -0.377 N 
HETATM   11  C   UNK N   1      34.310  15.173  10.888  0.00  0.00     0.140 A 
HETATM   12  H   UNK N   1      32.801  15.160   9.298  0.00  0.00     0.160 HD
HETATM   13  C   UNK N   1      35.330  16.316  11.141  0.00  0.00     0.140 A 
HETATM   14  N   UNK N   1      35.027  17.296  10.118  0.00  0.00    -0.377 N 
ATOM     15  HN  UNK N   1      35.516  18.185  10.007  1.00  0.00     0.160 HD
ENDBRANCH   8   9
ENDBRANCH   7   8
ENDBRANCH   2   7
BRANCH   1  16
HETATM   16  C   UNK N   1      32.736  17.523   4.229  0.00  0.00     0.021 A 
HETATM   17  C   UNK N   1      32.344  17.003   2.851  0.00  0.00     0.010 A 
HETATM   18  C   UNK N   1      33.209  16.156   3.743  0.00  0.00     0.010 A 
ENDBRANCH   1  16
TORSDOF 4
ENDMDL
MODEL 5
REMARK VINA RESULT:      -5.5      1.513      3.230
REMARK  4 active torsions:
REMARK  status: ('A' for Active; 'I' for Inactive)
REMARK    1  A    between atoms: O_1  and  C_9 
REMARK    2  A    between atoms: O_1  and  C_13 
REMARK    3  A    between atoms: C_5  and  C_8 
REMARK    4  A    between atoms: C_13  and  C_15 
ROOT
HETATM    1  C   UNK N   1      35.248  12.166  16.221  0.00  0.00    -0.021 A 
HETATM    2  C   UNK N   1      34.908  12.541  14.877  0.00  0.00     0.075 A 
HETATM    3  C   UNK N   1      35.056  10.831  16.620  0.00  0.00     0.010 A 
HETATM    4  C   UNK N   1      34.381  11.565  14.020  0.00  0.00     0.037 A 
HETATM    5  C   UNK N   1      34.518   9.887  15.748  0.00  0.00     0.001 A 
HETATM    6  C   UNK N   1      34.180  10.254  14.450  0.00  0.00     0.003 A 
ENDROOT
BRANCH   2   7
HETATM    7  O   UNK N   1      35.079  13.786  14.349  0.00  0.00    -0.343 OA
BRANCH   7   8
HETATM    8  C   UNK N   1      36.122  14.190  13.549  0.00  0.00     0.251 C 
BRANCH   8   9
HETATM    9  C   UNK N   1      35.654  14.743  12.239  0.00  0.00     0.097 A 
HETATM   10  N   UNK N   1      34.470  14.393  11.600  0.00  0.00    -0.377 N 
HETATM   11  C   UNK N   1      34.368  15.110  10.359  0.00  0.00     0.140 A 
HETATM   12  H   UNK N   1      33.777  13.714  11.943  0.00  0.00     0.160 HD
HETATM   13  C   UNK N   1      35.669  15.957  10.354  0.00  0.00     0.140 A 
HETATM   14  N   UNK N   1      36.334  15.593  11.588  0.00  0.00    -0.377 N 
ATOM     15  HN  UNK N   1      37.232  15.969  11.893  1.00  0.00     0.160 HD
ENDBRANCH   8   9
ENDBRANCH   7   8
ENDBRANCH   2   7
BRANCH   1  16
HETATM   16  C   UNK N   1      35.860  13.110  17.232  0.00  0.00     0.021 A 
HETATM   17  C   UNK N   1      35.371  12.835  18.649  0.00  0.00     0.010 A 
HETATM   18  C   UNK N   1      34.785  13.981  17.873  0.00  0.00     0.010 A 
ENDBRANCH   1  16
TORSDOF 4
ENDMDL
MODEL 6
REMARK VINA RESULT:      -5.5      5.794      9.887
REMARK  4 active torsions:
REMARK  status: ('A' for Active; 'I' for Inactive)
REMARK    1  A    between atoms: O_1  and  C_9 
REMARK    2  A    between atoms: O_1  and  C_13 
REMARK    3  A    between atoms: C_5  and  C_8 
REMARK    4  A    between atoms: C_13  and  C_15 
ROOT
HETATM    1  C   UNK N   1      34.409  15.773   5.301  0.00  0.00    -0.021 A 
HETATM    2  C   UNK N   1      33.958  17.072   5.713  0.00  0.00     0.075 A 
HETATM    3  C   UNK N   1      33.904  15.228   4.107  0.00  0.00     0.010 A 
HETATM    4  C   UNK N   1      33.015  17.739   4.919  0.00  0.00     0.037 A 
HETATM    5  C   UNK N   1      32.958  15.911   3.345  0.00  0.00     0.001 A 
HETATM    6  C   UNK N   1      32.514  17.165   3.751  0.00  0.00     0.003 A 
ENDROOT
BRANCH   2   7
HETATM    7  O   UNK N   1      34.394  17.732   6.823  0.00  0.00    -0.343 OA
BRANCH   7   8
HETATM    8  C   UNK N   1      33.665  17.965   7.965  0.00  0.00     0.251 C 
BRANCH   8   9
HETATM    9  C   UNK N   1      34.123  17.125   9.117  0.00  0.00     0.097 A 
HETATM   10  N   UNK N   1      33.522  15.942   9.532  0.00  0.00    -0.377 N 
HETATM   11  C   UNK N   1      34.223  15.428  10.677  0.00  0.00     0.140 A 
HETATM   12  H   UNK N   1      32.695  15.503   9.106  0.00  0.00     0.160 HD
HETATM   13  C   UNK N   1      35.346  16.479  10.880  0.00  0.00     0.140 A 
HETATM   14  N   UNK N   1      35.120  17.450   9.830  0.00  0.00    -0.377 N 
ATOM     15  HN  UNK N   1      35.687  18.285   9.683  1.00  0.00     0.160 HD
ENDBRANCH   8   9
ENDBRANCH   7   8
ENDBRANCH   2   7
BRANCH   1  16
HETATM   16  C   UNK N   1      35.450  14.965   6.044  0.00  0.00     0.021 A 
HETATM   17  C   UNK N   1      35.419  13.491   5.661  0.00  0.00     0.010 A 
HETATM   18  C   UNK N   1      34.783  13.935   6.950  0.00  0.00     0.010 A 
ENDBRANCH   1  16
TORSDOF 4
ENDMDL
MODEL 7
REMARK VINA RESULT:      -5.4      2.254      3.671
REMARK  4 active torsions:
REMARK  status: ('A' for Active; 'I' for Inactive)
REMARK    1  A    between atoms: O_1  and  C_9 
REMARK    2  A    between atoms: O_1  and  C_13 
REMARK    3  A    between atoms: C_5  and  C_8 
REMARK    4  A    between atoms: C_13  and  C_15 
ROOT
HETATM    1  C   UNK N   1      34.524  11.089  14.297  0.00  0.00    -0.021 A 
HETATM    2  C   UNK N   1      34.893  12.460  14.507  0.00  0.00     0.075 A 
HETATM    3  C   UNK N   1      34.524  10.212  15.396  0.00  0.00     0.010 A 
HETATM    4  C   UNK N   1      35.257  12.868  15.797  0.00  0.00     0.037 A 
HETATM    5  C   UNK N   1      34.903  10.645  16.666  0.00  0.00     0.001 A 
HETATM    6  C   UNK N   1      35.270  11.971  16.865  0.00  0.00     0.003 A 
ENDROOT
BRANCH   2   7
HETATM    7  O   UNK N   1      34.898  13.422  13.541  0.00  0.00    -0.343 OA
BRANCH   7   8
HETATM    8  C   UNK N   1      35.893  14.346  13.322  0.00  0.00     0.251 C 
BRANCH   8   9
HETATM    9  C   UNK N   1      36.712  14.026  12.111  0.00  0.00     0.097 A 
HETATM   10  N   UNK N   1      37.648  13.000  12.027  0.00  0.00    -0.377 N 
HETATM   11  C   UNK N   1      38.250  13.009  10.722  0.00  0.00     0.140 A 
HETATM   12  H   UNK N   1      37.892  12.343  12.780  0.00  0.00     0.160 HD
HETATM   13  C   UNK N   1      37.524  14.193  10.028  0.00  0.00     0.140 A 
HETATM   14  N   UNK N   1      36.619  14.698  11.041  0.00  0.00    -0.377 N 
ATOM     15  HN  UNK N   1      35.990  15.491  10.910  1.00  0.00     0.160 HD
ENDBRANCH   8   9
ENDBRANCH   7   8
ENDBRANCH   2   7
BRANCH   1  16
HETATM   16  C   UNK N   1      34.073  10.530  12.965  0.00  0.00     0.021 A 
HETATM   17  C   UNK N   1      34.642   9.141  12.700  0.00  0.00     0.010 A 
HETATM   18  C   UNK N   1      35.265  10.337  12.033  0.00  0.00     0.010 A 
ENDBRANCH   1  16
TORSDOF 4
ENDMDL
MODEL 8
REMARK VINA RESULT:      -5.4      9.232     11.386
REMARK  4 active torsions:
REMARK  status: ('A' for Active; 'I' for Inactive)
REMARK    1  A    between atoms: O_1  and  C_9 
REMARK    2  A    between atoms: O_1  and  C_13 
REMARK    3  A    between atoms: C_5  and  C_8 
REMARK    4  A    between atoms: C_13  and  C_15 
ROOT
HETATM    1  C   UNK N   1      32.418  16.961   5.962  0.00  0.00    -0.021 A 
HETATM    2  C   UNK N   1      31.454  17.145   7.010  0.00  0.00     0.075 A 
HETATM    3  C   UNK N   1      33.758  17.312   6.205  0.00  0.00     0.010 A 
HETATM    4  C   UNK N   1      31.883  17.685   8.230  0.00  0.00     0.037 A 
HETATM    5  C   UNK N   1      34.151  17.859   7.425  0.00  0.00     0.001 A 
HETATM    6  C   UNK N   1      33.215  18.045   8.436  0.00  0.00     0.003 A 
ENDROOT
BRANCH   2   7
HETATM    7  O   UNK N   1      30.135  16.811   6.923  0.00  0.00    -0.343 OA
BRANCH   7   8
HETATM    8  C   UNK N   1      29.094  17.452   7.552  0.00  0.00     0.251 C 
BRANCH   8   9
HETATM    9  C   UNK N   1      28.385  18.411   6.649  0.00  0.00     0.097 A 
HETATM   10  N   UNK N   1      28.632  18.560   5.288  0.00  0.00    -0.377 N 
HETATM   11  C   UNK N   1      27.776  19.586   4.758  0.00  0.00     0.140 A 
HETATM   12  H   UNK N   1      29.327  18.037   4.741  0.00  0.00     0.160 HD
HETATM   13  C   UNK N   1      26.967  20.025   6.008  0.00  0.00     0.140 A 
HETATM   14  N   UNK N   1      27.484  19.195   7.076  0.00  0.00    -0.377 N 
ATOM     15  HN  UNK N   1      27.167  19.236   8.045  1.00  0.00     0.160 HD
ENDBRANCH   8   9
ENDBRANCH   7   8
ENDBRANCH   2   7
BRANCH   1  16
HETATM   16  C   UNK N   1      32.095  16.353   4.615  0.00  0.00     0.021 A 
HETATM   17  C   UNK N   1      33.081  16.784   3.535  0.00  0.00     0.010 A 
HETATM   18  C   UNK N   1      31.730  17.440   3.609  0.00  0.00     0.010 A 
ENDBRANCH   1  16
TORSDOF 4
ENDMDL
MODEL 9
REMARK VINA RESULT:      -5.3     13.292     15.269
REMARK  4 active torsions:
REMARK  status: ('A' for Active; 'I' for Inactive)
REMARK    1  A    between atoms: O_1  and  C_9 
REMARK    2  A    between atoms: O_1  and  C_13 
REMARK    3  A    between atoms: C_5  and  C_8 
REMARK    4  A    between atoms: C_13  and  C_15 
ROOT
HETATM    1  C   UNK N   1      23.290  12.532   9.264  0.00  0.00    -0.021 A 
HETATM    2  C   UNK N   1      22.058  12.607   9.998  0.00  0.00     0.075 A 
HETATM    3  C   UNK N   1      24.462  12.159   9.946  0.00  0.00     0.010 A 
HETATM    4  C   UNK N   1      22.075  12.324  11.371  0.00  0.00     0.037 A 
HETATM    5  C   UNK N   1      24.450  11.896  11.314  0.00  0.00     0.001 A 
HETATM    6  C   UNK N   1      23.258  11.979  12.026  0.00  0.00     0.003 A 
ENDROOT
BRANCH   2   7
HETATM    7  O   UNK N   1      20.846  12.916   9.456  0.00  0.00    -0.343 OA
BRANCH   7   8
HETATM    8  C   UNK N   1      20.172  14.105   9.605  0.00  0.00     0.251 C 
BRANCH   8   9
HETATM    9  C   UNK N   1      20.395  15.036   8.455  0.00  0.00     0.097 A 
HETATM   10  N   UNK N   1      20.655  16.398   8.568  0.00  0.00    -0.377 N 
HETATM   11  C   UNK N   1      20.793  16.967   7.255  0.00  0.00     0.140 A 
HETATM   12  H   UNK N   1      20.722  16.928   9.446  0.00  0.00     0.160 HD
HETATM   13  C   UNK N   1      20.587  15.735   6.333  0.00  0.00     0.140 A 
HETATM   14  N   UNK N   1      20.349  14.640   7.251  0.00  0.00    -0.377 N 
ATOM     15  HN  UNK N   1      20.167  13.677   6.967  1.00  0.00     0.160 HD
ENDBRANCH   8   9
ENDBRANCH   7   8
ENDBRANCH   2   7
BRANCH   1  16
HETATM   16  C   UNK N   1      23.402  12.773   7.775  0.00  0.00     0.021 A 
HETATM   17  C   UNK N   1      24.842  13.011   7.335  0.00  0.00     0.010 A 
HETATM   18  C   UNK N   1      23.913  14.183   7.497  0.00  0.00     0.010 A 
ENDBRANCH   1  16
TORSDOF 4
ENDMDL
