MODEL 1
REMARK VINA RESULT:      -6.2      0.000      0.000
REMARK  7 active torsions:
REMARK  status: ('A' for Active; 'I' for Inactive)
REMARK    1  A    between atoms: O_2  and  C_19 
REMARK    2  A    between atoms: O_2  and  C_26 
REMARK    3  A    between atoms: O_3  and  C_20 
REMARK    4  A    between atoms: O_3  and  C_27 
REMARK    5  A    between atoms: C_11  and  C_12 
REMARK    6  A    between atoms: C_13  and  C_19 
REMARK    7  A    between atoms: C_14  and  C_20 
ROOT
HETATM    1  N   UNK N   1      29.404  22.160  -6.709  0.00  0.00    -0.362 N 
HETATM    2  C   UNK N   1      27.747  23.931  -5.261  0.00  0.00     0.103 C 
HETATM    3  C   UNK N   1      29.086  23.427  -4.686  0.00  0.00     0.052 C 
HETATM    4  C   UNK N   1      27.210  23.111  -6.442  0.00  0.00     0.052 C 
HETATM    5  C   UNK N   1      29.848  22.581  -5.433  0.00  0.00     0.018 C 
HETATM    6  C   UNK N   1      28.065  22.312  -7.136  0.00  0.00     0.018 C 
HETATM    7  C   UNK N   1      31.090  21.931  -4.924  0.00  0.00     0.069 C 
HETATM    8  C   UNK N   1      27.634  21.480  -8.303  0.00  0.00     0.069 C 
HETATM    9  H   UNK N   1      30.052  21.745  -7.322  0.00  0.00     0.165 HD
ENDROOT
BRANCH   2  10
HETATM   10  C   UNK N   1      27.654  25.484  -5.372  0.00  0.00    -0.014 A 
HETATM   11  C   UNK N   1      27.046  26.360  -4.434  0.00  0.00     0.092 A 
HETATM   12  N   UNK N   1      26.390  26.104  -3.291  0.00  0.00    -0.239 N 
HETATM   13  C   UNK N   1      27.082  27.716  -4.577  0.00  0.00     0.086 A 
HETATM   14  O   UNK N   1      26.070  27.270  -2.787  0.00  0.00    -0.156 OA
ATOM     15  HN  UNK N   1      26.182  25.188  -2.895  1.00  0.00     0.197 HD
HETATM   16  N   UNK N   1      26.465  28.272  -3.527  0.00  0.00    -0.240 N 
ATOM     17  HN  UNK N   1      26.333  29.267  -3.344  1.00  0.00     0.197 HD
HETATM   18  C   UNK N   1      27.684  28.350  -5.650  0.00  0.00     0.034 A 
HETATM   19  C   UNK N   1      28.281  27.534  -6.618  0.00  0.00     0.003 A 
HETATM   20  C   UNK N   1      28.274  26.129  -6.473  0.00  0.00     0.011 A 
ENDBRANCH   2  10
BRANCH   3  21
HETATM   21  C   UNK N   1      29.431  23.827  -3.265  0.00  0.00     0.292 C 
HETATM   22  O   UNK N   1      28.713  23.411  -2.368  0.00  0.00    -0.259 OA
BRANCH  21  23
HETATM   23  O   UNK N   1      30.472  24.631  -2.912  0.00  0.00    -0.318 OA
BRANCH  23  24
HETATM   24  C   UNK N   1      31.078  25.545  -3.743  0.00  0.00     0.174 C 
HETATM   25  C   UNK N   1      30.565  26.935  -3.413  0.00  0.00     0.034 C 
ENDBRANCH  23  24
ENDBRANCH  21  23
ENDBRANCH   3  21
BRANCH   4  26
HETATM   26  C   UNK N   1      25.748  23.170  -6.766  0.00  0.00     0.292 C 
HETATM   27  O   UNK N   1      25.008  22.285  -6.358  0.00  0.00    -0.259 OA
BRANCH  26  28
HETATM   28  O   UNK N   1      25.237  24.203  -7.483  0.00  0.00    -0.318 OA
BRANCH  28  29
HETATM   29  C   UNK N   1      25.369  24.306  -8.848  0.00  0.00     0.174 C 
HETATM   30  C   UNK N   1      25.932  25.666  -9.198  0.00  0.00     0.034 C 
ENDBRANCH  28  29
ENDBRANCH  26  28
ENDBRANCH   4  26
TORSDOF 7
ENDMDL
MODEL 2
REMARK VINA RESULT:      -6.1     12.119     14.966
REMARK  7 active torsions:
REMARK  status: ('A' for Active; 'I' for Inactive)
REMARK    1  A    between atoms: O_2  and  C_19 
REMARK    2  A    between atoms: O_2  and  C_26 
REMARK    3  A    between atoms: O_3  and  C_20 
REMARK    4  A    between atoms: O_3  and  C_27 
REMARK    5  A    between atoms: C_11  and  C_12 
REMARK    6  A    between atoms: C_13  and  C_19 
REMARK    7  A    between atoms: C_14  and  C_20 
ROOT
HETATM    1  N   UNK N   1      31.654  17.298   9.131  0.00  0.00    -0.362 N 
HETATM    2  C   UNK N   1      30.999  17.152   6.387  0.00  0.00     0.103 C 
HETATM    3  C   UNK N   1      32.463  17.244   6.863  0.00  0.00     0.052 C 
HETATM    4  C   UNK N   1      29.957  17.547   7.443  0.00  0.00     0.052 C 
HETATM    5  C   UNK N   1      32.719  17.303   8.199  0.00  0.00     0.018 C 
HETATM    6  C   UNK N   1      30.314  17.551   8.756  0.00  0.00     0.018 C 
HETATM    7  C   UNK N   1      34.082  17.527   8.763  0.00  0.00     0.069 C 
HETATM    8  C   UNK N   1      29.367  17.917   9.855  0.00  0.00     0.069 C 
HETATM    9  H   UNK N   1      31.853  17.110  10.076  0.00  0.00     0.165 HD
ENDROOT
BRANCH   2  10
HETATM   10  C   UNK N   1      30.695  15.887   5.526  0.00  0.00    -0.014 A 
HETATM   11  C   UNK N   1      30.107  15.870   4.234  0.00  0.00     0.092 A 
HETATM   12  N   UNK N   1      29.639  16.869   3.469  0.00  0.00    -0.239 N 
HETATM   13  C   UNK N   1      29.951  14.717   3.522  0.00  0.00     0.086 A 
HETATM   14  O   UNK N   1      29.240  16.315   2.351  0.00  0.00    -0.156 OA
ATOM     15  HN  UNK N   1      29.602  17.859   3.708  1.00  0.00     0.197 HD
HETATM   16  N   UNK N   1      29.408  15.018   2.336  0.00  0.00    -0.240 N 
ATOM     17  HN  UNK N   1      29.175  14.373   1.581  1.00  0.00     0.197 HD
HETATM   18  C   UNK N   1      30.326  13.474   4.000  0.00  0.00     0.034 A 
HETATM   19  C   UNK N   1      30.894  13.428   5.279  0.00  0.00     0.003 A 
HETATM   20  C   UNK N   1      31.083  14.615   6.020  0.00  0.00     0.011 A 
ENDBRANCH   2  10
BRANCH   3  21
HETATM   21  C   UNK N   1      33.537  17.370   5.801  0.00  0.00     0.292 C 
HETATM   22  O   UNK N   1      33.376  18.208   4.927  0.00  0.00    -0.259 OA
BRANCH  21  23
HETATM   23  O   UNK N   1      34.661  16.605   5.735  0.00  0.00    -0.318 OA
BRANCH  23  24
HETATM   24  C   UNK N   1      34.678  15.249   5.499  0.00  0.00     0.174 C 
HETATM   25  C   UNK N   1      34.135  14.977   4.109  0.00  0.00     0.034 C 
ENDBRANCH  23  24
ENDBRANCH  21  23
ENDBRANCH   3  21
BRANCH   4  26
HETATM   26  C   UNK N   1      28.590  17.969   6.997  0.00  0.00     0.292 C 
HETATM   27  O   UNK N   1      27.737  17.117   6.792  0.00  0.00    -0.259 OA
BRANCH  26  28
HETATM   28  O   UNK N   1      28.284  19.283   6.845  0.00  0.00    -0.318 OA
BRANCH  28  29
HETATM   29  C   UNK N   1      27.318  19.731   5.976  0.00  0.00     0.174 C 
HETATM   30  C   UNK N   1      27.928  19.934   4.606  0.00  0.00     0.034 C 
ENDBRANCH  28  29
ENDBRANCH  26  28
ENDBRANCH   4  26
TORSDOF 7
ENDMDL
MODEL 3
REMARK VINA RESULT:      -5.9      2.311      4.623
REMARK  7 active torsions:
REMARK  status: ('A' for Active; 'I' for Inactive)
REMARK    1  A    between atoms: O_2  and  C_19 
REMARK    2  A    between atoms: O_2  and  C_26 
REMARK    3  A    between atoms: O_3  and  C_20 
REMARK    4  A    between atoms: O_3  and  C_27 
REMARK    5  A    between atoms: C_11  and  C_12 
REMARK    6  A    between atoms: C_13  and  C_19 
REMARK    7  A    between atoms: C_14  and  C_20 
ROOT
HETATM    1  N   UNK N   1      25.221  24.396  -6.104  0.00  0.00    -0.362 N 
HETATM    2  C   UNK N   1      28.031  24.688  -6.098  0.00  0.00     0.103 C 
HETATM    3  C   UNK N   1      27.095  25.876  -5.796  0.00  0.00     0.052 C 
HETATM    4  C   UNK N   1      27.347  23.493  -6.778  0.00  0.00     0.052 C 
HETATM    5  C   UNK N   1      25.749  25.675  -5.805  0.00  0.00     0.018 C 
HETATM    6  C   UNK N   1      25.993  23.376  -6.706  0.00  0.00     0.018 C 
HETATM    7  C   UNK N   1      24.754  26.776  -5.659  0.00  0.00     0.069 C 
HETATM    8  C   UNK N   1      25.240  22.245  -7.334  0.00  0.00     0.069 C 
HETATM    9  H   UNK N   1      24.280  24.209  -5.885  0.00  0.00     0.165 HD
ENDROOT
BRANCH   2  10
HETATM   10  C   UNK N   1      29.038  24.372  -4.949  0.00  0.00    -0.014 A 
HETATM   11  C   UNK N   1      28.714  23.888  -3.655  0.00  0.00     0.092 A 
HETATM   12  N   UNK N   1      27.526  23.629  -3.087  0.00  0.00    -0.239 N 
HETATM   13  C   UNK N   1      29.671  23.565  -2.738  0.00  0.00     0.086 A 
HETATM   14  O   UNK N   1      27.788  23.161  -1.891  0.00  0.00    -0.156 OA
ATOM     15  HN  UNK N   1      26.604  23.767  -3.500  1.00  0.00     0.197 HD
HETATM   16  N   UNK N   1      29.069  23.104  -1.636  0.00  0.00    -0.240 N 
ATOM     17  HN  UNK N   1      29.515  22.778  -0.777  1.00  0.00     0.197 HD
HETATM   18  C   UNK N   1      31.028  23.702  -2.979  0.00  0.00     0.034 A 
HETATM   19  C   UNK N   1      31.406  24.196  -4.233  0.00  0.00     0.003 A 
HETATM   20  C   UNK N   1      30.427  24.513  -5.201  0.00  0.00     0.011 A 
ENDBRANCH   2  10
BRANCH   3  21
HETATM   21  C   UNK N   1      27.735  27.238  -5.608  0.00  0.00     0.292 C 
HETATM   22  O   UNK N   1      27.937  27.913  -6.605  0.00  0.00    -0.259 OA
BRANCH  21  23
HETATM   23  O   UNK N   1      28.118  27.759  -4.410  0.00  0.00    -0.318 OA
BRANCH  23  24
HETATM   24  C   UNK N   1      27.268  28.046  -3.367  0.00  0.00     0.174 C 
HETATM   25  C   UNK N   1      26.545  29.348  -3.657  0.00  0.00     0.034 C 
ENDBRANCH  23  24
ENDBRANCH  21  23
ENDBRANCH   3  21
BRANCH   4  26
HETATM   26  C   UNK N   1      28.183  22.517  -7.549  0.00  0.00     0.292 C 
HETATM   27  O   UNK N   1      28.409  22.726  -8.733  0.00  0.00    -0.259 OA
BRANCH  26  28
HETATM   28  O   UNK N   1      28.709  21.422  -6.942  0.00  0.00    -0.318 OA
BRANCH  28  29
HETATM   29  C   UNK N   1      30.059  21.159  -6.914  0.00  0.00     0.174 C 
HETATM   30  C   UNK N   1      30.480  20.840  -5.496  0.00  0.00     0.034 C 
ENDBRANCH  28  29
ENDBRANCH  26  28
ENDBRANCH   4  26
TORSDOF 7
ENDMDL
MODEL 4
REMARK VINA RESULT:      -5.8     12.497     15.478
REMARK  7 active torsions:
REMARK  status: ('A' for Active; 'I' for Inactive)
REMARK    1  A    between atoms: O_2  and  C_19 
REMARK    2  A    between atoms: O_2  and  C_26 
REMARK    3  A    between atoms: O_3  and  C_20 
REMARK    4  A    between atoms: O_3  and  C_27 
REMARK    5  A    between atoms: C_11  and  C_12 
REMARK    6  A    between atoms: C_13  and  C_19 
REMARK    7  A    between atoms: C_14  and  C_20 
ROOT
HETATM    1  N   UNK N   1      32.094  17.567   9.082  0.00  0.00    -0.362 N 
HETATM    2  C   UNK N   1      30.959  16.116   6.941  0.00  0.00     0.103 C 
HETATM    3  C   UNK N   1      30.178  17.233   7.663  0.00  0.00     0.052 C 
HETATM    4  C   UNK N   1      32.182  15.595   7.707  0.00  0.00     0.052 C 
HETATM    5  C   UNK N   1      30.779  17.905   8.683  0.00  0.00     0.018 C 
HETATM    6  C   UNK N   1      32.720  16.360   8.696  0.00  0.00     0.018 C 
HETATM    7  C   UNK N   1      30.073  18.907   9.533  0.00  0.00     0.069 C 
HETATM    8  C   UNK N   1      33.914  15.937   9.494  0.00  0.00     0.069 C 
HETATM    9  H   UNK N   1      32.593  18.198   9.650  0.00  0.00     0.165 HD
ENDROOT
BRANCH   2  10
HETATM   10  C   UNK N   1      31.126  16.354   5.408  0.00  0.00    -0.014 A 
HETATM   11  C   UNK N   1      30.236  15.927   4.388  0.00  0.00     0.092 A 
HETATM   12  N   UNK N   1      29.104  15.209   4.455  0.00  0.00    -0.239 N 
HETATM   13  C   UNK N   1      30.426  16.250   3.077  0.00  0.00     0.086 A 
HETATM   14  O   UNK N   1      28.650  15.131   3.229  0.00  0.00    -0.156 OA
ATOM     15  HN  UNK N   1      28.682  14.805   5.290  1.00  0.00     0.197 HD
HETATM   16  N   UNK N   1      29.414  15.744   2.362  0.00  0.00    -0.240 N 
ATOM     17  HN  UNK N   1      29.269  15.820   1.354  1.00  0.00     0.197 HD
HETATM   18  C   UNK N   1      31.503  16.993   2.627  0.00  0.00     0.034 A 
HETATM   19  C   UNK N   1      32.425  17.424   3.588  0.00  0.00     0.003 A 
HETATM   20  C   UNK N   1      32.231  17.118   4.953  0.00  0.00     0.011 A 
ENDBRANCH   2  10
BRANCH   3  21
HETATM   21  C   UNK N   1      28.733  17.449   7.257  0.00  0.00     0.292 C 
HETATM   22  O   UNK N   1      28.014  16.465   7.169  0.00  0.00    -0.259 OA
BRANCH  21  23
HETATM   23  O   UNK N   1      28.178  18.658   6.966  0.00  0.00    -0.318 OA
BRANCH  23  24
HETATM   24  C   UNK N   1      27.420  18.927   5.849  0.00  0.00     0.174 C 
HETATM   25  C   UNK N   1      28.333  19.043   4.643  0.00  0.00     0.034 C 
ENDBRANCH  23  24
ENDBRANCH  21  23
ENDBRANCH   3  21
BRANCH   4  26
HETATM   26  C   UNK N   1      32.722  14.235   7.382  0.00  0.00     0.292 C 
HETATM   27  O   UNK N   1      32.329  13.267   8.020  0.00  0.00    -0.259 OA
BRANCH  26  28
HETATM   28  O   UNK N   1      33.616  14.064   6.375  0.00  0.00    -0.318 OA
BRANCH  28  29
HETATM   29  C   UNK N   1      33.446  13.139   5.372  0.00  0.00     0.174 C 
HETATM   30  C   UNK N   1      33.530  13.831   4.029  0.00  0.00     0.034 C 
ENDBRANCH  28  29
ENDBRANCH  26  28
ENDBRANCH   4  26
TORSDOF 7
ENDMDL
MODEL 5
REMARK VINA RESULT:      -5.7      2.383      5.030
REMARK  7 active torsions:
REMARK  status: ('A' for Active; 'I' for Inactive)
REMARK    1  A    between atoms: O_2  and  C_19 
REMARK    2  A    between atoms: O_2  and  C_26 
REMARK    3  A    between atoms: O_3  and  C_20 
REMARK    4  A    between atoms: O_3  and  C_27 
REMARK    5  A    between atoms: C_11  and  C_12 
REMARK    6  A    between atoms: C_13  and  C_19 
REMARK    7  A    between atoms: C_14  and  C_20 
ROOT
HETATM    1  N   UNK N   1      25.450  23.968  -6.125  0.00  0.00    -0.362 N 
HETATM    2  C   UNK N   1      28.268  23.999  -5.929  0.00  0.00     0.103 C 
HETATM    3  C   UNK N   1      27.424  25.250  -5.615  0.00  0.00     0.052 C 
HETATM    4  C   UNK N   1      27.528  22.911  -6.720  0.00  0.00     0.052 C 
HETATM    5  C   UNK N   1      26.068  25.175  -5.718  0.00  0.00     0.018 C 
HETATM    6  C   UNK N   1      26.168  22.915  -6.738  0.00  0.00     0.018 C 
HETATM    7  C   UNK N   1      25.167  26.354  -5.568  0.00  0.00     0.069 C 
HETATM    8  C   UNK N   1      25.361  21.894  -7.477  0.00  0.00     0.069 C 
HETATM    9  H   UNK N   1      24.484  23.857  -5.975  0.00  0.00     0.165 HD
ENDROOT
BRANCH   2  10
HETATM   10  C   UNK N   1      29.165  23.530  -4.742  0.00  0.00    -0.014 A 
HETATM   11  C   UNK N   1      30.526  23.134  -4.821  0.00  0.00     0.092 A 
HETATM   12  N   UNK N   1      31.347  23.019  -5.877  0.00  0.00    -0.239 N 
HETATM   13  C   UNK N   1      31.256  22.814  -3.714  0.00  0.00     0.086 A 
HETATM   14  O   UNK N   1      32.510  22.658  -5.395  0.00  0.00    -0.156 OA
ATOM     15  HN  UNK N   1      31.114  23.180  -6.856  1.00  0.00     0.197 HD
HETATM   16  N   UNK N   1      32.504  22.521  -4.095  0.00  0.00    -0.240 N 
ATOM     17  HN  UNK N   1      33.286  22.249  -3.498  1.00  0.00     0.197 HD
HETATM   18  C   UNK N   1      30.732  22.823  -2.433  0.00  0.00     0.034 A 
HETATM   19  C   UNK N   1      29.386  23.185  -2.297  0.00  0.00     0.003 A 
HETATM   20  C   UNK N   1      28.624  23.542  -3.431  0.00  0.00     0.011 A 
ENDBRANCH   2  10
BRANCH   3  21
HETATM   21  C   UNK N   1      28.167  26.535  -5.306  0.00  0.00     0.292 C 
HETATM   22  O   UNK N   1      28.497  27.241  -6.248  0.00  0.00    -0.259 OA
BRANCH  21  23
HETATM   23  O   UNK N   1      28.512  26.956  -4.058  0.00  0.00    -0.318 OA
BRANCH  23  24
HETATM   24  C   UNK N   1      29.666  27.637  -3.748  0.00  0.00     0.174 C 
HETATM   25  C   UNK N   1      30.777  26.640  -3.480  0.00  0.00     0.034 C 
ENDBRANCH  23  24
ENDBRANCH  21  23
ENDBRANCH   3  21
BRANCH   4  26
HETATM   26  C   UNK N   1      28.323  21.905  -7.496  0.00  0.00     0.292 C 
HETATM   27  O   UNK N   1      28.457  22.049  -8.703  0.00  0.00    -0.259 OA
BRANCH  26  28
HETATM   28  O   UNK N   1      28.915  20.856  -6.870  0.00  0.00    -0.318 OA
BRANCH  28  29
HETATM   29  C   UNK N   1      29.886  20.082  -7.462  0.00  0.00     0.174 C 
HETATM   30  C   UNK N   1      29.315  18.718  -7.786  0.00  0.00     0.034 C 
ENDBRANCH  28  29
ENDBRANCH  26  28
ENDBRANCH   4  26
TORSDOF 7
ENDMDL
MODEL 6
REMARK VINA RESULT:      -5.7     12.528     14.119
REMARK  7 active torsions:
REMARK  status: ('A' for Active; 'I' for Inactive)
REMARK    1  A    between atoms: O_2  and  C_19 
REMARK    2  A    between atoms: O_2  and  C_26 
REMARK    3  A    between atoms: O_3  and  C_20 
REMARK    4  A    between atoms: O_3  and  C_27 
REMARK    5  A    between atoms: C_11  and  C_12 
REMARK    6  A    between atoms: C_13  and  C_19 
REMARK    7  A    between atoms: C_14  and  C_20 
ROOT
HETATM    1  N   UNK N   1      23.122  20.028   3.442  0.00  0.00    -0.362 N 
HETATM    2  C   UNK N   1      22.239  17.359   3.717  0.00  0.00     0.103 C 
HETATM    3  C   UNK N   1      23.713  17.749   3.948  0.00  0.00     0.052 C 
HETATM    4  C   UNK N   1      21.413  18.405   2.957  0.00  0.00     0.052 C 
HETATM    5  C   UNK N   1      24.080  19.053   3.810  0.00  0.00     0.018 C 
HETATM    6  C   UNK N   1      21.861  19.689   2.900  0.00  0.00     0.018 C 
HETATM    7  C   UNK N   1      25.495  19.518   3.879  0.00  0.00     0.069 C 
HETATM    8  C   UNK N   1      21.122  20.777   2.185  0.00  0.00     0.069 C 
HETATM    9  H   UNK N   1      23.342  20.979   3.569  0.00  0.00     0.165 HD
ENDROOT
BRANCH   2  10
HETATM   10  C   UNK N   1      21.567  16.679   4.950  0.00  0.00    -0.014 A 
HETATM   11  C   UNK N   1      21.138  17.327   6.138  0.00  0.00     0.092 A 
HETATM   12  N   UNK N   1      21.229  18.611   6.520  0.00  0.00    -0.239 N 
HETATM   13  C   UNK N   1      20.487  16.662   7.135  0.00  0.00     0.086 A 
HETATM   14  O   UNK N   1      20.640  18.686   7.688  0.00  0.00    -0.156 OA
ATOM     15  HN  UNK N   1      21.668  19.374   6.006  1.00  0.00     0.197 HD
HETATM   16  N   UNK N   1      20.177  17.535   8.100  0.00  0.00    -0.240 N 
ATOM     17  HN  UNK N   1      19.683  17.343   8.973  1.00  0.00     0.197 HD
HETATM   18  C   UNK N   1      20.211  15.306   7.087  0.00  0.00     0.034 A 
HETATM   19  C   UNK N   1      20.630  14.611   5.946  0.00  0.00     0.003 A 
HETATM   20  C   UNK N   1      21.285  15.290   4.895  0.00  0.00     0.011 A 
ENDBRANCH   2  10
BRANCH   3  21
HETATM   21  C   UNK N   1      24.698  16.629   4.218  0.00  0.00     0.292 C 
HETATM   22  O   UNK N   1      24.853  15.786   3.347  0.00  0.00    -0.259 OA
BRANCH  21  23
HETATM   23  O   UNK N   1      25.413  16.479   5.367  0.00  0.00    -0.318 OA
BRANCH  23  24
HETATM   24  C   UNK N   1      25.619  15.283   6.016  0.00  0.00     0.174 C 
HETATM   25  C   UNK N   1      24.367  14.912   6.788  0.00  0.00     0.034 C 
ENDBRANCH  23  24
ENDBRANCH  21  23
ENDBRANCH   3  21
BRANCH   4  26
HETATM   26  C   UNK N   1      20.162  17.975   2.252  0.00  0.00     0.292 C 
HETATM   27  O   UNK N   1      19.091  18.040   2.840  0.00  0.00    -0.259 OA
BRANCH  26  28
HETATM   28  O   UNK N   1      20.203  17.542   0.966  0.00  0.00    -0.318 OA
BRANCH  28  29
HETATM   29  C   UNK N   1      19.805  16.281   0.588  0.00  0.00     0.174 C 
HETATM   30  C   UNK N   1      20.838  15.271   1.039  0.00  0.00     0.034 C 
ENDBRANCH  28  29
ENDBRANCH  26  28
ENDBRANCH   4  26
TORSDOF 7
ENDMDL
MODEL 7
REMARK VINA RESULT:      -5.6     13.742     16.798
REMARK  7 active torsions:
REMARK  status: ('A' for Active; 'I' for Inactive)
REMARK    1  A    between atoms: O_2  and  C_19 
REMARK    2  A    between atoms: O_2  and  C_26 
REMARK    3  A    between atoms: O_3  and  C_20 
REMARK    4  A    between atoms: O_3  and  C_27 
REMARK    5  A    between atoms: C_11  and  C_12 
REMARK    6  A    between atoms: C_13  and  C_19 
REMARK    7  A    between atoms: C_14  and  C_20 
ROOT
HETATM    1  N   UNK N   1      35.703  14.765   9.269  0.00  0.00    -0.362 N 
HETATM    2  C   UNK N   1      34.728  15.940   6.893  0.00  0.00     0.103 C 
HETATM    3  C   UNK N   1      35.694  14.738   6.861  0.00  0.00     0.052 C 
HETATM    4  C   UNK N   1      34.669  16.676   8.238  0.00  0.00     0.052 C 
HETATM    5  C   UNK N   1      36.124  14.207   8.038  0.00  0.00     0.018 C 
HETATM    6  C   UNK N   1      35.105  16.042   9.360  0.00  0.00     0.018 C 
HETATM    7  C   UNK N   1      37.158  13.135   8.125  0.00  0.00     0.069 C 
HETATM    8  C   UNK N   1      35.082  16.679  10.714  0.00  0.00     0.069 C 
HETATM    9  H   UNK N   1      35.830  14.242  10.094  0.00  0.00     0.165 HD
ENDROOT
BRANCH   2  10
HETATM   10  C   UNK N   1      33.374  15.679   6.163  0.00  0.00    -0.014 A 
HETATM   11  C   UNK N   1      32.790  16.491   5.156  0.00  0.00     0.092 A 
HETATM   12  N   UNK N   1      33.195  17.654   4.623  0.00  0.00    -0.239 N 
HETATM   13  C   UNK N   1      31.637  16.141   4.518  0.00  0.00     0.086 A 
HETATM   14  O   UNK N   1      32.315  17.958   3.701  0.00  0.00    -0.156 OA
ATOM     15  HN  UNK N   1      34.020  18.194   4.881  1.00  0.00     0.197 HD
HETATM   16  N   UNK N   1      31.355  17.075   3.601  0.00  0.00    -0.240 N 
ATOM     17  HN  UNK N   1      30.561  17.093   2.960  1.00  0.00     0.197 HD
HETATM   18  C   UNK N   1      30.929  14.988   4.809  0.00  0.00     0.034 A 
HETATM   19  C   UNK N   1      31.447  14.158   5.811  0.00  0.00     0.003 A 
HETATM   20  C   UNK N   1      32.653  14.495   6.465  0.00  0.00     0.011 A 
ENDBRANCH   2  10
BRANCH   3  21
HETATM   21  C   UNK N   1      36.194  14.279   5.506  0.00  0.00     0.292 C 
HETATM   22  O   UNK N   1      37.249  14.744   5.102  0.00  0.00    -0.259 OA
BRANCH  21  23
HETATM   23  O   UNK N   1      35.546  13.400   4.692  0.00  0.00    -0.318 OA
BRANCH  23  24
HETATM   24  C   UNK N   1      35.430  13.529   3.327  0.00  0.00     0.174 C 
HETATM   25  C   UNK N   1      33.963  13.657   2.962  0.00  0.00     0.034 C 
ENDBRANCH  23  24
ENDBRANCH  21  23
ENDBRANCH   3  21
BRANCH   4  26
HETATM   26  C   UNK N   1      34.181  18.093   8.273  0.00  0.00     0.292 C 
HETATM   27  O   UNK N   1      34.995  19.005   8.330  0.00  0.00    -0.259 OA
BRANCH  26  28
HETATM   28  O   UNK N   1      32.854  18.373   8.216  0.00  0.00    -0.318 OA
BRANCH  28  29
HETATM   29  C   UNK N   1      31.891  17.546   8.744  0.00  0.00     0.174 C 
HETATM   30  C   UNK N   1      30.651  17.599   7.878  0.00  0.00     0.034 C 
ENDBRANCH  28  29
ENDBRANCH  26  28
ENDBRANCH   4  26
TORSDOF 7
ENDMDL
MODEL 8
REMARK VINA RESULT:      -5.6     17.239     19.192
REMARK  7 active torsions:
REMARK  status: ('A' for Active; 'I' for Inactive)
REMARK    1  A    between atoms: O_2  and  C_19 
REMARK    2  A    between atoms: O_2  and  C_26 
REMARK    3  A    between atoms: O_3  and  C_20 
REMARK    4  A    between atoms: O_3  and  C_27 
REMARK    5  A    between atoms: C_11  and  C_12 
REMARK    6  A    between atoms: C_13  and  C_19 
REMARK    7  A    between atoms: C_14  and  C_20 
ROOT
HETATM    1  N   UNK N   1      22.631  15.059   5.776  0.00  0.00    -0.362 N 
HETATM    2  C   UNK N   1      21.371  13.566   7.815  0.00  0.00     0.103 C 
HETATM    3  C   UNK N   1      21.960  12.885   6.563  0.00  0.00     0.052 C 
HETATM    4  C   UNK N   1      21.160  15.080   7.680  0.00  0.00     0.052 C 
HETATM    5  C   UNK N   1      22.564  13.654   5.616  0.00  0.00     0.018 C 
HETATM    6  C   UNK N   1      21.833  15.758   6.710  0.00  0.00     0.018 C 
HETATM    7  C   UNK N   1      23.046  13.119   4.310  0.00  0.00     0.069 C 
HETATM    8  C   UNK N   1      21.694  17.234   6.505  0.00  0.00     0.069 C 
HETATM    9  H   UNK N   1      23.258  15.570   5.214  0.00  0.00     0.165 HD
ENDROOT
BRANCH   2  10
HETATM   10  C   UNK N   1      21.977  13.049   9.157  0.00  0.00    -0.014 A 
HETATM   11  C   UNK N   1      23.345  13.085   9.532  0.00  0.00     0.092 A 
HETATM   12  N   UNK N   1      24.428  13.506   8.860  0.00  0.00    -0.239 N 
HETATM   13  C   UNK N   1      23.773  12.680  10.762  0.00  0.00     0.086 A 
HETATM   14  O   UNK N   1      25.442  13.361   9.677  0.00  0.00    -0.156 OA
ATOM     15  HN  UNK N   1      24.458  13.866   7.907  1.00  0.00     0.197 HD
HETATM   16  N   UNK N   1      25.096  12.866  10.837  0.00  0.00    -0.240 N 
ATOM     17  HN  UNK N   1      25.706  12.664  11.630  1.00  0.00     0.197 HD
HETATM   18  C   UNK N   1      22.923  12.180  11.734  0.00  0.00     0.034 A 
HETATM   19  C   UNK N   1      21.563  12.101  11.411  0.00  0.00     0.003 A 
HETATM   20  C   UNK N   1      21.101  12.538  10.150  0.00  0.00     0.011 A 
ENDBRANCH   2  10
BRANCH   3  21
HETATM   21  C   UNK N   1      21.738  11.393   6.410  0.00  0.00     0.292 C 
HETATM   22  O   UNK N   1      20.651  11.021   5.993  0.00  0.00    -0.259 OA
BRANCH  21  23
HETATM   23  O   UNK N   1      22.652  10.433   6.719  0.00  0.00    -0.318 OA
BRANCH  23  24
HETATM   24  C   UNK N   1      23.278   9.618   5.804  0.00  0.00     0.174 C 
HETATM   25  C   UNK N   1      23.145   8.174   6.249  0.00  0.00     0.034 C 
ENDBRANCH  23  24
ENDBRANCH  21  23
ENDBRANCH   3  21
BRANCH   4  26
HETATM   26  C   UNK N   1      20.180  15.764   8.583  0.00  0.00     0.292 C 
HETATM   27  O   UNK N   1      19.262  15.117   9.071  0.00  0.00    -0.259 OA
BRANCH  26  28
HETATM   28  O   UNK N   1      20.314  17.081   8.885  0.00  0.00    -0.318 OA
BRANCH  28  29
HETATM   29  C   UNK N   1      19.243  17.936   8.995  0.00  0.00     0.174 C 
HETATM   30  C   UNK N   1      19.608  19.084   9.912  0.00  0.00     0.034 C 
ENDBRANCH  28  29
ENDBRANCH  26  28
ENDBRANCH   4  26
TORSDOF 7
ENDMDL
MODEL 9
REMARK VINA RESULT:      -5.5      1.812      5.957
REMARK  7 active torsions:
REMARK  status: ('A' for Active; 'I' for Inactive)
REMARK    1  A    between atoms: O_2  and  C_19 
REMARK    2  A    between atoms: O_2  and  C_26 
REMARK    3  A    between atoms: O_3  and  C_20 
REMARK    4  A    between atoms: O_3  and  C_27 
REMARK    5  A    between atoms: C_11  and  C_12 
REMARK    6  A    between atoms: C_13  and  C_19 
REMARK    7  A    between atoms: C_14  and  C_20 
ROOT
HETATM    1  N   UNK N   1      29.209  26.555  -5.331  0.00  0.00    -0.362 N 
HETATM    2  C   UNK N   1      27.524  24.291  -5.431  0.00  0.00     0.103 C 
HETATM    3  C   UNK N   1      27.065  25.662  -5.968  0.00  0.00     0.052 C 
HETATM    4  C   UNK N   1      28.747  24.343  -4.506  0.00  0.00     0.052 C 
HETATM    5  C   UNK N   1      27.924  26.717  -5.901  0.00  0.00     0.018 C 
HETATM    6  C   UNK N   1      29.554  25.438  -4.536  0.00  0.00     0.018 C 
HETATM    7  C   UNK N   1      27.539  28.111  -6.266  0.00  0.00     0.069 C 
HETATM    8  C   UNK N   1      30.769  25.577  -3.673  0.00  0.00     0.069 C 
HETATM    9  H   UNK N   1      29.890  27.247  -5.495  0.00  0.00     0.165 HD
ENDROOT
BRANCH   2  10
HETATM   10  C   UNK N   1      27.487  23.153  -6.498  0.00  0.00    -0.014 A 
HETATM   11  C   UNK N   1      26.336  22.444  -6.932  0.00  0.00     0.092 A 
HETATM   12  N   UNK N   1      25.056  22.522  -6.537  0.00  0.00    -0.239 N 
HETATM   13  C   UNK N   1      26.388  21.515  -7.930  0.00  0.00     0.086 A 
HETATM   14  O   UNK N   1      24.391  21.679  -7.289  0.00  0.00    -0.156 OA
ATOM     15  HN  UNK N   1      24.675  23.116  -5.802  1.00  0.00     0.197 HD
HETATM   16  N   UNK N   1      25.153  21.048  -8.144  0.00  0.00    -0.240 N 
ATOM     17  HN  UNK N   1      24.866  20.348  -8.829  1.00  0.00     0.197 HD
HETATM   18  C   UNK N   1      27.559  21.169  -8.583  0.00  0.00     0.034 A 
HETATM   19  C   UNK N   1      28.730  21.822  -8.181  0.00  0.00     0.003 A 
HETATM   20  C   UNK N   1      28.689  22.802  -7.165  0.00  0.00     0.011 A 
ENDBRANCH   2  10
BRANCH   3  21
HETATM   21  C   UNK N   1      25.633  25.780  -6.448  0.00  0.00     0.292 C 
HETATM   22  O   UNK N   1      24.785  26.110  -5.632  0.00  0.00    -0.259 OA
BRANCH  21  23
HETATM   23  O   UNK N   1      25.213  25.530  -7.719  0.00  0.00    -0.318 OA
BRANCH  23  24
HETATM   24  C   UNK N   1      25.787  26.053  -8.855  0.00  0.00     0.174 C 
HETATM   25  C   UNK N   1      26.493  24.944  -9.613  0.00  0.00     0.034 C 
ENDBRANCH  23  24
ENDBRANCH  21  23
ENDBRANCH   3  21
BRANCH   4  26
HETATM   26  C   UNK N   1      28.991  23.211  -3.554  0.00  0.00     0.292 C 
HETATM   27  O   UNK N   1      28.607  23.308  -2.397  0.00  0.00    -0.259 OA
BRANCH  26  28
HETATM   28  O   UNK N   1      29.607  22.075  -3.970  0.00  0.00    -0.318 OA
BRANCH  28  29
HETATM   29  C   UNK N   1      30.942  22.024  -4.297  0.00  0.00     0.174 C 
HETATM   30  C   UNK N   1      31.193  20.842  -5.208  0.00  0.00     0.034 C 
ENDBRANCH  28  29
ENDBRANCH  26  28
ENDBRANCH   4  26
TORSDOF 7
ENDMDL
