MODEL 1
REMARK VINA RESULT:      -7.1      0.000      0.000
REMARK  5 active torsions:
REMARK  status: ('A' for Active; 'I' for Inactive)
REMARK    1  A    between atoms: N_2  and  C_14 
REMARK    2  A    between atoms: C_3  and  C_7 
REMARK    3  A    between atoms: C_3  and  C_8 
REMARK    4  A    between atoms: C_7  and  C_9 
REMARK    5  A    between atoms: C_9  and  C_14 
ROOT
HETATM    1  O   UNK N   1      34.677  12.569  13.826  0.00  0.00    -0.355 OA
HETATM    2  C   UNK N   1      36.052  12.914  14.048  0.00  0.00     0.117 A 
HETATM    3  C   UNK N   1      34.541  11.145  13.799  0.00  0.00     0.083 A 
HETATM    4  C   UNK N   1      36.764  11.610  14.167  0.00  0.00    -0.010 A 
HETATM    5  C   UNK N   1      35.892  10.602  14.010  0.00  0.00    -0.015 A 
HETATM    6  C   UNK N   1      33.612  10.696  14.913  0.00  0.00     0.051 C 
HETATM    7  C   UNK N   1      33.990  10.708  12.454  0.00  0.00     0.051 C 
HETATM    8  C   UNK N   1      38.123  11.364  14.402  0.00  0.00     0.011 A 
HETATM    9  C   UNK N   1      36.297   9.263  14.060  0.00  0.00     0.011 A 
HETATM   10  C   UNK N   1      38.568  10.035  14.454  0.00  0.00     0.001 A 
HETATM   11  C   UNK N   1      37.654   8.981  14.279  0.00  0.00     0.001 A 
ENDROOT
BRANCH   2  12
HETATM   12  C   UNK N   1      36.521  13.712  12.802  0.00  0.00     0.050 C 
BRANCH  12  13
HETATM   13  C   UNK N   1      35.481  14.586  12.096  0.00  0.00     0.033 C 
BRANCH  13  14
HETATM   14  C   UNK N   1      36.091  15.707  11.274  0.00  0.00     0.269 C 
BRANCH  14  15
HETATM   15  N   UNK N   1      35.095  16.744  11.041  0.00  0.00     0.079 N 
HETATM   16  C   UNK N   1      34.700  16.661   9.649  0.00  0.00     0.306 C 
HETATM   17  H   UNK N   1      35.531  17.682  11.189  0.00  0.00     0.315 HD
ENDBRANCH  14  15
ENDBRANCH  13  14
ENDBRANCH  12  13
ENDBRANCH   2  12
BRANCH   2  18
HETATM   18  C   UNK N   1      36.126  13.711  15.342  0.00  0.00    -0.019 A 
HETATM   19  C   UNK N   1      35.345  13.377  16.462  0.00  0.00     0.010 A 
HETATM   20  C   UNK N   1      35.473  14.094  17.656  0.00  0.00     0.001 A 
HETATM   21  C   UNK N   1      36.390  15.142  17.748  0.00  0.00     0.000 A 
HETATM   22  C   UNK N   1      37.176  15.481  16.645  0.00  0.00     0.001 A 
HETATM   23  C   UNK N   1      37.046  14.769  15.449  0.00  0.00     0.010 A 
ENDBRANCH   2  18
TORSDOF 5
ENDMDL
MODEL 2
REMARK VINA RESULT:      -6.5      8.933     12.423
REMARK  5 active torsions:
REMARK  status: ('A' for Active; 'I' for Inactive)
REMARK    1  A    between atoms: N_2  and  C_14 
REMARK    2  A    between atoms: C_3  and  C_7 
REMARK    3  A    between atoms: C_3  and  C_8 
REMARK    4  A    between atoms: C_7  and  C_9 
REMARK    5  A    between atoms: C_9  and  C_14 
ROOT
HETATM    1  O   UNK N   1      29.327  17.301   7.690  0.00  0.00    -0.355 OA
HETATM    2  C   UNK N   1      29.178  17.330   6.264  0.00  0.00     0.117 A 
HETATM    3  C   UNK N   1      30.718  17.317   8.025  0.00  0.00     0.083 A 
HETATM    4  C   UNK N   1      30.569  17.375   5.729  0.00  0.00    -0.010 A 
HETATM    5  C   UNK N   1      31.445  17.354   6.746  0.00  0.00    -0.015 A 
HETATM    6  C   UNK N   1      31.035  18.553   8.848  0.00  0.00     0.051 C 
HETATM    7  C   UNK N   1      31.071  16.065   8.807  0.00  0.00     0.051 C 
HETATM    8  C   UNK N   1      31.002  17.430   4.399  0.00  0.00     0.011 A 
HETATM    9  C   UNK N   1      32.827  17.372   6.527  0.00  0.00     0.011 A 
HETATM   10  C   UNK N   1      32.381  17.445   4.138  0.00  0.00     0.001 A 
HETATM   11  C   UNK N   1      33.296  17.412   5.205  0.00  0.00     0.001 A 
ENDROOT
BRANCH   2  12
HETATM   12  C   UNK N   1      28.451  16.019   5.861  0.00  0.00     0.050 C 
BRANCH  12  13
HETATM   13  C   UNK N   1      27.036  15.806   6.407  0.00  0.00     0.033 C 
BRANCH  13  14
HETATM   14  C   UNK N   1      25.956  15.915   5.346  0.00  0.00     0.269 C 
BRANCH  14  15
HETATM   15  N   UNK N   1      25.099  17.056   5.634  0.00  0.00     0.079 N 
HETATM   16  C   UNK N   1      24.529  17.499   4.376  0.00  0.00     0.306 C 
HETATM   17  H   UNK N   1      25.679  17.840   6.009  0.00  0.00     0.315 HD
ENDBRANCH  14  15
ENDBRANCH  13  14
ENDBRANCH  12  13
ENDBRANCH   2  12
BRANCH   2  18
HETATM   18  C   UNK N   1      28.401  18.589   5.906  0.00  0.00    -0.019 A 
HETATM   19  C   UNK N   1      28.087  18.911   4.575  0.00  0.00     0.010 A 
HETATM   20  C   UNK N   1      27.326  20.045   4.278  0.00  0.00     0.001 A 
HETATM   21  C   UNK N   1      26.858  20.863   5.309  0.00  0.00     0.000 A 
HETATM   22  C   UNK N   1      27.157  20.552   6.637  0.00  0.00     0.001 A 
HETATM   23  C   UNK N   1      27.923  19.421   6.934  0.00  0.00     0.010 A 
ENDBRANCH   2  18
TORSDOF 5
ENDMDL
MODEL 3
REMARK VINA RESULT:      -6.3     21.056     24.950
REMARK  5 active torsions:
REMARK  status: ('A' for Active; 'I' for Inactive)
REMARK    1  A    between atoms: N_2  and  C_14 
REMARK    2  A    between atoms: C_3  and  C_7 
REMARK    3  A    between atoms: C_3  and  C_8 
REMARK    4  A    between atoms: C_7  and  C_9 
REMARK    5  A    between atoms: C_9  and  C_14 
ROOT
HETATM    1  O   UNK N   1      28.171  25.252  -6.345  0.00  0.00    -0.355 OA
HETATM    2  C   UNK N   1      27.443  25.024  -5.131  0.00  0.00     0.117 A 
HETATM    3  C   UNK N   1      28.143  26.646  -6.663  0.00  0.00     0.083 A 
HETATM    4  C   UNK N   1      26.966  26.370  -4.705  0.00  0.00    -0.010 A 
HETATM    5  C   UNK N   1      27.362  27.292  -5.597  0.00  0.00    -0.015 A 
HETATM    6  C   UNK N   1      29.558  27.197  -6.687  0.00  0.00     0.051 C 
HETATM    7  C   UNK N   1      27.481  26.852  -8.013  0.00  0.00     0.051 C 
HETATM    8  C   UNK N   1      26.219  26.726  -3.576  0.00  0.00     0.011 A 
HETATM    9  C   UNK N   1      27.036  28.646  -5.450  0.00  0.00     0.011 A 
HETATM   10  C   UNK N   1      25.868  28.072  -3.396  0.00  0.00     0.001 A 
HETATM   11  C   UNK N   1      26.274  29.034  -4.337  0.00  0.00     0.001 A 
ENDROOT
BRANCH   2  12
HETATM   12  C   UNK N   1      26.261  24.082  -5.485  0.00  0.00     0.050 C 
BRANCH  12  13
HETATM   13  C   UNK N   1      26.456  23.125  -6.664  0.00  0.00     0.033 C 
BRANCH  13  14
HETATM   14  C   UNK N   1      25.590  23.460  -7.865  0.00  0.00     0.269 C 
BRANCH  14  15
HETATM   15  N   UNK N   1      24.561  22.444  -8.027  0.00  0.00     0.079 N 
HETATM   16  C   UNK N   1      25.191  21.153  -7.835  0.00  0.00     0.306 C 
HETATM   17  H   UNK N   1      24.196  22.473  -9.007  0.00  0.00     0.315 HD
ENDBRANCH  14  15
ENDBRANCH  13  14
ENDBRANCH  12  13
ENDBRANCH   2  12
BRANCH   2  18
HETATM   18  C   UNK N   1      28.410  24.427  -4.118  0.00  0.00    -0.019 A 
HETATM   19  C   UNK N   1      27.959  23.697  -3.005  0.00  0.00     0.010 A 
HETATM   20  C   UNK N   1      28.870  23.115  -2.120  0.00  0.00     0.001 A 
HETATM   21  C   UNK N   1      30.243  23.243  -2.343  0.00  0.00     0.000 A 
HETATM   22  C   UNK N   1      30.706  23.960  -3.448  0.00  0.00     0.001 A 
HETATM   23  C   UNK N   1      29.795  24.548  -4.331  0.00  0.00     0.010 A 
ENDBRANCH   2  18
TORSDOF 5
ENDMDL
MODEL 4
REMARK VINA RESULT:      -6.2      8.615     12.288
REMARK  5 active torsions:
REMARK  status: ('A' for Active; 'I' for Inactive)
REMARK    1  A    between atoms: N_2  and  C_14 
REMARK    2  A    between atoms: C_3  and  C_7 
REMARK    3  A    between atoms: C_3  and  C_8 
REMARK    4  A    between atoms: C_7  and  C_9 
REMARK    5  A    between atoms: C_9  and  C_14 
ROOT
HETATM    1  O   UNK N   1      30.100  17.358   5.825  0.00  0.00    -0.355 OA
HETATM    2  C   UNK N   1      28.871  17.503   6.551  0.00  0.00     0.117 A 
HETATM    3  C   UNK N   1      30.074  16.135   5.083  0.00  0.00     0.083 A 
HETATM    4  C   UNK N   1      28.071  16.294   6.205  0.00  0.00    -0.010 A 
HETATM    5  C   UNK N   1      28.774  15.509   5.373  0.00  0.00    -0.015 A 
HETATM    6  C   UNK N   1      30.197  16.431   3.599  0.00  0.00     0.051 C 
HETATM    7  C   UNK N   1      31.214  15.239   5.532  0.00  0.00     0.051 C 
HETATM    8  C   UNK N   1      26.784  15.936   6.626  0.00  0.00     0.011 A 
HETATM    9  C   UNK N   1      28.265  14.294   4.899  0.00  0.00     0.011 A 
HETATM   10  C   UNK N   1      26.240  14.723   6.176  0.00  0.00     0.001 A 
HETATM   11  C   UNK N   1      26.984  13.898   5.314  0.00  0.00     0.001 A 
ENDROOT
BRANCH   2  12
HETATM   12  C   UNK N   1      29.240  17.535   8.058  0.00  0.00     0.050 C 
BRANCH  12  13
HETATM   13  C   UNK N   1      30.698  17.832   8.417  0.00  0.00     0.033 C 
BRANCH  13  14
HETATM   14  C   UNK N   1      31.468  16.608   8.879  0.00  0.00     0.269 C 
BRANCH  14  15
HETATM   15  N   UNK N   1      32.879  16.939   9.017  0.00  0.00     0.079 N 
HETATM   16  C   UNK N   1      33.168  18.008   8.080  0.00  0.00     0.306 C 
HETATM   17  H   UNK N   1      33.458  16.113   8.740  0.00  0.00     0.315 HD
ENDBRANCH  14  15
ENDBRANCH  13  14
ENDBRANCH  12  13
ENDBRANCH   2  12
BRANCH   2  18
HETATM   18  C   UNK N   1      28.195  18.777   6.065  0.00  0.00    -0.019 A 
HETATM   19  C   UNK N   1      27.936  19.004   4.703  0.00  0.00     0.010 A 
HETATM   20  C   UNK N   1      27.265  20.159   4.289  0.00  0.00     0.001 A 
HETATM   21  C   UNK N   1      26.833  21.093   5.233  0.00  0.00     0.000 A 
HETATM   22  C   UNK N   1      27.079  20.878   6.591  0.00  0.00     0.001 A 
HETATM   23  C   UNK N   1      27.754  19.726   7.004  0.00  0.00     0.010 A 
ENDBRANCH   2  18
TORSDOF 5
ENDMDL
MODEL 5
REMARK VINA RESULT:      -6.2      8.095     12.218
REMARK  5 active torsions:
REMARK  status: ('A' for Active; 'I' for Inactive)
REMARK    1  A    between atoms: N_2  and  C_14 
REMARK    2  A    between atoms: C_3  and  C_7 
REMARK    3  A    between atoms: C_3  and  C_8 
REMARK    4  A    between atoms: C_7  and  C_9 
REMARK    5  A    between atoms: C_9  and  C_14 
ROOT
HETATM    1  O   UNK N   1      29.786  16.797   7.669  0.00  0.00    -0.355 OA
HETATM    2  C   UNK N   1      29.679  16.883   6.241  0.00  0.00     0.117 A 
HETATM    3  C   UNK N   1      29.103  17.904   8.265  0.00  0.00     0.083 A 
HETATM    4  C   UNK N   1      28.874  18.111   5.985  0.00  0.00    -0.010 A 
HETATM    5  C   UNK N   1      28.560  18.696   7.151  0.00  0.00    -0.015 A 
HETATM    6  C   UNK N   1      27.977  17.397   9.150  0.00  0.00     0.051 C 
HETATM    7  C   UNK N   1      30.078  18.728   9.085  0.00  0.00     0.051 C 
HETATM    8  C   UNK N   1      28.459  18.656   4.764  0.00  0.00     0.011 A 
HETATM    9  C   UNK N   1      27.817  19.882   7.203  0.00  0.00     0.011 A 
HETATM   10  C   UNK N   1      27.717  19.847   4.774  0.00  0.00     0.001 A 
HETATM   11  C   UNK N   1      27.398  20.464   5.997  0.00  0.00     0.001 A 
ENDROOT
BRANCH   2  12
HETATM   12  C   UNK N   1      31.124  17.018   5.689  0.00  0.00     0.050 C 
BRANCH  12  13
HETATM   13  C   UNK N   1      32.274  16.716   6.653  0.00  0.00     0.033 C 
BRANCH  13  14
HETATM   14  C   UNK N   1      33.452  17.662   6.505  0.00  0.00     0.269 C 
BRANCH  14  15
HETATM   15  N   UNK N   1      33.763  18.264   7.793  0.00  0.00     0.079 N 
HETATM   16  C   UNK N   1      33.567  17.247   8.807  0.00  0.00     0.306 C 
HETATM   17  H   UNK N   1      33.086  19.037   7.987  0.00  0.00     0.315 HD
ENDBRANCH  14  15
ENDBRANCH  13  14
ENDBRANCH  12  13
ENDBRANCH   2  12
BRANCH   2  18
HETATM   18  C   UNK N   1      28.960  15.632   5.756  0.00  0.00    -0.019 A 
HETATM   19  C   UNK N   1      27.570  15.477   5.898  0.00  0.00     0.010 A 
HETATM   20  C   UNK N   1      26.927  14.342   5.395  0.00  0.00     0.001 A 
HETATM   21  C   UNK N   1      27.663  13.356   4.733  0.00  0.00     0.000 A 
HETATM   22  C   UNK N   1      29.043  13.500   4.580  0.00  0.00     0.001 A 
HETATM   23  C   UNK N   1      29.688  14.632   5.088  0.00  0.00     0.010 A 
ENDBRANCH   2  18
TORSDOF 5
ENDMDL
MODEL 6
REMARK VINA RESULT:      -6.2      8.773     12.134
REMARK  5 active torsions:
REMARK  status: ('A' for Active; 'I' for Inactive)
REMARK    1  A    between atoms: N_2  and  C_14 
REMARK    2  A    between atoms: C_3  and  C_7 
REMARK    3  A    between atoms: C_3  and  C_8 
REMARK    4  A    between atoms: C_7  and  C_9 
REMARK    5  A    between atoms: C_9  and  C_14 
ROOT
HETATM    1  O   UNK N   1      29.584  16.973   7.533  0.00  0.00    -0.355 OA
HETATM    2  C   UNK N   1      29.381  17.092   6.118  0.00  0.00     0.117 A 
HETATM    3  C   UNK N   1      30.984  17.045   7.820  0.00  0.00     0.083 A 
HETATM    4  C   UNK N   1      30.745  17.253   5.541  0.00  0.00    -0.010 A 
HETATM    5  C   UNK N   1      31.659  17.211   6.524  0.00  0.00    -0.015 A 
HETATM    6  C   UNK N   1      31.265  18.237   8.718  0.00  0.00     0.051 C 
HETATM    7  C   UNK N   1      31.434  15.764   8.500  0.00  0.00     0.051 C 
HETATM    8  C   UNK N   1      31.125  17.424   4.204  0.00  0.00     0.011 A 
HETATM    9  C   UNK N   1      33.030  17.322   6.260  0.00  0.00     0.011 A 
HETATM   10  C   UNK N   1      32.490  17.535   3.899  0.00  0.00     0.001 A 
HETATM   11  C   UNK N   1      33.445  17.480   4.929  0.00  0.00     0.001 A 
ENDROOT
BRANCH   2  12
HETATM   12  C   UNK N   1      28.711  15.773   5.648  0.00  0.00     0.050 C 
BRANCH  12  13
HETATM   13  C   UNK N   1      29.631  14.587   5.346  0.00  0.00     0.033 C 
BRANCH  13  14
HETATM   14  C   UNK N   1      29.463  14.033   3.944  0.00  0.00     0.269 C 
BRANCH  14  15
HETATM   15  N   UNK N   1      28.405  14.757   3.253  0.00  0.00     0.079 N 
HETATM   16  C   UNK N   1      28.596  14.553   1.831  0.00  0.00     0.306 C 
HETATM   17  H   UNK N   1      28.507  15.781   3.441  0.00  0.00     0.315 HD
ENDBRANCH  14  15
ENDBRANCH  13  14
ENDBRANCH  12  13
ENDBRANCH   2  12
BRANCH   2  18
HETATM   18  C   UNK N   1      28.524  18.327   5.877  0.00  0.00    -0.019 A 
HETATM   19  C   UNK N   1      28.148  19.183   6.926  0.00  0.00     0.010 A 
HETATM   20  C   UNK N   1      27.405  20.339   6.669  0.00  0.00     0.001 A 
HETATM   21  C   UNK N   1      27.042  20.661   5.360  0.00  0.00     0.000 A 
HETATM   22  C   UNK N   1      27.414  19.823   4.307  0.00  0.00     0.001 A 
HETATM   23  C   UNK N   1      28.152  18.663   4.563  0.00  0.00     0.010 A 
ENDBRANCH   2  18
TORSDOF 5
ENDMDL
MODEL 7
REMARK VINA RESULT:      -6.0     22.495     26.184
REMARK  5 active torsions:
REMARK  status: ('A' for Active; 'I' for Inactive)
REMARK    1  A    between atoms: N_2  and  C_14 
REMARK    2  A    between atoms: C_3  and  C_7 
REMARK    3  A    between atoms: C_3  and  C_8 
REMARK    4  A    between atoms: C_7  and  C_9 
REMARK    5  A    between atoms: C_9  and  C_14 
ROOT
HETATM    1  O   UNK N   1      28.324  26.918  -6.919  0.00  0.00    -0.355 OA
HETATM    2  C   UNK N   1      27.218  26.862  -6.007  0.00  0.00     0.117 A 
HETATM    3  C   UNK N   1      28.921  28.217  -6.864  0.00  0.00     0.083 A 
HETATM    4  C   UNK N   1      27.169  28.209  -5.372  0.00  0.00    -0.010 A 
HETATM    5  C   UNK N   1      28.141  28.984  -5.879  0.00  0.00    -0.015 A 
HETATM    6  C   UNK N   1      30.367  28.101  -6.416  0.00  0.00     0.051 C 
HETATM    7  C   UNK N   1      28.850  28.872  -8.232  0.00  0.00     0.051 C 
HETATM    8  C   UNK N   1      26.291  28.694  -4.395  0.00  0.00     0.011 A 
HETATM    9  C   UNK N   1      28.315  30.311  -5.469  0.00  0.00     0.011 A 
HETATM   10  C   UNK N   1      26.430  30.021  -3.961  0.00  0.00     0.001 A 
HETATM   11  C   UNK N   1      27.442  30.833  -4.502  0.00  0.00     0.001 A 
ENDROOT
BRANCH   2  12
HETATM   12  C   UNK N   1      25.949  26.582  -6.857  0.00  0.00     0.050 C 
BRANCH  12  13
HETATM   13  C   UNK N   1      26.160  26.074  -8.286  0.00  0.00     0.033 C 
BRANCH  13  14
HETATM   14  C   UNK N   1      26.238  24.562  -8.385  0.00  0.00     0.269 C 
BRANCH  14  15
HETATM   15  N   UNK N   1      25.276  23.960  -7.473  0.00  0.00     0.079 N 
HETATM   16  C   UNK N   1      25.845  22.711  -7.004  0.00  0.00     0.306 C 
HETATM   17  H   UNK N   1      24.400  23.730  -7.994  0.00  0.00     0.315 HD
ENDBRANCH  14  15
ENDBRANCH  13  14
ENDBRANCH  12  13
ENDBRANCH   2  12
BRANCH   2  18
HETATM   18  C   UNK N   1      27.516  25.773  -4.986  0.00  0.00    -0.019 A 
HETATM   19  C   UNK N   1      28.832  25.407  -4.658  0.00  0.00     0.010 A 
HETATM   20  C   UNK N   1      29.078  24.442  -3.677  0.00  0.00     0.001 A 
HETATM   21  C   UNK N   1      28.013  23.842  -3.003  0.00  0.00     0.000 A 
HETATM   22  C   UNK N   1      26.700  24.201  -3.314  0.00  0.00     0.001 A 
HETATM   23  C   UNK N   1      26.453  25.162  -4.298  0.00  0.00     0.010 A 
ENDBRANCH   2  18
TORSDOF 5
ENDMDL
MODEL 8
REMARK VINA RESULT:      -6.0     10.236     13.995
REMARK  5 active torsions:
REMARK  status: ('A' for Active; 'I' for Inactive)
REMARK    1  A    between atoms: N_2  and  C_14 
REMARK    2  A    between atoms: C_3  and  C_7 
REMARK    3  A    between atoms: C_3  and  C_8 
REMARK    4  A    between atoms: C_7  and  C_9 
REMARK    5  A    between atoms: C_9  and  C_14 
ROOT
HETATM    1  O   UNK N   1      27.444  16.264   5.183  0.00  0.00    -0.355 OA
HETATM    2  C   UNK N   1      28.194  17.487   5.166  0.00  0.00     0.117 A 
HETATM    3  C   UNK N   1      26.195  16.462   4.514  0.00  0.00     0.083 A 
HETATM    4  C   UNK N   1      27.334  18.460   4.434  0.00  0.00    -0.010 A 
HETATM    5  C   UNK N   1      26.184  17.866   4.076  0.00  0.00    -0.015 A 
HETATM    6  C   UNK N   1      26.100  15.535   3.315  0.00  0.00     0.051 C 
HETATM    7  C   UNK N   1      25.051  16.191   5.474  0.00  0.00     0.051 C 
HETATM    8  C   UNK N   1      27.588  19.800   4.119  0.00  0.00     0.011 A 
HETATM    9  C   UNK N   1      25.183  18.559   3.385  0.00  0.00     0.011 A 
HETATM   10  C   UNK N   1      26.606  20.529   3.431  0.00  0.00     0.001 A 
HETATM   11  C   UNK N   1      25.398  19.908   3.067  0.00  0.00     0.001 A 
ENDROOT
BRANCH   2  12
HETATM   12  C   UNK N   1      28.403  17.906   6.647  0.00  0.00     0.050 C 
BRANCH  12  13
HETATM   13  C   UNK N   1      28.178  16.835   7.717  0.00  0.00     0.033 C 
BRANCH  13  14
HETATM   14  C   UNK N   1      27.922  17.407   9.100  0.00  0.00     0.269 C 
BRANCH  14  15
HETATM   15  N   UNK N   1      28.467  18.754   9.182  0.00  0.00     0.079 N 
HETATM   16  C   UNK N   1      29.725  18.670   9.898  0.00  0.00     0.306 C 
HETATM   17  H   UNK N   1      27.824  19.355   9.747  0.00  0.00     0.315 HD
ENDBRANCH  14  15
ENDBRANCH  13  14
ENDBRANCH  12  13
ENDBRANCH   2  12
BRANCH   2  18
HETATM   18  C   UNK N   1      29.495  17.221   4.422  0.00  0.00    -0.019 A 
HETATM   19  C   UNK N   1      29.518  16.540   3.193  0.00  0.00     0.010 A 
HETATM   20  C   UNK N   1      30.721  16.357   2.505  0.00  0.00     0.001 A 
HETATM   21  C   UNK N   1      31.912  16.864   3.030  0.00  0.00     0.000 A 
HETATM   22  C   UNK N   1      31.903  17.548   4.247  0.00  0.00     0.001 A 
HETATM   23  C   UNK N   1      30.701  17.727   4.939  0.00  0.00     0.010 A 
ENDBRANCH   2  18
TORSDOF 5
ENDMDL
MODEL 9
REMARK VINA RESULT:      -6.0     20.539     25.586
REMARK  5 active torsions:
REMARK  status: ('A' for Active; 'I' for Inactive)
REMARK    1  A    between atoms: N_2  and  C_14 
REMARK    2  A    between atoms: C_3  and  C_7 
REMARK    3  A    between atoms: C_3  and  C_8 
REMARK    4  A    between atoms: C_7  and  C_9 
REMARK    5  A    between atoms: C_9  and  C_14 
ROOT
HETATM    1  O   UNK N   1      25.992  25.466  -4.796  0.00  0.00    -0.355 OA
HETATM    2  C   UNK N   1      27.144  25.056  -5.546  0.00  0.00     0.117 A 
HETATM    3  C   UNK N   1      25.840  26.885  -4.896  0.00  0.00     0.083 A 
HETATM    4  C   UNK N   1      27.695  26.311  -6.130  0.00  0.00    -0.010 A 
HETATM    5  C   UNK N   1      26.948  27.356  -5.741  0.00  0.00    -0.015 A 
HETATM    6  C   UNK N   1      24.506  27.214  -5.543  0.00  0.00     0.051 C 
HETATM    7  C   UNK N   1      25.915  27.508  -3.514  0.00  0.00     0.051 C 
HETATM    8  C   UNK N   1      28.809  26.485  -6.961  0.00  0.00     0.011 A 
HETATM    9  C   UNK N   1      27.251  28.665  -6.133  0.00  0.00     0.011 A 
HETATM   10  C   UNK N   1      29.148  27.782  -7.372  0.00  0.00     0.001 A 
HETATM   11  C   UNK N   1      28.370  28.876  -6.954  0.00  0.00     0.001 A 
ENDROOT
BRANCH   2  12
HETATM   12  C   UNK N   1      28.132  24.411  -4.536  0.00  0.00     0.050 C 
BRANCH  12  13
HETATM   13  C   UNK N   1      27.576  24.017  -3.165  0.00  0.00     0.033 C 
BRANCH  13  14
HETATM   14  C   UNK N   1      28.565  23.245  -2.310  0.00  0.00     0.269 C 
BRANCH  14  15
HETATM   15  N   UNK N   1      29.923  23.646  -2.649  0.00  0.00     0.079 N 
HETATM   16  C   UNK N   1      30.734  22.444  -2.681  0.00  0.00     0.306 C 
HETATM   17  H   UNK N   1      30.302  24.261  -1.894  0.00  0.00     0.315 HD
ENDBRANCH  14  15
ENDBRANCH  13  14
ENDBRANCH  12  13
ENDBRANCH   2  12
BRANCH   2  18
HETATM   18  C   UNK N   1      26.672  24.096  -6.629  0.00  0.00    -0.019 A 
HETATM   19  C   UNK N   1      25.726  24.479  -7.595  0.00  0.00     0.010 A 
HETATM   20  C   UNK N   1      25.351  23.595  -8.611  0.00  0.00     0.001 A 
HETATM   21  C   UNK N   1      25.926  22.324  -8.682  0.00  0.00     0.000 A 
HETATM   22  C   UNK N   1      26.871  21.933  -7.732  0.00  0.00     0.001 A 
HETATM   23  C   UNK N   1      27.243  22.814  -6.712  0.00  0.00     0.010 A 
ENDBRANCH   2  18
TORSDOF 5
ENDMDL
