MODEL 1
REMARK VINA RESULT:      -6.2      0.000      0.000
REMARK  5 active torsions:
REMARK  status: ('A' for Active; 'I' for Inactive)
REMARK    1  A    between atoms: N_1  and  C_11 
REMARK    2  A    between atoms: N_2  and  C_13 
REMARK    3  A    between atoms: C_3  and  C_5 
REMARK    4  A    between atoms: C_5  and  C_9 
REMARK    5  A    between atoms: C_9  and  C_13 
ROOT
HETATM    1  N   UNK N   1      31.353  16.153   6.869  0.00  0.00    -0.345 N 
HETATM    2  C   UNK N   1      33.339  14.854   6.649  0.00  0.00     0.002 C 
HETATM    3  C   UNK N   1      32.108  15.130   7.559  0.00  0.00     0.143 C 
HETATM    4  C   UNK N   1      32.985  15.596   5.389  0.00  0.00    -0.021 A 
HETATM    5  C   UNK N   1      31.848  16.323   5.572  0.00  0.00     0.042 A 
HETATM    6  C   UNK N   1      33.501  13.364   6.396  0.00  0.00     0.022 C 
HETATM    7  C   UNK N   1      33.699  15.655   4.188  0.00  0.00     0.010 A 
HETATM    8  C   UNK N   1      31.339  17.151   4.563  0.00  0.00     0.030 A 
HETATM    9  C   UNK N   1      33.202  16.464   3.152  0.00  0.00     0.001 A 
HETATM   10  C   UNK N   1      32.022  17.209   3.338  0.00  0.00     0.002 A 
ENDROOT
BRANCH   2  11
HETATM   11  C   UNK N   1      34.592  15.462   7.288  0.00  0.00     0.017 C 
BRANCH  11  12
HETATM   12  C   UNK N   1      34.435  15.621   8.798  0.00  0.00     0.031 C 
BRANCH  12  13
HETATM   13  C   UNK N   1      34.593  17.080   9.188  0.00  0.00     0.269 C 
BRANCH  13  14
HETATM   14  N   UNK N   1      35.118  17.171  10.542  0.00  0.00     0.079 N 
HETATM   15  C   UNK N   1      35.090  15.836  11.109  0.00  0.00     0.306 C 
HETATM   16  H   UNK N   1      36.120  17.462  10.477  0.00  0.00     0.315 HD
ENDBRANCH  13  14
ENDBRANCH  12  13
ENDBRANCH  11  12
ENDBRANCH   2  11
BRANCH   1  17
HETATM   17  C   UNK N   1      30.476  17.038   7.564  0.00  0.00     0.034 A 
HETATM   18  C   UNK N   1      29.097  17.003   7.295  0.00  0.00     0.029 A 
HETATM   19  C   UNK N   1      28.206  17.784   8.032  0.00  0.00     0.002 A 
HETATM   20  C   UNK N   1      28.685  18.610   9.051  0.00  0.00     0.000 A 
HETATM   21  C   UNK N   1      30.053  18.660   9.326  0.00  0.00     0.002 A 
HETATM   22  C   UNK N   1      30.945  17.876   8.590  0.00  0.00     0.029 A 
ENDBRANCH   1  17
TORSDOF 5
ENDMDL
MODEL 2
REMARK VINA RESULT:      -6.2      1.709      5.462
REMARK  5 active torsions:
REMARK  status: ('A' for Active; 'I' for Inactive)
REMARK    1  A    between atoms: N_1  and  C_11 
REMARK    2  A    between atoms: N_2  and  C_13 
REMARK    3  A    between atoms: C_3  and  C_5 
REMARK    4  A    between atoms: C_5  and  C_9 
REMARK    5  A    between atoms: C_9  and  C_13 
ROOT
HETATM    1  N   UNK N   1      31.519  16.227   7.794  0.00  0.00    -0.345 N 
HETATM    2  C   UNK N   1      30.362  16.565   5.738  0.00  0.00     0.002 C 
HETATM    3  C   UNK N   1      31.473  15.729   6.437  0.00  0.00     0.143 C 
HETATM    4  C   UNK N   1      29.717  17.280   6.895  0.00  0.00    -0.021 A 
HETATM    5  C   UNK N   1      30.420  17.056   8.040  0.00  0.00     0.042 A 
HETATM    6  C   UNK N   1      29.376  15.658   5.019  0.00  0.00     0.022 C 
HETATM    7  C   UNK N   1      28.611  18.133   6.877  0.00  0.00     0.010 A 
HETATM    8  C   UNK N   1      30.057  17.661   9.250  0.00  0.00     0.030 A 
HETATM    9  C   UNK N   1      28.213  18.740   8.081  0.00  0.00     0.001 A 
HETATM   10  C   UNK N   1      28.934  18.502   9.266  0.00  0.00     0.002 A 
ENDROOT
BRANCH   2  11
HETATM   11  C   UNK N   1      31.008  17.574   4.784  0.00  0.00     0.017 C 
BRANCH  11  12
HETATM   12  C   UNK N   1      32.424  17.158   4.396  0.00  0.00     0.031 C 
BRANCH  12  13
HETATM   13  C   UNK N   1      32.506  16.921   2.897  0.00  0.00     0.269 C 
BRANCH  13  14
HETATM   14  N   UNK N   1      33.329  15.752   2.630  0.00  0.00     0.079 N 
HETATM   15  C   UNK N   1      32.557  14.581   3.004  0.00  0.00     0.306 C 
HETATM   16  H   UNK N   1      33.490  15.703   1.598  0.00  0.00     0.315 HD
ENDBRANCH  13  14
ENDBRANCH  12  13
ENDBRANCH  11  12
ENDBRANCH   2  11
BRANCH   1  17
HETATM   17  C   UNK N   1      32.694  16.117   8.596  0.00  0.00     0.034 A 
HETATM   18  C   UNK N   1      33.658  17.138   8.559  0.00  0.00     0.029 A 
HETATM   19  C   UNK N   1      34.765  17.105   9.408  0.00  0.00     0.002 A 
HETATM   20  C   UNK N   1      34.920  16.049  10.309  0.00  0.00     0.000 A 
HETATM   21  C   UNK N   1      33.972  15.024  10.353  0.00  0.00     0.002 A 
HETATM   22  C   UNK N   1      32.862  15.059   9.505  0.00  0.00     0.029 A 
ENDBRANCH   1  17
TORSDOF 5
ENDMDL
MODEL 3
REMARK VINA RESULT:      -6.1      5.138      9.102
REMARK  5 active torsions:
REMARK  status: ('A' for Active; 'I' for Inactive)
REMARK    1  A    between atoms: N_1  and  C_11 
REMARK    2  A    between atoms: N_2  and  C_13 
REMARK    3  A    between atoms: C_3  and  C_5 
REMARK    4  A    between atoms: C_5  and  C_9 
REMARK    5  A    between atoms: C_9  and  C_13 
ROOT
HETATM    1  N   UNK N   1      35.892  12.090  14.206  0.00  0.00    -0.345 N 
HETATM    2  C   UNK N   1      36.285  13.272  12.174  0.00  0.00     0.002 C 
HETATM    3  C   UNK N   1      36.749  13.114  13.650  0.00  0.00     0.143 C 
HETATM    4  C   UNK N   1      35.362  12.097  11.996  0.00  0.00    -0.021 A 
HETATM    5  C   UNK N   1      35.169  11.462  13.186  0.00  0.00     0.042 A 
HETATM    6  C   UNK N   1      37.470  13.203  11.225  0.00  0.00     0.022 C 
HETATM    7  C   UNK N   1      34.690  11.690  10.840  0.00  0.00     0.010 A 
HETATM    8  C   UNK N   1      34.302  10.369  13.299  0.00  0.00     0.030 A 
HETATM    9  C   UNK N   1      33.827  10.584  10.920  0.00  0.00     0.001 A 
HETATM   10  C   UNK N   1      33.635   9.923  12.147  0.00  0.00     0.002 A 
ENDROOT
BRANCH   2  11
HETATM   11  C   UNK N   1      35.509  14.584  12.022  0.00  0.00     0.017 C 
BRANCH  11  12
HETATM   12  C   UNK N   1      36.079  15.451  10.902  0.00  0.00     0.031 C 
BRANCH  12  13
HETATM   13  C   UNK N   1      35.012  15.715   9.853  0.00  0.00     0.269 C 
BRANCH  13  14
HETATM   14  N   UNK N   1      34.520  17.078   9.988  0.00  0.00     0.079 N 
HETATM   15  C   UNK N   1      34.496  17.665   8.661  0.00  0.00     0.306 C 
HETATM   16  H   UNK N   1      33.532  17.028  10.325  0.00  0.00     0.315 HD
ENDBRANCH  13  14
ENDBRANCH  12  13
ENDBRANCH  11  12
ENDBRANCH   2  11
BRANCH   1  17
HETATM   17  C   UNK N   1      35.628  12.007  15.606  0.00  0.00     0.034 A 
HETATM   18  C   UNK N   1      35.987  10.847  16.313  0.00  0.00     0.029 A 
HETATM   19  C   UNK N   1      35.833  10.780  17.698  0.00  0.00     0.002 A 
HETATM   20  C   UNK N   1      35.320  11.876  18.395  0.00  0.00     0.000 A 
HETATM   21  C   UNK N   1      34.954  13.034  17.705  0.00  0.00     0.002 A 
HETATM   22  C   UNK N   1      35.111  13.102  16.317  0.00  0.00     0.029 A 
ENDBRANCH   1  17
TORSDOF 5
ENDMDL
MODEL 4
REMARK VINA RESULT:      -6.0     13.151     16.522
REMARK  5 active torsions:
REMARK  status: ('A' for Active; 'I' for Inactive)
REMARK    1  A    between atoms: N_1  and  C_11 
REMARK    2  A    between atoms: N_2  and  C_13 
REMARK    3  A    between atoms: C_3  and  C_5 
REMARK    4  A    between atoms: C_5  and  C_9 
REMARK    5  A    between atoms: C_9  and  C_13 
ROOT
HETATM    1  N   UNK N   1      28.356  24.389  -5.511  0.00  0.00    -0.345 N 
HETATM    2  C   UNK N   1      26.667  25.877  -6.293  0.00  0.00     0.002 C 
HETATM    3  C   UNK N   1      27.970  25.781  -5.448  0.00  0.00     0.143 C 
HETATM    4  C   UNK N   1      26.614  24.531  -6.963  0.00  0.00    -0.021 A 
HETATM    5  C   UNK N   1      27.596  23.722  -6.477  0.00  0.00     0.042 A 
HETATM    6  C   UNK N   1      26.762  27.006  -7.306  0.00  0.00     0.022 C 
HETATM    7  C   UNK N   1      25.684  24.064  -7.896  0.00  0.00     0.010 A 
HETATM    8  C   UNK N   1      27.723  22.392  -6.899  0.00  0.00     0.030 A 
HETATM    9  C   UNK N   1      25.798  22.739  -8.351  0.00  0.00     0.001 A 
HETATM   10  C   UNK N   1      26.818  21.905  -7.854  0.00  0.00     0.002 A 
ENDROOT
BRANCH   2  11
HETATM   11  C   UNK N   1      25.466  26.051  -5.357  0.00  0.00     0.017 C 
BRANCH  11  12
HETATM   12  C   UNK N   1      25.202  27.521  -5.046  0.00  0.00     0.031 C 
BRANCH  12  13
HETATM   13  C   UNK N   1      25.665  27.847  -3.636  0.00  0.00     0.269 C 
BRANCH  13  14
HETATM   14  N   UNK N   1      25.902  29.277  -3.517  0.00  0.00     0.079 N 
HETATM   15  C   UNK N   1      26.923  29.631  -4.486  0.00  0.00     0.306 C 
HETATM   16  H   UNK N   1      25.023  29.771  -3.794  0.00  0.00     0.315 HD
ENDBRANCH  13  14
ENDBRANCH  12  13
ENDBRANCH  11  12
ENDBRANCH   2  11
BRANCH   1  17
HETATM   17  C   UNK N   1      29.156  23.784  -4.496  0.00  0.00     0.034 A 
HETATM   18  C   UNK N   1      30.516  23.530  -4.742  0.00  0.00     0.029 A 
HETATM   19  C   UNK N   1      31.343  23.034  -3.734  0.00  0.00     0.002 A 
HETATM   20  C   UNK N   1      30.820  22.788  -2.463  0.00  0.00     0.000 A 
HETATM   21  C   UNK N   1      29.469  23.030  -2.205  0.00  0.00     0.002 A 
HETATM   22  C   UNK N   1      28.641  23.529  -3.214  0.00  0.00     0.029 A 
ENDBRANCH   1  17
TORSDOF 5
ENDMDL
MODEL 5
REMARK VINA RESULT:      -6.0     13.471     17.019
REMARK  5 active torsions:
REMARK  status: ('A' for Active; 'I' for Inactive)
REMARK    1  A    between atoms: N_1  and  C_11 
REMARK    2  A    between atoms: N_2  and  C_13 
REMARK    3  A    between atoms: C_3  and  C_5 
REMARK    4  A    between atoms: C_5  and  C_9 
REMARK    5  A    between atoms: C_9  and  C_13 
ROOT
HETATM    1  N   UNK N   1      27.521  25.324  -4.619  0.00  0.00    -0.345 N 
HETATM    2  C   UNK N   1      25.969  26.442  -6.040  0.00  0.00     0.002 C 
HETATM    3  C   UNK N   1      26.198  25.166  -5.180  0.00  0.00     0.143 C 
HETATM    4  C   UNK N   1      27.127  27.315  -5.641  0.00  0.00    -0.021 A 
HETATM    5  C   UNK N   1      27.983  26.627  -4.835  0.00  0.00     0.042 A 
HETATM    6  C   UNK N   1      24.635  27.089  -5.702  0.00  0.00     0.022 C 
HETATM    7  C   UNK N   1      27.409  28.621  -6.052  0.00  0.00     0.010 A 
HETATM    8  C   UNK N   1      29.174  27.201  -4.375  0.00  0.00     0.030 A 
HETATM    9  C   UNK N   1      28.589  29.229  -5.591  0.00  0.00     0.001 A 
HETATM   10  C   UNK N   1      29.469  28.521  -4.751  0.00  0.00     0.002 A 
ENDROOT
BRANCH   2  11
HETATM   11  C   UNK N   1      26.065  26.079  -7.526  0.00  0.00     0.017 C 
BRANCH  11  12
HETATM   12  C   UNK N   1      26.312  24.586  -7.727  0.00  0.00     0.031 C 
BRANCH  12  13
HETATM   13  C   UNK N   1      25.253  24.001  -8.645  0.00  0.00     0.269 C 
BRANCH  13  14
HETATM   14  N   UNK N   1      24.785  22.733  -8.107  0.00  0.00     0.079 N 
HETATM   15  C   UNK N   1      25.859  22.179  -7.302  0.00  0.00     0.306 C 
HETATM   16  H   UNK N   1      23.985  22.934  -7.464  0.00  0.00     0.315 HD
ENDBRANCH  13  14
ENDBRANCH  12  13
ENDBRANCH  11  12
ENDBRANCH   2  11
BRANCH   1  17
HETATM   17  C   UNK N   1      28.307  24.203  -4.215  0.00  0.00     0.034 A 
HETATM   18  C   UNK N   1      28.990  23.449  -5.183  0.00  0.00     0.029 A 
HETATM   19  C   UNK N   1      29.844  22.411  -4.807  0.00  0.00     0.002 A 
HETATM   20  C   UNK N   1      30.029  22.119  -3.455  0.00  0.00     0.000 A 
HETATM   21  C   UNK N   1      29.353  22.857  -2.481  0.00  0.00     0.002 A 
HETATM   22  C   UNK N   1      28.499  23.897  -2.858  0.00  0.00     0.029 A 
ENDBRANCH   1  17
TORSDOF 5
ENDMDL
MODEL 6
REMARK VINA RESULT:      -6.0      3.027      5.617
REMARK  5 active torsions:
REMARK  status: ('A' for Active; 'I' for Inactive)
REMARK    1  A    between atoms: N_1  and  C_11 
REMARK    2  A    between atoms: N_2  and  C_13 
REMARK    3  A    between atoms: C_3  and  C_5 
REMARK    4  A    between atoms: C_5  and  C_9 
REMARK    5  A    between atoms: C_9  and  C_13 
ROOT
HETATM    1  N   UNK N   1      29.026  18.220   5.363  0.00  0.00    -0.345 N 
HETATM    2  C   UNK N   1      30.896  16.841   5.897  0.00  0.00     0.002 C 
HETATM    3  C   UNK N   1      30.195  17.627   4.751  0.00  0.00     0.143 C 
HETATM    4  C   UNK N   1      30.152  17.313   7.116  0.00  0.00    -0.021 A 
HETATM    5  C   UNK N   1      29.094  18.091   6.754  0.00  0.00     0.042 A 
HETATM    6  C   UNK N   1      32.373  17.195   5.968  0.00  0.00     0.022 C 
HETATM    7  C   UNK N   1      30.388  16.986   8.455  0.00  0.00     0.010 A 
HETATM    8  C   UNK N   1      28.206  18.606   7.707  0.00  0.00     0.030 A 
HETATM    9  C   UNK N   1      29.524  17.505   9.434  0.00  0.00     0.001 A 
HETATM   10  C   UNK N   1      28.436  18.315   9.061  0.00  0.00     0.002 A 
ENDROOT
BRANCH   2  11
HETATM   11  C   UNK N   1      30.679  15.339   5.690  0.00  0.00     0.017 C 
BRANCH  11  12
HETATM   12  C   UNK N   1      30.342  15.011   4.238  0.00  0.00     0.031 C 
BRANCH  12  13
HETATM   13  C   UNK N   1      31.524  14.329   3.570  0.00  0.00     0.269 C 
BRANCH  13  14
HETATM   14  N   UNK N   1      32.283  15.304   2.803  0.00  0.00     0.079 N 
HETATM   15  C   UNK N   1      33.688  15.098   3.105  0.00  0.00     0.306 C 
HETATM   16  H   UNK N   1      32.147  15.089   1.789  0.00  0.00     0.315 HD
ENDBRANCH  13  14
ENDBRANCH  12  13
ENDBRANCH  11  12
ENDBRANCH   2  11
BRANCH   1  17
HETATM   17  C   UNK N   1      27.872  18.569   4.600  0.00  0.00     0.034 A 
HETATM   18  C   UNK N   1      26.937  17.577   4.262  0.00  0.00     0.029 A 
HETATM   19  C   UNK N   1      25.752  17.908   3.605  0.00  0.00     0.002 A 
HETATM   20  C   UNK N   1      25.484  19.240   3.281  0.00  0.00     0.000 A 
HETATM   21  C   UNK N   1      26.407  20.237   3.607  0.00  0.00     0.002 A 
HETATM   22  C   UNK N   1      27.594  19.905   4.267  0.00  0.00     0.029 A 
ENDBRANCH   1  17
TORSDOF 5
ENDMDL
MODEL 7
REMARK VINA RESULT:      -5.9      3.274      6.268
REMARK  5 active torsions:
REMARK  status: ('A' for Active; 'I' for Inactive)
REMARK    1  A    between atoms: N_1  and  C_11 
REMARK    2  A    between atoms: N_2  and  C_13 
REMARK    3  A    between atoms: C_3  and  C_5 
REMARK    4  A    between atoms: C_5  and  C_9 
REMARK    5  A    between atoms: C_9  and  C_13 
ROOT
HETATM    1  N   UNK N   1      28.075  17.530   6.204  0.00  0.00    -0.345 N 
HETATM    2  C   UNK N   1      26.762  16.637   4.427  0.00  0.00     0.002 C 
HETATM    3  C   UNK N   1      27.554  16.273   5.715  0.00  0.00     0.143 C 
HETATM    4  C   UNK N   1      26.716  18.140   4.488  0.00  0.00    -0.021 A 
HETATM    5  C   UNK N   1      27.485  18.595   5.516  0.00  0.00     0.042 A 
HETATM    6  C   UNK N   1      25.368  16.031   4.460  0.00  0.00     0.022 C 
HETATM    7  C   UNK N   1      26.075  19.022   3.615  0.00  0.00     0.010 A 
HETATM    8  C   UNK N   1      27.656  19.965   5.749  0.00  0.00     0.030 A 
HETATM    9  C   UNK N   1      26.214  20.404   3.835  0.00  0.00     0.001 A 
HETATM   10  C   UNK N   1      27.001  20.874   4.903  0.00  0.00     0.002 A 
ENDROOT
BRANCH   2  11
HETATM   11  C   UNK N   1      27.553  16.180   3.197  0.00  0.00     0.017 C 
BRANCH  11  12
HETATM   12  C   UNK N   1      28.517  15.046   3.535  0.00  0.00     0.031 C 
BRANCH  12  13
HETATM   13  C   UNK N   1      29.854  15.276   2.850  0.00  0.00     0.269 C 
BRANCH  13  14
HETATM   14  N   UNK N   1      30.157  16.699   2.835  0.00  0.00     0.079 N 
HETATM   15  C   UNK N   1      31.592  16.839   3.007  0.00  0.00     0.306 C 
HETATM   16  H   UNK N   1      29.919  17.066   1.886  0.00  0.00     0.315 HD
ENDBRANCH  13  14
ENDBRANCH  12  13
ENDBRANCH  11  12
ENDBRANCH   2  11
BRANCH   1  17
HETATM   17  C   UNK N   1      29.241  17.594   7.024  0.00  0.00     0.034 A 
HETATM   18  C   UNK N   1      30.463  17.105   6.534  0.00  0.00     0.029 A 
HETATM   19  C   UNK N   1      31.637  17.247   7.275  0.00  0.00     0.002 A 
HETATM   20  C   UNK N   1      31.603  17.886   8.516  0.00  0.00     0.000 A 
HETATM   21  C   UNK N   1      30.395  18.373   9.019  0.00  0.00     0.002 A 
HETATM   22  C   UNK N   1      29.219  18.232   8.276  0.00  0.00     0.029 A 
ENDBRANCH   1  17
TORSDOF 5
ENDMDL
MODEL 8
REMARK VINA RESULT:      -5.5     14.133     17.063
REMARK  5 active torsions:
REMARK  status: ('A' for Active; 'I' for Inactive)
REMARK    1  A    between atoms: N_1  and  C_11 
REMARK    2  A    between atoms: N_2  and  C_13 
REMARK    3  A    between atoms: C_3  and  C_5 
REMARK    4  A    between atoms: C_5  and  C_9 
REMARK    5  A    between atoms: C_9  and  C_13 
ROOT
HETATM    1  N   UNK N   1      25.817  24.936  -6.483  0.00  0.00    -0.345 N 
HETATM    2  C   UNK N   1      26.067  22.726  -7.339  0.00  0.00     0.002 C 
HETATM    3  C   UNK N   1      25.821  23.557  -6.047  0.00  0.00     0.143 C 
HETATM    4  C   UNK N   1      25.911  23.757  -8.423  0.00  0.00    -0.021 A 
HETATM    5  C   UNK N   1      25.777  24.999  -7.880  0.00  0.00     0.042 A 
HETATM    6  C   UNK N   1      25.038  21.614  -7.470  0.00  0.00     0.022 C 
HETATM    7  C   UNK N   1      25.966  23.574  -9.808  0.00  0.00     0.010 A 
HETATM    8  C   UNK N   1      25.676  26.142  -8.683  0.00  0.00     0.030 A 
HETATM    9  C   UNK N   1      25.848  24.701 -10.639  0.00  0.00     0.001 A 
HETATM   10  C   UNK N   1      25.701  25.983 -10.077  0.00  0.00     0.002 A 
ENDROOT
BRANCH   2  11
HETATM   11  C   UNK N   1      27.498  22.179  -7.328  0.00  0.00     0.017 C 
BRANCH  11  12
HETATM   12  C   UNK N   1      28.292  22.699  -6.133  0.00  0.00     0.031 C 
BRANCH  12  13
HETATM   13  C   UNK N   1      29.751  22.296  -6.261  0.00  0.00     0.269 C 
BRANCH  13  14
HETATM   14  N   UNK N   1      30.033  21.188  -5.362  0.00  0.00     0.079 N 
HETATM   15  C   UNK N   1      30.288  21.748  -4.047  0.00  0.00     0.306 C 
HETATM   16  H   UNK N   1      29.168  20.606  -5.291  0.00  0.00     0.315 HD
ENDBRANCH  13  14
ENDBRANCH  12  13
ENDBRANCH  11  12
ENDBRANCH   2  11
BRANCH   1  17
HETATM   17  C   UNK N   1      26.137  26.006  -5.596  0.00  0.00     0.034 A 
HETATM   18  C   UNK N   1      25.163  26.972  -5.292  0.00  0.00     0.029 A 
HETATM   19  C   UNK N   1      25.418  27.970  -4.350  0.00  0.00     0.002 A 
HETATM   20  C   UNK N   1      26.651  28.012  -3.697  0.00  0.00     0.000 A 
HETATM   21  C   UNK N   1      27.631  27.061  -3.992  0.00  0.00     0.002 A 
HETATM   22  C   UNK N   1      27.375  26.060  -4.933  0.00  0.00     0.029 A 
ENDBRANCH   1  17
TORSDOF 5
ENDMDL
MODEL 9
REMARK VINA RESULT:      -5.5      3.352      6.462
REMARK  5 active torsions:
REMARK  status: ('A' for Active; 'I' for Inactive)
REMARK    1  A    between atoms: N_1  and  C_11 
REMARK    2  A    between atoms: N_2  and  C_13 
REMARK    3  A    between atoms: C_3  and  C_5 
REMARK    4  A    between atoms: C_5  and  C_9 
REMARK    5  A    between atoms: C_9  and  C_13 
ROOT
HETATM    1  N   UNK N   1      29.256  17.991   4.336  0.00  0.00    -0.345 N 
HETATM    2  C   UNK N   1      27.226  19.238   4.409  0.00  0.00     0.002 C 
HETATM    3  C   UNK N   1      28.775  19.346   4.497  0.00  0.00     0.143 C 
HETATM    4  C   UNK N   1      27.025  17.823   3.938  0.00  0.00    -0.021 A 
HETATM    5  C   UNK N   1      28.213  17.157   3.920  0.00  0.00     0.042 A 
HETATM    6  C   UNK N   1      26.669  20.245   3.415  0.00  0.00     0.022 C 
HETATM    7  C   UNK N   1      25.826  17.177   3.623  0.00  0.00     0.010 A 
HETATM    8  C   UNK N   1      28.286  15.802   3.574  0.00  0.00     0.030 A 
HETATM    9  C   UNK N   1      25.871  15.822   3.254  0.00  0.00     0.001 A 
HETATM   10  C   UNK N   1      27.100  15.136   3.227  0.00  0.00     0.002 A 
ENDROOT
BRANCH   2  11
HETATM   11  C   UNK N   1      26.623  19.423   5.805  0.00  0.00     0.017 C 
BRANCH  11  12
HETATM   12  C   UNK N   1      27.552  20.215   6.721  0.00  0.00     0.031 C 
BRANCH  12  13
HETATM   13  C   UNK N   1      27.897  19.394   7.951  0.00  0.00     0.269 C 
BRANCH  13  14
HETATM   14  N   UNK N   1      27.574  17.995   7.712  0.00  0.00     0.079 N 
HETATM   15  C   UNK N   1      27.923  17.257   8.913  0.00  0.00     0.306 C 
HETATM   16  H   UNK N   1      26.538  17.923   7.591  0.00  0.00     0.315 HD
ENDBRANCH  13  14
ENDBRANCH  12  13
ENDBRANCH  11  12
ENDBRANCH   2  11
BRANCH   1  17
HETATM   17  C   UNK N   1      30.518  17.574   4.853  0.00  0.00     0.034 A 
HETATM   18  C   UNK N   1      31.676  17.737   4.074  0.00  0.00     0.029 A 
HETATM   19  C   UNK N   1      32.935  17.432   4.594  0.00  0.00     0.002 A 
HETATM   20  C   UNK N   1      33.051  16.964   5.904  0.00  0.00     0.000 A 
HETATM   21  C   UNK N   1      31.909  16.792   6.689  0.00  0.00     0.002 A 
HETATM   22  C   UNK N   1      30.648  17.099   6.169  0.00  0.00     0.029 A 
ENDBRANCH   1  17
TORSDOF 5
ENDMDL
