MODEL 1
REMARK VINA RESULT:      -6.1      0.000      0.000
REMARK  5 active torsions:
REMARK  status: ('A' for Active; 'I' for Inactive)
REMARK    1  A    between atoms: O_3  and  C_18 
REMARK    2  A    between atoms: N_4  and  C_13 
REMARK    3  A    between atoms: C_8  and  N_6 
REMARK       I    between atoms: N_6  and  C_16 
REMARK    4  A    between atoms: N_7  and  C_22 
REMARK    5  A    between atoms: C_16  and  C_17 
ROOT
HETATM    1  O   UNK N   1      23.101  15.258   5.647  0.00  0.00    -0.268 OA
HETATM    2  N   UNK N   1      20.892  15.536   5.423  0.00  0.00    -0.349 N 
HETATM    3  C   UNK N   1      21.989  15.119   6.128  0.00  0.00     0.254 C 
HETATM    4  H   UNK N   1      19.952  15.420   5.829  0.00  0.00     0.163 HD
ENDROOT
BRANCH   3   5
HETATM    5  C   UNK N   1      21.829  14.562   7.514  0.00  0.00     0.066 A 
HETATM    6  C   UNK N   1      20.650  14.686   8.321  0.00  0.00     0.086 A 
HETATM    7  C   UNK N   1      20.594  14.007   9.545  0.00  0.00     0.068 A 
HETATM    8  C   UNK N   1      21.661  13.230  10.015  0.00  0.00     0.048 A 
HETATM    9  C   UNK N   1      22.826  13.135   9.236  0.00  0.00     0.038 A 
HETATM   10 Br   UNK N   1      24.344  12.099   9.772  0.00  0.00    -0.049 Br
HETATM   11  C   UNK N   1      22.892  13.792   8.011  0.00  0.00     0.041 A 
BRANCH   6  12
HETATM   12  O   UNK N   1      19.564  15.434   7.998  0.00  0.00    -0.355 OA
HETATM   13  C   UNK N   1      19.183  16.591   8.636  0.00  0.00     0.210 C 
ENDBRANCH   6  12
BRANCH   8  14
HETATM   14  N   UNK N   1      21.558  12.552  11.265  0.00  0.00    -0.393 N 
HETATM   15  C   UNK N   1      20.299  12.036  11.738  0.00  0.00     0.146 C 
HETATM   16  H   UNK N   1      22.388  12.413  11.856  0.00  0.00     0.159 HD
ENDBRANCH   8  14
ENDBRANCH   3   5
BRANCH   2  17
HETATM   17  C   UNK N   1      21.007  16.177   4.124  0.00  0.00     0.141 C 
HETATM   18  C   UNK N   1      20.719  17.677   4.257  0.00  0.00     0.299 C 
HETATM   19  N   UNK N   1      20.946  18.410   3.016  0.00  0.00     0.091 N 
HETATM   20  C   UNK N   1      19.787  18.188   2.157  0.00  0.00     0.302 C 
HETATM   21  C   UNK N   1      20.002  17.027   1.177  0.00  0.00     0.302 C 
HETATM   22  N   UNK N   1      20.582  15.816   1.767  0.00  0.00     0.087 N 
HETATM   23  C   UNK N   1      20.066  15.545   3.103  0.00  0.00     0.298 C 
HETATM   24  C   UNK N   1      20.174  14.706   0.926  0.00  0.00     0.310 C 
BRANCH  19  25
HETATM   25  C   UNK N   1      20.920  19.816   3.401  0.00  0.00     0.268 C 
HETATM   26  C   UNK N   1      21.973  20.606   2.644  0.00  0.00     0.037 C 
ENDBRANCH  19  25
ENDBRANCH   2  17
TORSDOF 5
ENDMDL
MODEL 2
REMARK VINA RESULT:      -6.0      1.618      2.401
REMARK  5 active torsions:
REMARK  status: ('A' for Active; 'I' for Inactive)
REMARK    1  A    between atoms: O_3  and  C_18 
REMARK    2  A    between atoms: N_4  and  C_13 
REMARK    3  A    between atoms: C_8  and  N_6 
REMARK       I    between atoms: N_6  and  C_16 
REMARK    4  A    between atoms: N_7  and  C_22 
REMARK    5  A    between atoms: C_16  and  C_17 
ROOT
HETATM    1  O   UNK N   1      22.688  14.811   5.363  0.00  0.00    -0.268 OA
HETATM    2  N   UNK N   1      21.864  16.762   6.086  0.00  0.00    -0.349 N 
HETATM    3  C   UNK N   1      22.172  15.441   6.271  0.00  0.00     0.254 C 
HETATM    4  H   UNK N   1      21.429  17.295   6.853  0.00  0.00     0.163 HD
ENDROOT
BRANCH   3   5
HETATM    5  C   UNK N   1      21.946  14.792   7.607  0.00  0.00     0.066 A 
HETATM    6  C   UNK N   1      20.746  14.906   8.386  0.00  0.00     0.086 A 
HETATM    7  C   UNK N   1      20.624  14.143   9.554  0.00  0.00     0.068 A 
HETATM    8  C   UNK N   1      21.643  13.289   9.996  0.00  0.00     0.048 A 
HETATM    9  C   UNK N   1      22.828  13.203   9.247  0.00  0.00     0.038 A 
HETATM   10 Br   UNK N   1      24.286  12.067   9.749  0.00  0.00    -0.049 Br
HETATM   11  C   UNK N   1      22.960  13.944   8.076  0.00  0.00     0.041 A 
BRANCH   6  12
HETATM   12  O   UNK N   1      19.702  15.721   8.088  0.00  0.00    -0.355 OA
HETATM   13  C   UNK N   1      19.051  16.533   8.986  0.00  0.00     0.210 C 
ENDBRANCH   6  12
BRANCH   8  14
HETATM   14  N   UNK N   1      21.473  12.527  11.189  0.00  0.00    -0.393 N 
HETATM   15  C   UNK N   1      20.168  12.109  11.633  0.00  0.00     0.146 C 
HETATM   16  H   UNK N   1      22.285  12.254  11.758  0.00  0.00     0.159 HD
ENDBRANCH   8  14
ENDBRANCH   3   5
BRANCH   2  17
HETATM   17  C   UNK N   1      22.164  17.458   4.846  0.00  0.00     0.141 C 
HETATM   18  C   UNK N   1      23.541  18.125   4.944  0.00  0.00     0.299 C 
HETATM   19  N   UNK N   1      23.967  18.732   3.687  0.00  0.00     0.091 N 
HETATM   20  C   UNK N   1      23.274  20.011   3.561  0.00  0.00     0.302 C 
HETATM   21  C   UNK N   1      21.984  19.895   2.738  0.00  0.00     0.302 C 
HETATM   22  N   UNK N   1      21.129  18.754   3.081  0.00  0.00     0.087 N 
HETATM   23  C   UNK N   1      21.095  18.495   4.515  0.00  0.00     0.298 C 
HETATM   24  C   UNK N   1      19.779  19.111   2.686  0.00  0.00     0.310 C 
BRANCH  19  25
HETATM   25  C   UNK N   1      25.379  19.038   3.879  0.00  0.00     0.268 C 
HETATM   26  C   UNK N   1      25.767  20.303   3.134  0.00  0.00     0.037 C 
ENDBRANCH  19  25
ENDBRANCH   2  17
TORSDOF 5
ENDMDL
MODEL 3
REMARK VINA RESULT:      -5.8      5.818      9.042
REMARK  5 active torsions:
REMARK  status: ('A' for Active; 'I' for Inactive)
REMARK    1  A    between atoms: O_3  and  C_18 
REMARK    2  A    between atoms: N_4  and  C_13 
REMARK    3  A    between atoms: C_8  and  N_6 
REMARK       I    between atoms: N_6  and  C_16 
REMARK    4  A    between atoms: N_7  and  C_22 
REMARK    5  A    between atoms: C_16  and  C_17 
ROOT
HETATM    1  O   UNK N   1      25.007  16.343   4.801  0.00  0.00    -0.268 OA
HETATM    2  N   UNK N   1      26.213  18.141   5.369  0.00  0.00    -0.349 N 
HETATM    3  C   UNK N   1      25.116  17.558   4.793  0.00  0.00     0.254 C 
HETATM    4  H   UNK N   1      26.306  19.168   5.364  0.00  0.00     0.163 HD
ENDROOT
BRANCH   3   5
HETATM    5  C   UNK N   1      24.019  18.412   4.223  0.00  0.00     0.066 A 
HETATM    6  C   UNK N   1      24.187  19.749   3.730  0.00  0.00     0.086 A 
HETATM    7  C   UNK N   1      23.102  20.381   3.108  0.00  0.00     0.068 A 
HETATM    8  C   UNK N   1      21.855  19.757   2.972  0.00  0.00     0.048 A 
HETATM    9  C   UNK N   1      21.686  18.459   3.482  0.00  0.00     0.038 A 
HETATM   10 Br   UNK N   1      20.031  17.505   3.348  0.00  0.00    -0.049 Br
HETATM   11  C   UNK N   1      22.758  17.812   4.091  0.00  0.00     0.041 A 
BRANCH   6  12
HETATM   12  O   UNK N   1      25.329  20.475   3.831  0.00  0.00    -0.355 OA
HETATM   13  C   UNK N   1      26.249  20.647   2.824  0.00  0.00     0.210 C 
ENDBRANCH   6  12
BRANCH   8  14
HETATM   14  N   UNK N   1      20.781  20.436   2.326  0.00  0.00    -0.393 N 
HETATM   15  C   UNK N   1      20.762  20.625   0.898  0.00  0.00     0.146 C 
HETATM   16  H   UNK N   1      19.990  20.804   2.871  0.00  0.00     0.159 HD
ENDBRANCH   8  14
ENDBRANCH   3   5
BRANCH   2  17
HETATM   17  C   UNK N   1      27.247  17.359   6.026  0.00  0.00     0.141 C 
HETATM   18  C   UNK N   1      27.665  18.044   7.333  0.00  0.00     0.299 C 
HETATM   19  N   UNK N   1      28.606  17.247   8.114  0.00  0.00     0.091 N 
HETATM   20  C   UNK N   1      29.926  17.416   7.515  0.00  0.00     0.302 C 
HETATM   21  C   UNK N   1      30.257  16.303   6.512  0.00  0.00     0.302 C 
HETATM   22  N   UNK N   1      29.183  15.977   5.569  0.00  0.00     0.087 N 
HETATM   23  C   UNK N   1      28.458  17.160   5.120  0.00  0.00     0.298 C 
HETATM   24  C   UNK N   1      29.816  15.403   4.397  0.00  0.00     0.310 C 
BRANCH  19  25
HETATM   25  C   UNK N   1      28.651  17.895   9.419  0.00  0.00     0.268 C 
HETATM   26  C   UNK N   1      29.934  18.691   9.586  0.00  0.00     0.037 C 
ENDBRANCH  19  25
ENDBRANCH   2  17
TORSDOF 5
ENDMDL
MODEL 4
REMARK VINA RESULT:      -5.8      9.019      9.993
REMARK  5 active torsions:
REMARK  status: ('A' for Active; 'I' for Inactive)
REMARK    1  A    between atoms: O_3  and  C_18 
REMARK    2  A    between atoms: N_4  and  C_13 
REMARK    3  A    between atoms: C_8  and  N_6 
REMARK       I    between atoms: N_6  and  C_16 
REMARK    4  A    between atoms: N_7  and  C_22 
REMARK    5  A    between atoms: C_16  and  C_17 
ROOT
HETATM    1  O   UNK N   1      31.289  17.542   4.313  0.00  0.00    -0.268 OA
HETATM    2  N   UNK N   1      29.683  17.425   5.868  0.00  0.00    -0.349 N 
HETATM    3  C   UNK N   1      30.994  17.343   5.480  0.00  0.00     0.254 C 
HETATM    4  H   UNK N   1      29.433  17.259   6.854  0.00  0.00     0.163 HD
ENDROOT
BRANCH   3   5
HETATM    5  C   UNK N   1      32.069  17.085   6.498  0.00  0.00     0.066 A 
HETATM    6  C   UNK N   1      32.010  17.477   7.876  0.00  0.00     0.086 A 
HETATM    7  C   UNK N   1      33.028  17.058   8.742  0.00  0.00     0.068 A 
HETATM    8  C   UNK N   1      34.110  16.286   8.300  0.00  0.00     0.048 A 
HETATM    9  C   UNK N   1      34.180  15.929   6.944  0.00  0.00     0.038 A 
HETATM   10 Br   UNK N   1      35.607  14.873   6.226  0.00  0.00    -0.049 Br
HETATM   11  C   UNK N   1      33.169  16.326   6.073  0.00  0.00     0.041 A 
BRANCH   6  12
HETATM   12  O   UNK N   1      31.037  18.251   8.422  0.00  0.00    -0.355 OA
HETATM   13  C   UNK N   1      30.078  17.812   9.304  0.00  0.00     0.210 C 
ENDBRANCH   6  12
BRANCH   8  14
HETATM   14  N   UNK N   1      35.121  15.877   9.219  0.00  0.00    -0.393 N 
HETATM   15  C   UNK N   1      35.327  16.567  10.466  0.00  0.00     0.146 C 
HETATM   16  H   UNK N   1      35.725  15.071   9.009  0.00  0.00     0.159 HD
ENDBRANCH   8  14
ENDBRANCH   3   5
BRANCH   2  17
HETATM   17  C   UNK N   1      28.623  17.778   4.939  0.00  0.00     0.141 C 
HETATM   18  C   UNK N   1      27.800  18.940   5.506  0.00  0.00     0.299 C 
HETATM   19  N   UNK N   1      26.799  19.436   4.567  0.00  0.00     0.091 N 
HETATM   20  C   UNK N   1      25.666  18.516   4.607  0.00  0.00     0.302 C 
HETATM   21  C   UNK N   1      25.748  17.445   3.511  0.00  0.00     0.302 C 
HETATM   22  N   UNK N   1      27.062  16.810   3.361  0.00  0.00     0.087 N 
HETATM   23  C   UNK N   1      27.722  16.584   4.641  0.00  0.00     0.298 C 
HETATM   24  C   UNK N   1      26.829  15.505   2.772  0.00  0.00     0.310 C 
BRANCH  19  25
HETATM   25  C   UNK N   1      26.338  20.694   5.142  0.00  0.00     0.268 C 
HETATM   26  C   UNK N   1      27.123  21.039   6.395  0.00  0.00     0.037 C 
ENDBRANCH  19  25
ENDBRANCH   2  17
TORSDOF 5
ENDMDL
MODEL 5
REMARK VINA RESULT:      -5.8     12.853     15.912
REMARK  5 active torsions:
REMARK  status: ('A' for Active; 'I' for Inactive)
REMARK    1  A    between atoms: O_3  and  C_18 
REMARK    2  A    between atoms: N_4  and  C_13 
REMARK    3  A    between atoms: C_8  and  N_6 
REMARK       I    between atoms: N_6  and  C_16 
REMARK    4  A    between atoms: N_7  and  C_22 
REMARK    5  A    between atoms: C_16  and  C_17 
ROOT
HETATM    1  O   UNK N   1      35.284  17.098   9.866  0.00  0.00    -0.268 OA
HETATM    2  N   UNK N   1      35.119  14.938   9.306  0.00  0.00    -0.349 N 
HETATM    3  C   UNK N   1      34.758  16.251   9.164  0.00  0.00     0.254 C 
HETATM    4  H   UNK N   1      34.677  14.221   8.713  0.00  0.00     0.163 HD
ENDROOT
BRANCH   3   5
HETATM    5  C   UNK N   1      33.777  16.653   8.099  0.00  0.00     0.066 A 
HETATM    6  C   UNK N   1      33.995  16.525   6.687  0.00  0.00     0.086 A 
HETATM    7  C   UNK N   1      32.942  16.821   5.812  0.00  0.00     0.068 A 
HETATM    8  C   UNK N   1      31.692  17.257   6.270  0.00  0.00     0.048 A 
HETATM    9  C   UNK N   1      31.492  17.410   7.652  0.00  0.00     0.038 A 
HETATM   10 Br   UNK N   1      29.827  17.993   8.396  0.00  0.00    -0.049 Br
HETATM   11  C   UNK N   1      32.524  17.107   8.536  0.00  0.00     0.041 A 
BRANCH   6  12
HETATM   12  O   UNK N   1      35.166  16.147   6.114  0.00  0.00    -0.355 OA
HETATM   13  C   UNK N   1      35.416  14.912   5.565  0.00  0.00     0.210 C 
ENDBRANCH   6  12
BRANCH   8  14
HETATM   14  N   UNK N   1      30.647  17.542   5.343  0.00  0.00    -0.393 N 
HETATM   15  C   UNK N   1      30.575  16.878   4.066  0.00  0.00     0.146 C 
HETATM   16  H   UNK N   1      29.917  18.229   5.570  0.00  0.00     0.159 HD
ENDBRANCH   8  14
ENDBRANCH   3   5
BRANCH   2  17
HETATM   17  C   UNK N   1      36.142  14.517  10.249  0.00  0.00     0.141 C 
HETATM   18  C   UNK N   1      37.168  13.626   9.540  0.00  0.00     0.299 C 
HETATM   19  N   UNK N   1      38.298  13.273  10.393  0.00  0.00     0.091 N 
HETATM   20  C   UNK N   1      37.861  12.195  11.276  0.00  0.00     0.302 C 
HETATM   21  C   UNK N   1      37.367  12.717  12.631  0.00  0.00     0.302 C 
HETATM   22  N   UNK N   1      36.463  13.869  12.561  0.00  0.00     0.087 N 
HETATM   23  C   UNK N   1      35.535  13.782  11.440  0.00  0.00     0.298 C 
HETATM   24  C   UNK N   1      35.663  13.847  13.772  0.00  0.00     0.310 C 
BRANCH  19  25
HETATM   25  C   UNK N   1      39.286  12.699   9.488  0.00  0.00     0.268 C 
HETATM   26  C   UNK N   1      39.220  13.360   8.122  0.00  0.00     0.037 C 
ENDBRANCH  19  25
ENDBRANCH   2  17
TORSDOF 5
ENDMDL
MODEL 6
REMARK VINA RESULT:      -5.7      7.147      8.154
REMARK  5 active torsions:
REMARK  status: ('A' for Active; 'I' for Inactive)
REMARK    1  A    between atoms: O_3  and  C_18 
REMARK    2  A    between atoms: N_4  and  C_13 
REMARK    3  A    between atoms: C_8  and  N_6 
REMARK       I    between atoms: N_6  and  C_16 
REMARK    4  A    between atoms: N_7  and  C_22 
REMARK    5  A    between atoms: C_16  and  C_17 
ROOT
HETATM    1  O   UNK N   1      28.767  17.164   4.131  0.00  0.00    -0.268 OA
HETATM    2  N   UNK N   1      27.285  17.211   5.807  0.00  0.00    -0.349 N 
HETATM    3  C   UNK N   1      28.569  17.224   5.333  0.00  0.00     0.254 C 
HETATM    4  H   UNK N   1      27.117  17.264   6.823  0.00  0.00     0.163 HD
ENDROOT
BRANCH   3   5
HETATM    5  C   UNK N   1      29.723  17.388   6.281  0.00  0.00     0.066 A 
HETATM    6  C   UNK N   1      29.605  17.694   7.678  0.00  0.00     0.086 A 
HETATM    7  C   UNK N   1      30.761  17.691   8.470  0.00  0.00     0.068 A 
HETATM    8  C   UNK N   1      32.028  17.420   7.937  0.00  0.00     0.048 A 
HETATM    9  C   UNK N   1      32.143  17.151   6.564  0.00  0.00     0.038 A 
HETATM   10 Br   UNK N   1      33.821  16.761   5.726  0.00  0.00    -0.049 Br
HETATM   11  C   UNK N   1      31.003  17.136   5.765  0.00  0.00     0.041 A 
BRANCH   6  12
HETATM   12  O   UNK N   1      28.444  18.008   8.308  0.00  0.00    -0.355 OA
HETATM   13  C   UNK N   1      27.909  17.317   9.369  0.00  0.00     0.210 C 
ENDBRANCH   6  12
BRANCH   8  14
HETATM   14  N   UNK N   1      33.176  17.423   8.783  0.00  0.00    -0.393 N 
HETATM   15  C   UNK N   1      33.753  16.196   9.270  0.00  0.00     0.146 C 
HETATM   16  H   UNK N   1      33.621  18.308   9.061  0.00  0.00     0.159 HD
ENDBRANCH   8  14
ENDBRANCH   3   5
BRANCH   2  17
HETATM   17  C   UNK N   1      26.135  17.162   4.920  0.00  0.00     0.141 C 
HETATM   18  C   UNK N   1      25.603  18.579   4.678  0.00  0.00     0.299 C 
HETATM   19  N   UNK N   1      24.530  18.621   3.691  0.00  0.00     0.091 N 
HETATM   20  C   UNK N   1      23.303  18.194   4.359  0.00  0.00     0.302 C 
HETATM   21  C   UNK N   1      23.030  16.696   4.172  0.00  0.00     0.302 C 
HETATM   22  N   UNK N   1      24.190  15.823   4.382  0.00  0.00     0.087 N 
HETATM   23  C   UNK N   1      25.033  16.270   5.484  0.00  0.00     0.298 C 
HETATM   24  C   UNK N   1      23.670  14.520   4.753  0.00  0.00     0.310 C 
BRANCH  19  25
HETATM   25  C   UNK N   1      24.365  20.035   3.376  0.00  0.00     0.268 C 
HETATM   26  C   UNK N   1      25.641  20.612   2.788  0.00  0.00     0.037 C 
ENDBRANCH  19  25
ENDBRANCH   2  17
TORSDOF 5
ENDMDL
MODEL 7
REMARK VINA RESULT:      -5.6      6.246      8.774
REMARK  5 active torsions:
REMARK  status: ('A' for Active; 'I' for Inactive)
REMARK    1  A    between atoms: O_3  and  C_18 
REMARK    2  A    between atoms: N_4  and  C_13 
REMARK    3  A    between atoms: C_8  and  N_6 
REMARK       I    between atoms: N_6  and  C_16 
REMARK    4  A    between atoms: N_7  and  C_22 
REMARK    5  A    between atoms: C_16  and  C_17 
ROOT
HETATM    1  O   UNK N   1      26.290  19.666   4.651  0.00  0.00    -0.268 OA
HETATM    2  N   UNK N   1      26.470  17.696   5.698  0.00  0.00    -0.349 N 
HETATM    3  C   UNK N   1      25.764  18.611   4.964  0.00  0.00     0.254 C 
HETATM    4  H   UNK N   1      26.026  16.804   5.962  0.00  0.00     0.163 HD
ENDROOT
BRANCH   3   5
HETATM    5  C   UNK N   1      24.378  18.286   4.482  0.00  0.00     0.066 A 
HETATM    6  C   UNK N   1      23.693  17.048   4.720  0.00  0.00     0.086 A 
HETATM    7  C   UNK N   1      22.355  16.929   4.321  0.00  0.00     0.068 A 
HETATM    8  C   UNK N   1      21.674  17.972   3.681  0.00  0.00     0.048 A 
HETATM    9  C   UNK N   1      22.357  19.172   3.423  0.00  0.00     0.038 A 
HETATM   10 Br   UNK N   1      21.528  20.667   2.559  0.00  0.00    -0.049 Br
HETATM   11  C   UNK N   1      23.682  19.311   3.824  0.00  0.00     0.041 A 
BRANCH   6  12
HETATM   12  O   UNK N   1      24.248  15.952   5.297  0.00  0.00    -0.355 OA
HETATM   13  C   UNK N   1      23.809  15.362   6.459  0.00  0.00     0.210 C 
ENDBRANCH   6  12
BRANCH   8  14
HETATM   14  N   UNK N   1      20.310  17.809   3.298  0.00  0.00    -0.393 N 
HETATM   15  C   UNK N   1      19.950  17.233   2.027  0.00  0.00     0.146 C 
HETATM   16  H   UNK N   1      19.550  18.098   3.928  0.00  0.00     0.159 HD
ENDBRANCH   8  14
ENDBRANCH   3   5
BRANCH   2  17
HETATM   17  C   UNK N   1      27.849  17.924   6.095  0.00  0.00     0.141 C 
HETATM   18  C   UNK N   1      28.792  17.160   5.159  0.00  0.00     0.299 C 
HETATM   19  N   UNK N   1      30.200  17.448   5.415  0.00  0.00     0.091 N 
HETATM   20  C   UNK N   1      30.602  16.666   6.581  0.00  0.00     0.302 C 
HETATM   21  C   UNK N   1      30.496  17.468   7.884  0.00  0.00     0.302 C 
HETATM   22  N   UNK N   1      29.254  18.231   8.044  0.00  0.00     0.087 N 
HETATM   23  C   UNK N   1      28.089  17.511   7.544  0.00  0.00     0.298 C 
HETATM   24  C   UNK N   1      29.056  18.412   9.470  0.00  0.00     0.310 C 
BRANCH  19  25
HETATM   25  C   UNK N   1      30.910  16.890   4.271  0.00  0.00     0.268 C 
HETATM   26  C   UNK N   1      29.938  16.452   3.189  0.00  0.00     0.037 C 
ENDBRANCH  19  25
ENDBRANCH   2  17
TORSDOF 5
ENDMDL
MODEL 8
REMARK VINA RESULT:      -5.5     13.206     15.343
REMARK  5 active torsions:
REMARK  status: ('A' for Active; 'I' for Inactive)
REMARK    1  A    between atoms: O_3  and  C_18 
REMARK    2  A    between atoms: N_4  and  C_13 
REMARK    3  A    between atoms: C_8  and  N_6 
REMARK       I    between atoms: N_6  and  C_16 
REMARK    4  A    between atoms: N_7  and  C_22 
REMARK    5  A    between atoms: C_16  and  C_17 
ROOT
HETATM    1  O   UNK N   1      36.267  14.259  12.725  0.00  0.00    -0.268 OA
HETATM    2  N   UNK N   1      34.622  13.281  11.566  0.00  0.00    -0.349 N 
HETATM    3  C   UNK N   1      35.383  13.420  12.695  0.00  0.00     0.254 C 
HETATM    4  H   UNK N   1      33.873  12.572  11.540  0.00  0.00     0.163 HD
ENDROOT
BRANCH   3   5
HETATM    5  C   UNK N   1      35.081  12.596  13.916  0.00  0.00     0.066 A 
HETATM    6  C   UNK N   1      34.750  11.200  13.906  0.00  0.00     0.086 A 
HETATM    7  C   UNK N   1      34.619  10.529  15.129  0.00  0.00     0.068 A 
HETATM    8  C   UNK N   1      34.780  11.182  16.358  0.00  0.00     0.048 A 
HETATM    9  C   UNK N   1      35.075  12.556  16.363  0.00  0.00     0.038 A 
HETATM   10 Br   UNK N   1      35.323  13.552  17.980  0.00  0.00    -0.049 Br
HETATM   11  C   UNK N   1      35.222  13.234  15.157  0.00  0.00     0.041 A 
BRANCH   6  12
HETATM   12  O   UNK N   1      34.533  10.462  12.788  0.00  0.00    -0.355 OA
HETATM   13  C   UNK N   1      35.180   9.289  12.478  0.00  0.00     0.210 C 
ENDBRANCH   6  12
BRANCH   8  14
HETATM   14  N   UNK N   1      34.643  10.457  17.578  0.00  0.00    -0.393 N 
HETATM   15  C   UNK N   1      34.875   9.037  17.638  0.00  0.00     0.146 C 
HETATM   16  H   UNK N   1      34.377  10.939  18.447  0.00  0.00     0.159 HD
ENDBRANCH   8  14
ENDBRANCH   3   5
BRANCH   2  17
HETATM   17  C   UNK N   1      34.808  14.129  10.400  0.00  0.00     0.141 C 
HETATM   18  C   UNK N   1      33.449  14.631   9.900  0.00  0.00     0.299 C 
HETATM   19  N   UNK N   1      33.567  15.595   8.812  0.00  0.00     0.091 N 
HETATM   20  C   UNK N   1      33.824  14.844   7.586  0.00  0.00     0.302 C 
HETATM   21  C   UNK N   1      35.322  14.738   7.273  0.00  0.00     0.302 C 
HETATM   22  N   UNK N   1      36.171  14.378   8.414  0.00  0.00     0.087 N 
HETATM   23  C   UNK N   1      35.545  13.392   9.286  0.00  0.00     0.298 C 
HETATM   24  C   UNK N   1      37.364  13.758   7.868  0.00  0.00     0.310 C 
BRANCH  19  25
HETATM   25  C   UNK N   1      32.235  16.174   8.677  0.00  0.00     0.268 C 
HETATM   26  C   UNK N   1      32.315  17.670   8.431  0.00  0.00     0.037 C 
ENDBRANCH  19  25
ENDBRANCH   2  17
TORSDOF 5
ENDMDL
MODEL 9
REMARK VINA RESULT:      -5.5     15.943     17.805
REMARK  5 active torsions:
REMARK  status: ('A' for Active; 'I' for Inactive)
REMARK    1  A    between atoms: O_3  and  C_18 
REMARK    2  A    between atoms: N_4  and  C_13 
REMARK    3  A    between atoms: C_8  and  N_6 
REMARK       I    between atoms: N_6  and  C_16 
REMARK    4  A    between atoms: N_7  and  C_22 
REMARK    5  A    between atoms: C_16  and  C_17 
ROOT
HETATM    1  O   UNK N   1      34.206  11.314  14.551  0.00  0.00    -0.268 OA
HETATM    2  N   UNK N   1      35.967  12.692  14.628  0.00  0.00    -0.349 N 
HETATM    3  C   UNK N   1      35.048  11.875  15.230  0.00  0.00     0.254 C 
HETATM    4  H   UNK N   1      36.680  13.166  15.201  0.00  0.00     0.163 HD
ENDROOT
BRANCH   3   5
HETATM    5  C   UNK N   1      35.125  11.613  16.708  0.00  0.00     0.066 A 
HETATM    6  C   UNK N   1      35.297  12.620  17.715  0.00  0.00     0.086 A 
HETATM    7  C   UNK N   1      35.222  12.246  19.064  0.00  0.00     0.068 A 
HETATM    8  C   UNK N   1      35.006  10.919  19.457  0.00  0.00     0.048 A 
HETATM    9  C   UNK N   1      34.867   9.932  18.468  0.00  0.00     0.038 A 
HETATM   10 Br   UNK N   1      34.563   8.088  18.886  0.00  0.00    -0.049 Br
HETATM   11  C   UNK N   1      34.926  10.289  17.124  0.00  0.00     0.041 A 
BRANCH   6  12
HETATM   12  O   UNK N   1      35.547  13.931  17.468  0.00  0.00    -0.355 OA
HETATM   13  C   UNK N   1      35.332  14.959  18.356  0.00  0.00     0.210 C 
ENDBRANCH   6  12
BRANCH   8  14
HETATM   14  N   UNK N   1      34.931  10.585  20.842  0.00  0.00    -0.393 N 
HETATM   15  C   UNK N   1      33.667  10.505  21.528  0.00  0.00     0.146 C 
HETATM   16  H   UNK N   1      35.785  10.390  21.381  0.00  0.00     0.159 HD
ENDBRANCH   8  14
ENDBRANCH   3   5
BRANCH   2  17
HETATM   17  C   UNK N   1      35.997  12.890  13.188  0.00  0.00     0.141 C 
HETATM   18  C   UNK N   1      37.067  11.989  12.562  0.00  0.00     0.299 C 
HETATM   19  N   UNK N   1      37.064  12.036  11.103  0.00  0.00     0.091 N 
HETATM   20  C   UNK N   1      37.753  13.259  10.703  0.00  0.00     0.302 C 
HETATM   21  C   UNK N   1      36.781  14.421  10.458  0.00  0.00     0.302 C 
HETATM   22  N   UNK N   1      35.750  14.595  11.486  0.00  0.00     0.087 N 
HETATM   23  C   UNK N   1      36.257  14.350  12.831  0.00  0.00     0.298 C 
HETATM   24  C   UNK N   1      35.343  15.987  11.438  0.00  0.00     0.310 C 
BRANCH  19  25
HETATM   25  C   UNK N   1      37.911  10.923  10.690  0.00  0.00     0.268 C 
HETATM   26  C   UNK N   1      38.729  11.289   9.465  0.00  0.00     0.037 C 
ENDBRANCH  19  25
ENDBRANCH   2  17
TORSDOF 5
ENDMDL
