MODEL 1
REMARK VINA RESULT:      -4.6      0.000      0.000
REMARK  7 active torsions:
REMARK  status: ('A' for Active; 'I' for Inactive)
REMARK    1  A    between atoms: C_12  and  C_2 
REMARK    2  A    between atoms: C_12  and  C_8 
REMARK    3  A    between atoms: O_17  and  C_9 
REMARK    4  A    between atoms: O_18  and  C_10 
REMARK    5  A    between atoms: C_28  and  C_27 
REMARK    6  A    between atoms: C_29  and  C_27 
REMARK    7  A    between atoms: N_30  and  C_28 
ROOT
HETATM    1  C   UNK N   1      27.704  29.527  -4.441  0.00  0.00     0.000 C 
HETATM    2  C   UNK N   1      27.608  29.120  -5.909  0.00  0.00     0.000 C 
HETATM    3  C   UNK N   1      26.322  29.508  -3.792  0.00  0.00     0.000 C 
HETATM    4  C   UNK N   1      26.975  27.737  -6.036  0.00  0.00     0.005 C 
HETATM    5  C   UNK N   1      25.703  28.119  -3.918  0.00  0.00     0.005 C 
HETATM    6  C   UNK N   1      25.590  27.735  -5.395  0.00  0.00    -0.013 C 
ENDROOT
BRANCH   6   7
HETATM    7  C   UNK N   1      24.948  26.362  -5.583  0.00  0.00     0.029 C 
BRANCH   7   8
HETATM    8  C   UNK N   1      25.959  25.228  -5.744  0.00  0.00     0.072 C 
HETATM    9  C   UNK N   1      26.089  24.454  -4.435  0.00  0.00     0.031 C 
BRANCH   8  10
HETATM   10  N   UNK N   1      25.496  24.342  -6.810  0.00  0.00    -0.422 N 
HETATM   11  C   UNK N   1      25.831  22.959  -6.491  0.00  0.00     0.140 C 
HETATM   12  H   UNK N   1      25.010  24.647  -7.655  0.00  0.00     0.153 HD
ENDBRANCH   8  10
ENDBRANCH   7   8
ENDBRANCH   6   7
TORSDOF 7
ENDMDL
MODEL 2
REMARK VINA RESULT:      -4.5     26.410     28.148
REMARK  7 active torsions:
REMARK  status: ('A' for Active; 'I' for Inactive)
REMARK    1  A    between atoms: C_12  and  C_2 
REMARK    2  A    between atoms: C_12  and  C_8 
REMARK    3  A    between atoms: O_17  and  C_9 
REMARK    4  A    between atoms: O_18  and  C_10 
REMARK    5  A    between atoms: C_28  and  C_27 
REMARK    6  A    between atoms: C_29  and  C_27 
REMARK    7  A    between atoms: N_30  and  C_28 
ROOT
HETATM    1  C   UNK N   1      35.109  11.326  19.445  0.00  0.00     0.000 C 
HETATM    2  C   UNK N   1      35.878  10.596  18.347  0.00  0.00     0.000 C 
HETATM    3  C   UNK N   1      35.348  12.831  19.352  0.00  0.00     0.000 C 
HETATM    4  C   UNK N   1      35.469  11.121  16.973  0.00  0.00     0.005 C 
HETATM    5  C   UNK N   1      34.927  13.345  17.977  0.00  0.00     0.005 C 
HETATM    6  C   UNK N   1      35.725  12.622  16.889  0.00  0.00    -0.013 C 
ENDROOT
BRANCH   6   7
HETATM    7  C   UNK N   1      35.364  13.119  15.490  0.00  0.00     0.029 C 
BRANCH   7   8
HETATM    8  C   UNK N   1      36.528  13.781  14.755  0.00  0.00     0.072 C 
HETATM    9  C   UNK N   1      37.155  14.861  15.633  0.00  0.00     0.031 C 
BRANCH   8  10
HETATM   10  N   UNK N   1      37.518  12.755  14.433  0.00  0.00    -0.422 N 
HETATM   11  C   UNK N   1      37.086  11.992  13.267  0.00  0.00     0.140 C 
HETATM   12  H   UNK N   1      38.385  12.595  14.948  0.00  0.00     0.153 HD
ENDBRANCH   8  10
ENDBRANCH   7   8
ENDBRANCH   6   7
TORSDOF 7
ENDMDL
MODEL 3
REMARK VINA RESULT:      -4.5     16.664     18.488
REMARK  7 active torsions:
REMARK  status: ('A' for Active; 'I' for Inactive)
REMARK    1  A    between atoms: C_12  and  C_2 
REMARK    2  A    between atoms: C_12  and  C_8 
REMARK    3  A    between atoms: O_17  and  C_9 
REMARK    4  A    between atoms: O_18  and  C_10 
REMARK    5  A    between atoms: C_28  and  C_27 
REMARK    6  A    between atoms: C_29  and  C_27 
REMARK    7  A    between atoms: N_30  and  C_28 
ROOT
HETATM    1  C   UNK N   1      31.306  16.674   5.609  0.00  0.00     0.000 C 
HETATM    2  C   UNK N   1      30.945  17.217   6.989  0.00  0.00     0.000 C 
HETATM    3  C   UNK N   1      32.494  17.438   5.030  0.00  0.00     0.000 C 
HETATM    4  C   UNK N   1      32.148  17.129   7.925  0.00  0.00     0.005 C 
HETATM    5  C   UNK N   1      33.692  17.336   5.970  0.00  0.00     0.005 C 
HETATM    6  C   UNK N   1      33.323  17.907   7.341  0.00  0.00    -0.013 C 
ENDROOT
BRANCH   6   7
HETATM    7  C   UNK N   1      34.497  17.857   8.317  0.00  0.00     0.029 C 
BRANCH   7   8
HETATM    8  C   UNK N   1      34.409  16.712   9.325  0.00  0.00     0.072 C 
HETATM    9  C   UNK N   1      35.160  15.492   8.798  0.00  0.00     0.031 C 
BRANCH   8  10
HETATM   10  N   UNK N   1      34.996  17.160  10.587  0.00  0.00    -0.422 N 
HETATM   11  C   UNK N   1      35.567  16.024  11.302  0.00  0.00     0.140 C 
HETATM   12  H   UNK N   1      35.006  18.125  10.918  0.00  0.00     0.153 HD
ENDBRANCH   8  10
ENDBRANCH   7   8
ENDBRANCH   6   7
TORSDOF 7
ENDMDL
MODEL 4
REMARK VINA RESULT:      -4.4      2.826      4.049
REMARK  7 active torsions:
REMARK  status: ('A' for Active; 'I' for Inactive)
REMARK    1  A    between atoms: C_12  and  C_2 
REMARK    2  A    between atoms: C_12  and  C_8 
REMARK    3  A    between atoms: O_17  and  C_9 
REMARK    4  A    between atoms: O_18  and  C_10 
REMARK    5  A    between atoms: C_28  and  C_27 
REMARK    6  A    between atoms: C_29  and  C_27 
REMARK    7  A    between atoms: N_30  and  C_28 
ROOT
HETATM    1  C   UNK N   1      24.805  27.282  -5.514  0.00  0.00     0.000 C 
HETATM    2  C   UNK N   1      25.808  27.791  -4.482  0.00  0.00     0.000 C 
HETATM    3  C   UNK N   1      25.368  26.069  -6.251  0.00  0.00     0.000 C 
HETATM    4  C   UNK N   1      26.164  26.681  -3.496  0.00  0.00     0.005 C 
HETATM    5  C   UNK N   1      25.711  24.964  -5.256  0.00  0.00     0.005 C 
HETATM    6  C   UNK N   1      26.736  25.481  -4.244  0.00  0.00    -0.013 C 
ENDROOT
BRANCH   6   7
HETATM    7  C   UNK N   1      27.140  24.404  -3.238  0.00  0.00     0.029 C 
BRANCH   7   8
HETATM    8  C   UNK N   1      28.527  23.816  -3.491  0.00  0.00     0.072 C 
HETATM    9  C   UNK N   1      29.511  24.929  -3.840  0.00  0.00     0.031 C 
BRANCH   8  10
HETATM   10  N   UNK N   1      28.963  23.117  -2.283  0.00  0.00    -0.422 N 
HETATM   11  C   UNK N   1      30.398  22.866  -2.342  0.00  0.00     0.140 C 
HETATM   12  H   UNK N   1      28.352  22.845  -1.512  0.00  0.00     0.153 HD
ENDBRANCH   8  10
ENDBRANCH   7   8
ENDBRANCH   6   7
TORSDOF 7
ENDMDL
MODEL 5
REMARK VINA RESULT:      -4.3     18.291     20.521
REMARK  7 active torsions:
REMARK  status: ('A' for Active; 'I' for Inactive)
REMARK    1  A    between atoms: C_12  and  C_2 
REMARK    2  A    between atoms: C_12  and  C_8 
REMARK    3  A    between atoms: O_17  and  C_9 
REMARK    4  A    between atoms: O_18  and  C_10 
REMARK    5  A    between atoms: C_28  and  C_27 
REMARK    6  A    between atoms: C_29  and  C_27 
REMARK    7  A    between atoms: N_30  and  C_28 
ROOT
HETATM    1  C   UNK N   1      23.734  11.743  10.931  0.00  0.00     0.000 C 
HETATM    2  C   UNK N   1      24.218  12.911  10.075  0.00  0.00     0.000 C 
HETATM    3  C   UNK N   1      22.455  12.122  11.674  0.00  0.00     0.000 C 
HETATM    4  C   UNK N   1      23.130  13.334   9.090  0.00  0.00     0.005 C 
HETATM    5  C   UNK N   1      21.373  12.535  10.680  0.00  0.00     0.005 C 
HETATM    6  C   UNK N   1      21.863  13.722   9.846  0.00  0.00    -0.013 C 
ENDROOT
BRANCH   6   7
HETATM    7  C   UNK N   1      20.807  14.197   8.851  0.00  0.00     0.029 C 
BRANCH   7   8
HETATM    8  C   UNK N   1      20.636  15.715   8.815  0.00  0.00     0.072 C 
HETATM    9  C   UNK N   1      21.152  16.267   7.489  0.00  0.00     0.031 C 
BRANCH   8  10
HETATM   10  N   UNK N   1      19.216  16.026   8.973  0.00  0.00    -0.422 N 
HETATM   11  C   UNK N   1      19.012  17.469   8.918  0.00  0.00     0.140 C 
HETATM   12  H   UNK N   1      18.476  15.335   9.102  0.00  0.00     0.153 HD
ENDBRANCH   8  10
ENDBRANCH   7   8
ENDBRANCH   6   7
TORSDOF 7
ENDMDL
MODEL 6
REMARK VINA RESULT:      -4.3     26.053     27.807
REMARK  7 active torsions:
REMARK  status: ('A' for Active; 'I' for Inactive)
REMARK    1  A    between atoms: C_12  and  C_2 
REMARK    2  A    between atoms: C_12  and  C_8 
REMARK    3  A    between atoms: O_17  and  C_9 
REMARK    4  A    between atoms: O_18  and  C_10 
REMARK    5  A    between atoms: C_28  and  C_27 
REMARK    6  A    between atoms: C_29  and  C_27 
REMARK    7  A    between atoms: N_30  and  C_28 
ROOT
HETATM    1  C   UNK N   1      35.657  11.893  19.602  0.00  0.00     0.000 C 
HETATM    2  C   UNK N   1      34.993  13.246  19.365  0.00  0.00     0.000 C 
HETATM    3  C   UNK N   1      35.245  10.900  18.518  0.00  0.00     0.000 C 
HETATM    4  C   UNK N   1      35.357  13.781  17.982  0.00  0.00     0.005 C 
HETATM    5  C   UNK N   1      35.622  11.441  17.141  0.00  0.00     0.005 C 
HETATM    6  C   UNK N   1      34.929  12.786  16.908  0.00  0.00    -0.013 C 
ENDROOT
BRANCH   6   7
HETATM    7  C   UNK N   1      35.249  13.362  15.530  0.00  0.00     0.029 C 
BRANCH   7   8
HETATM    8  C   UNK N   1      35.843  12.342  14.560  0.00  0.00     0.072 C 
HETATM    9  C   UNK N   1      34.802  11.944  13.517  0.00  0.00     0.031 C 
BRANCH   8  10
HETATM   10  N   UNK N   1      37.006  12.943  13.909  0.00  0.00    -0.422 N 
HETATM   11  C   UNK N   1      36.613  13.541  12.638  0.00  0.00     0.140 C 
HETATM   12  H   UNK N   1      37.954  12.944  14.289  0.00  0.00     0.153 HD
ENDBRANCH   8  10
ENDBRANCH   7   8
ENDBRANCH   6   7
TORSDOF 7
ENDMDL
MODEL 7
REMARK VINA RESULT:      -4.2     15.267     17.230
REMARK  7 active torsions:
REMARK  status: ('A' for Active; 'I' for Inactive)
REMARK    1  A    between atoms: C_12  and  C_2 
REMARK    2  A    between atoms: C_12  and  C_8 
REMARK    3  A    between atoms: O_17  and  C_9 
REMARK    4  A    between atoms: O_18  and  C_10 
REMARK    5  A    between atoms: C_28  and  C_27 
REMARK    6  A    between atoms: C_29  and  C_27 
REMARK    7  A    between atoms: N_30  and  C_28 
ROOT
HETATM    1  C   UNK N   1      33.453  15.784   2.994  0.00  0.00     0.000 C 
HETATM    2  C   UNK N   1      33.702  14.942   4.242  0.00  0.00     0.000 C 
HETATM    3  C   UNK N   1      32.443  16.890   3.291  0.00  0.00     0.000 C 
HETATM    4  C   UNK N   1      34.194  15.824   5.388  0.00  0.00     0.005 C 
HETATM    5  C   UNK N   1      32.949  17.770   4.431  0.00  0.00     0.005 C 
HETATM    6  C   UNK N   1      33.170  16.916   5.682  0.00  0.00    -0.013 C 
ENDROOT
BRANCH   6   7
HETATM    7  C   UNK N   1      33.651  17.752   6.867  0.00  0.00     0.029 C 
BRANCH   7   8
HETATM    8  C   UNK N   1      32.689  17.745   8.054  0.00  0.00     0.072 C 
HETATM    9  C   UNK N   1      31.311  17.265   7.607  0.00  0.00     0.031 C 
BRANCH   8  10
HETATM   10  N   UNK N   1      33.225  16.853   9.081  0.00  0.00    -0.422 N 
HETATM   11  C   UNK N   1      34.650  17.105   9.266  0.00  0.00     0.140 C 
HETATM   12  H   UNK N   1      32.682  16.157   9.594  0.00  0.00     0.153 HD
ENDBRANCH   8  10
ENDBRANCH   7   8
ENDBRANCH   6   7
TORSDOF 7
ENDMDL
MODEL 8
REMARK VINA RESULT:      -4.1     26.097     27.827
REMARK  7 active torsions:
REMARK  status: ('A' for Active; 'I' for Inactive)
REMARK    1  A    between atoms: C_12  and  C_2 
REMARK    2  A    between atoms: C_12  and  C_8 
REMARK    3  A    between atoms: O_17  and  C_9 
REMARK    4  A    between atoms: O_18  and  C_10 
REMARK    5  A    between atoms: C_28  and  C_27 
REMARK    6  A    between atoms: C_29  and  C_27 
REMARK    7  A    between atoms: N_30  and  C_28 
ROOT
HETATM    1  C   UNK N   1      34.940  12.981  19.388  0.00  0.00     0.000 C 
HETATM    2  C   UNK N   1      35.664  11.639  19.311  0.00  0.00     0.000 C 
HETATM    3  C   UNK N   1      35.291  13.845  18.179  0.00  0.00     0.000 C 
HETATM    4  C   UNK N   1      35.307  10.917  18.014  0.00  0.00     0.005 C 
HETATM    5  C   UNK N   1      34.922  13.116  16.889  0.00  0.00     0.005 C 
HETATM    6  C   UNK N   1      35.674  11.786  16.815  0.00  0.00    -0.013 C 
ENDROOT
BRANCH   6   7
HETATM    7  C   UNK N   1      35.364  11.025  15.527  0.00  0.00     0.029 C 
BRANCH   7   8
HETATM    8  C   UNK N   1      34.428  11.775  14.580  0.00  0.00     0.072 C 
HETATM    9  C   UNK N   1      35.230  12.414  13.450  0.00  0.00     0.031 C 
BRANCH   8  10
HETATM   10  N   UNK N   1      33.459  10.825  14.037  0.00  0.00    -0.422 N 
HETATM   11  C   UNK N   1      33.981  10.223  12.815  0.00  0.00     0.140 C 
HETATM   12  H   UNK N   1      32.550  10.614  14.452  0.00  0.00     0.153 HD
ENDBRANCH   8  10
ENDBRANCH   7   8
ENDBRANCH   6   7
TORSDOF 7
ENDMDL
MODEL 9
REMARK VINA RESULT:      -3.9     16.300     18.119
REMARK  7 active torsions:
REMARK  status: ('A' for Active; 'I' for Inactive)
REMARK    1  A    between atoms: C_12  and  C_2 
REMARK    2  A    between atoms: C_12  and  C_8 
REMARK    3  A    between atoms: O_17  and  C_9 
REMARK    4  A    between atoms: O_18  and  C_10 
REMARK    5  A    between atoms: C_28  and  C_27 
REMARK    6  A    between atoms: C_29  and  C_27 
REMARK    7  A    between atoms: N_30  and  C_28 
ROOT
HETATM    1  C   UNK N   1      31.913  17.578   4.485  0.00  0.00     0.000 C 
HETATM    2  C   UNK N   1      33.335  17.354   4.994  0.00  0.00     0.000 C 
HETATM    3  C   UNK N   1      30.961  16.552   5.095  0.00  0.00     0.000 C 
HETATM    4  C   UNK N   1      33.370  17.429   6.518  0.00  0.00     0.005 C 
HETATM    5  C   UNK N   1      30.999  16.643   6.618  0.00  0.00     0.005 C 
HETATM    6  C   UNK N   1      32.425  16.391   7.115  0.00  0.00    -0.013 C 
ENDROOT
BRANCH   6   7
HETATM    7  C   UNK N   1      32.517  16.441   8.639  0.00  0.00     0.029 C 
BRANCH   7   8
HETATM    8  C   UNK N   1      32.319  15.084   9.311  0.00  0.00     0.072 C 
HETATM    9  C   UNK N   1      32.808  13.968   8.391  0.00  0.00     0.031 C 
BRANCH   8  10
HETATM   10  N   UNK N   1      33.072  15.072  10.564  0.00  0.00    -0.422 N 
HETATM   11  C   UNK N   1      34.447  15.498  10.324  0.00  0.00     0.140 C 
HETATM   12  H   UNK N   1      32.692  14.805  11.473  0.00  0.00     0.153 HD
ENDBRANCH   8  10
ENDBRANCH   7   8
ENDBRANCH   6   7
TORSDOF 7
ENDMDL
