MODEL 1
REMARK VINA RESULT:      -7.1      0.000      0.000
REMARK  5 active torsions:
REMARK  status: ('A' for Active; 'I' for Inactive)
REMARK    1  A    between atoms: C_1  and  C_2 
REMARK    2  A    between atoms: C_2  and  C_3 
REMARK    3  A    between atoms: C_8  and  O_9 
REMARK    4  A    between atoms: O_9  and  C_10 
REMARK    5  A    between atoms: C_10  and  C_11 
ROOT
HETATM    1  C   UNK N   1      29.703  22.244  -5.053  0.00  0.00    -0.056 A 
HETATM    2  C   UNK N   1      29.468  23.270  -4.134  0.00  0.00     0.010 A 
HETATM    3  C   UNK N   1      29.024  22.230  -6.276  0.00  0.00     0.010 A 
HETATM    4  C   UNK N   1      28.532  24.257  -4.423  0.00  0.00     0.037 A 
HETATM    5  C   UNK N   1      28.082  23.224  -6.568  0.00  0.00     0.037 A 
HETATM    6  C   UNK N   1      27.813  24.230  -5.632  0.00  0.00     0.068 A 
ENDROOT
BRANCH   1   7
HETATM    7  C   UNK N   1      30.572  21.095  -4.668  0.00  0.00     0.063 C 
BRANCH   7   8
HETATM    8  C   UNK N   1      32.014  21.585  -4.479  0.00  0.00     0.153 A 
HETATM    9  C   UNK N   1      32.502  21.352  -3.072  0.00  0.00     0.239 A 
HETATM   10  N   UNK N   1      33.555  20.542  -2.934  0.00  0.00    -0.287 N 
HETATM   11  O   UNK N   1      31.982  21.877  -2.098  0.00  0.00    -0.272 OA
HETATM   12  C   UNK N   1      34.010  20.074  -4.100  0.00  0.00     0.287 A 
HETATM   13  H   UNK N   1      33.954  20.312  -2.064  0.00  0.00     0.172 HD
HETATM   14  S   UNK N   1      33.150  20.632  -5.566  0.00  0.00    -0.054 SA
HETATM   15  O   UNK N   1      34.968  19.321  -4.150  0.00  0.00    -0.260 OA
ENDBRANCH   7   8
ENDBRANCH   1   7
BRANCH   6  16
HETATM   16  O   UNK N   1      26.842  25.141  -5.883  0.00  0.00    -0.350 OA
BRANCH  16  17
HETATM   17  C   UNK N   1      26.138  25.730  -4.851  0.00  0.00     0.184 C 
BRANCH  17  18
HETATM   18  C   UNK N   1      25.829  27.199  -5.105  0.00  0.00    -0.022 C 
HETATM   19  C   UNK N   1      25.876  28.007  -3.792  0.00  0.00     0.011 C 
HETATM   20  C   UNK N   1      26.244  29.466  -4.048  0.00  0.00     0.001 C 
HETATM   21  C   UNK N   1      27.643  29.575  -4.680  0.00  0.00     0.000 C 
HETATM   22  C   UNK N   1      28.026  28.370  -5.552  0.00  0.00     0.001 C 
HETATM   23  C   UNK N   1      26.784  27.747  -6.176  0.00  0.00     0.011 C 
HETATM   24  C   UNK N   1      24.425  27.264  -5.669  0.00  0.00     0.017 C 
ENDBRANCH  17  18
ENDBRANCH  16  17
ENDBRANCH   6  16
TORSDOF 5
ENDMDL
MODEL 2
REMARK VINA RESULT:      -7.0     18.516     22.688
REMARK  5 active torsions:
REMARK  status: ('A' for Active; 'I' for Inactive)
REMARK    1  A    between atoms: C_1  and  C_2 
REMARK    2  A    between atoms: C_2  and  C_3 
REMARK    3  A    between atoms: C_8  and  O_9 
REMARK    4  A    between atoms: O_9  and  C_10 
REMARK    5  A    between atoms: C_10  and  C_11 
ROOT
HETATM    1  C   UNK N   1      35.621  13.580  10.854  0.00  0.00    -0.056 A 
HETATM    2  C   UNK N   1      35.932  12.230  10.675  0.00  0.00     0.010 A 
HETATM    3  C   UNK N   1      35.565  14.122  12.143  0.00  0.00     0.010 A 
HETATM    4  C   UNK N   1      36.151  11.417  11.781  0.00  0.00     0.037 A 
HETATM    5  C   UNK N   1      35.788  13.304  13.258  0.00  0.00     0.037 A 
HETATM    6  C   UNK N   1      36.058  11.941  13.084  0.00  0.00     0.068 A 
ENDROOT
BRANCH   1   7
HETATM    7  C   UNK N   1      35.213  14.404   9.680  0.00  0.00     0.063 C 
BRANCH   7   8
HETATM    8  C   UNK N   1      34.175  15.445  10.121  0.00  0.00     0.153 A 
HETATM    9  C   UNK N   1      34.661  16.851   9.888  0.00  0.00     0.239 A 
HETATM   10  N   UNK N   1      33.944  17.598   9.043  0.00  0.00    -0.287 N 
HETATM   11  O   UNK N   1      35.651  17.309  10.443  0.00  0.00    -0.272 OA
HETATM   12  C   UNK N   1      32.885  16.951   8.546  0.00  0.00     0.287 A 
HETATM   13  H   UNK N   1      34.171  18.527   8.810  0.00  0.00     0.172 HD
HETATM   14  S   UNK N   1      32.644  15.273   9.117  0.00  0.00    -0.054 SA
HETATM   15  O   UNK N   1      32.126  17.491   7.759  0.00  0.00    -0.260 OA
ENDBRANCH   7   8
ENDBRANCH   1   7
BRANCH   6  16
HETATM   16  O   UNK N   1      36.189  11.138  14.167  0.00  0.00    -0.350 OA
BRANCH  16  17
HETATM   17  C   UNK N   1      36.538  11.659  15.398  0.00  0.00     0.184 C 
BRANCH  17  18
HETATM   18  C   UNK N   1      35.480  11.422  16.466  0.00  0.00    -0.022 C 
HETATM   19  C   UNK N   1      36.115  10.874  17.760  0.00  0.00     0.011 C 
HETATM   20  C   UNK N   1      35.292  11.252  18.988  0.00  0.00     0.001 C 
HETATM   21  C   UNK N   1      35.219  12.781  19.150  0.00  0.00     0.000 C 
HETATM   22  C   UNK N   1      35.281  13.548  17.821  0.00  0.00     0.001 C 
HETATM   23  C   UNK N   1      34.683  12.715  16.694  0.00  0.00     0.011 C 
HETATM   24  C   UNK N   1      34.521  10.387  15.915  0.00  0.00     0.017 C 
ENDBRANCH  17  18
ENDBRANCH  16  17
ENDBRANCH   6  16
TORSDOF 5
ENDMDL
MODEL 3
REMARK VINA RESULT:      -6.9     17.008     21.252
REMARK  5 active torsions:
REMARK  status: ('A' for Active; 'I' for Inactive)
REMARK    1  A    between atoms: C_1  and  C_2 
REMARK    2  A    between atoms: C_2  and  C_3 
REMARK    3  A    between atoms: C_8  and  O_9 
REMARK    4  A    between atoms: O_9  and  C_10 
REMARK    5  A    between atoms: C_10  and  C_11 
ROOT
HETATM    1  C   UNK N   1      35.263  14.904   9.721  0.00  0.00    -0.056 A 
HETATM    2  C   UNK N   1      34.927  13.596  10.080  0.00  0.00     0.010 A 
HETATM    3  C   UNK N   1      35.674  15.815  10.701  0.00  0.00     0.010 A 
HETATM    4  C   UNK N   1      34.968  13.212  11.416  0.00  0.00     0.037 A 
HETATM    5  C   UNK N   1      35.716  15.428  12.045  0.00  0.00     0.037 A 
HETATM    6  C   UNK N   1      35.339  14.131  12.413  0.00  0.00     0.068 A 
ENDROOT
BRANCH   1   7
HETATM    7  C   UNK N   1      35.049  15.361   8.318  0.00  0.00     0.063 C 
BRANCH   7   8
HETATM    8  C   UNK N   1      33.808  16.262   8.258  0.00  0.00     0.153 A 
HETATM    9  C   UNK N   1      34.062  17.508   7.451  0.00  0.00     0.239 A 
HETATM   10  N   UNK N   1      33.311  17.674   6.358  0.00  0.00    -0.287 N 
HETATM   11  O   UNK N   1      34.899  18.341   7.768  0.00  0.00    -0.272 OA
HETATM   12  C   UNK N   1      32.434  16.682   6.172  0.00  0.00     0.287 A 
HETATM   13  H   UNK N   1      33.394  18.445   5.752  0.00  0.00     0.172 HD
HETATM   14  S   UNK N   1      32.435  15.385   7.405  0.00  0.00    -0.054 SA
HETATM   15  O   UNK N   1      31.672  16.681   5.221  0.00  0.00    -0.260 OA
ENDBRANCH   7   8
ENDBRANCH   1   7
BRANCH   6  16
HETATM   16  O   UNK N   1      35.301  13.788  13.724  0.00  0.00    -0.350 OA
BRANCH  16  17
HETATM   17  C   UNK N   1      35.850  12.598  14.161  0.00  0.00     0.184 C 
BRANCH  17  18
HETATM   18  C   UNK N   1      35.011  11.912  15.229  0.00  0.00    -0.022 C 
HETATM   19  C   UNK N   1      35.864  10.926  16.053  0.00  0.00     0.011 C 
HETATM   20  C   UNK N   1      35.308  10.752  17.464  0.00  0.00     0.001 C 
HETATM   21  C   UNK N   1      35.323  12.088  18.227  0.00  0.00     0.000 C 
HETATM   22  C   UNK N   1      35.154  13.320  17.325  0.00  0.00     0.001 C 
HETATM   23  C   UNK N   1      34.320  12.974  16.099  0.00  0.00     0.011 C 
HETATM   24  C   UNK N   1      33.926  11.138  14.509  0.00  0.00     0.017 C 
ENDBRANCH  17  18
ENDBRANCH  16  17
ENDBRANCH   6  16
TORSDOF 5
ENDMDL
MODEL 4
REMARK VINA RESULT:      -6.9     16.634     20.939
REMARK  5 active torsions:
REMARK  status: ('A' for Active; 'I' for Inactive)
REMARK    1  A    between atoms: C_1  and  C_2 
REMARK    2  A    between atoms: C_2  and  C_3 
REMARK    3  A    between atoms: C_8  and  O_9 
REMARK    4  A    between atoms: O_9  and  C_10 
REMARK    5  A    between atoms: C_10  and  C_11 
ROOT
HETATM    1  C   UNK N   1      34.544  15.428   9.431  0.00  0.00    -0.056 A 
HETATM    2  C   UNK N   1      35.200  16.387  10.206  0.00  0.00     0.010 A 
HETATM    3  C   UNK N   1      34.286  14.157   9.958  0.00  0.00     0.010 A 
HETATM    4  C   UNK N   1      35.629  16.066  11.489  0.00  0.00     0.037 A 
HETATM    5  C   UNK N   1      34.717  13.834  11.250  0.00  0.00     0.037 A 
HETATM    6  C   UNK N   1      35.413  14.779  12.014  0.00  0.00     0.068 A 
ENDROOT
BRANCH   1   7
HETATM    7  C   UNK N   1      34.244  15.717   7.999  0.00  0.00     0.063 C 
BRANCH   7   8
HETATM    8  C   UNK N   1      33.259  16.890   7.909  0.00  0.00     0.153 A 
HETATM    9  C   UNK N   1      33.171  17.438   6.508  0.00  0.00     0.239 A 
HETATM   10  N   UNK N   1      31.976  17.367   5.915  0.00  0.00    -0.287 N 
HETATM   11  O   UNK N   1      34.129  17.935   5.932  0.00  0.00    -0.272 OA
HETATM   12  C   UNK N   1      31.039  16.817   6.693  0.00  0.00     0.287 A 
HETATM   13  H   UNK N   1      31.803  17.687   5.000  0.00  0.00     0.172 HD
HETATM   14  S   UNK N   1      31.562  16.321   8.331  0.00  0.00    -0.054 SA
HETATM   15  O   UNK N   1      29.892  16.679   6.302  0.00  0.00    -0.260 OA
ENDBRANCH   7   8
ENDBRANCH   1   7
BRANCH   6  16
HETATM   16  O   UNK N   1      35.901  14.433  13.230  0.00  0.00    -0.350 OA
BRANCH  16  17
HETATM   17  C   UNK N   1      35.479  13.280  13.861  0.00  0.00     0.184 C 
BRANCH  17  18
HETATM   18  C   UNK N   1      36.009  13.151  15.283  0.00  0.00    -0.022 C 
HETATM   19  C   UNK N   1      34.860  13.222  16.309  0.00  0.00     0.011 C 
HETATM   20  C   UNK N   1      35.203  12.458  17.585  0.00  0.00     0.001 C 
HETATM   21  C   UNK N   1      35.432  10.966  17.285  0.00  0.00     0.000 C 
HETATM   22  C   UNK N   1      35.989  10.694  15.880  0.00  0.00     0.001 C 
HETATM   23  C   UNK N   1      36.840  11.865  15.406  0.00  0.00     0.011 C 
HETATM   24  C   UNK N   1      36.943  14.321  15.513  0.00  0.00     0.017 C 
ENDBRANCH  17  18
ENDBRANCH  16  17
ENDBRANCH   6  16
TORSDOF 5
ENDMDL
MODEL 5
REMARK VINA RESULT:      -6.8     23.140     26.940
REMARK  5 active torsions:
REMARK  status: ('A' for Active; 'I' for Inactive)
REMARK    1  A    between atoms: C_1  and  C_2 
REMARK    2  A    between atoms: C_2  and  C_3 
REMARK    3  A    between atoms: C_8  and  O_9 
REMARK    4  A    between atoms: O_9  and  C_10 
REMARK    5  A    between atoms: C_10  and  C_11 
ROOT
HETATM    1  C   UNK N   1      36.022  12.010  16.160  0.00  0.00    -0.056 A 
HETATM    2  C   UNK N   1      35.447  13.036  16.914  0.00  0.00     0.010 A 
HETATM    3  C   UNK N   1      36.214  10.745  16.729  0.00  0.00     0.010 A 
HETATM    4  C   UNK N   1      35.098  12.809  18.241  0.00  0.00     0.037 A 
HETATM    5  C   UNK N   1      35.861  10.516  18.064  0.00  0.00     0.037 A 
HETATM    6  C   UNK N   1      35.325  11.554  18.835  0.00  0.00     0.068 A 
ENDROOT
BRANCH   1   7
HETATM    7  C   UNK N   1      36.556  12.305  14.799  0.00  0.00     0.063 C 
BRANCH   7   8
HETATM    8  C   UNK N   1      35.650  13.332  14.106  0.00  0.00     0.153 A 
HETATM    9  C   UNK N   1      36.392  14.603  13.785  0.00  0.00     0.239 A 
HETATM   10  N   UNK N   1      36.483  14.928  12.492  0.00  0.00    -0.287 N 
HETATM   11  O   UNK N   1      36.882  15.318  14.647  0.00  0.00    -0.272 OA
HETATM   12  C   UNK N   1      35.875  14.050  11.688  0.00  0.00     0.287 A 
HETATM   13  H   UNK N   1      36.950  15.731  12.164  0.00  0.00     0.172 HD
HETATM   14  S   UNK N   1      35.069  12.670  12.492  0.00  0.00    -0.054 SA
HETATM   15  O   UNK N   1      35.864  14.201  10.479  0.00  0.00    -0.260 OA
ENDBRANCH   7   8
ENDBRANCH   1   7
BRANCH   6  16
HETATM   16  O   UNK N   1      35.064  11.350  20.149  0.00  0.00    -0.350 OA
BRANCH  16  17
HETATM   17  C   UNK N   1      35.560  10.242  20.807  0.00  0.00     0.184 C 
BRANCH  17  18
HETATM   18  C   UNK N   1      34.468   9.358  21.391  0.00  0.00    -0.022 C 
HETATM   19  C   UNK N   1      33.204  10.181  21.712  0.00  0.00     0.011 C 
HETATM   20  C   UNK N   1      31.945   9.321  21.640  0.00  0.00     0.001 C 
HETATM   21  C   UNK N   1      31.750   8.752  20.223  0.00  0.00     0.000 C 
HETATM   22  C   UNK N   1      33.064   8.513  19.465  0.00  0.00     0.001 C 
HETATM   23  C   UNK N   1      34.190   8.187  20.437  0.00  0.00     0.011 C 
HETATM   24  C   UNK N   1      35.013   8.776  22.679  0.00  0.00     0.017 C 
ENDBRANCH  17  18
ENDBRANCH  16  17
ENDBRANCH   6  16
TORSDOF 5
ENDMDL
MODEL 6
REMARK VINA RESULT:      -6.8      1.294      2.047
REMARK  5 active torsions:
REMARK  status: ('A' for Active; 'I' for Inactive)
REMARK    1  A    between atoms: C_1  and  C_2 
REMARK    2  A    between atoms: C_2  and  C_3 
REMARK    3  A    between atoms: C_8  and  O_9 
REMARK    4  A    between atoms: O_9  and  C_10 
REMARK    5  A    between atoms: C_10  and  C_11 
ROOT
HETATM    1  C   UNK N   1      29.559  22.484  -3.679  0.00  0.00    -0.056 A 
HETATM    2  C   UNK N   1      28.994  22.863  -2.459  0.00  0.00     0.010 A 
HETATM    3  C   UNK N   1      29.095  23.049  -4.873  0.00  0.00     0.010 A 
HETATM    4  C   UNK N   1      27.946  23.776  -2.436  0.00  0.00     0.037 A 
HETATM    5  C   UNK N   1      28.041  23.970  -4.849  0.00  0.00     0.037 A 
HETATM    6  C   UNK N   1      27.444  24.320  -3.632  0.00  0.00     0.068 A 
ENDROOT
BRANCH   1   7
HETATM    7  C   UNK N   1      30.558  21.377  -3.717  0.00  0.00     0.063 C 
BRANCH   7   8
HETATM    8  C   UNK N   1      31.962  21.961  -3.922  0.00  0.00     0.153 A 
HETATM    9  C   UNK N   1      32.981  21.284  -3.044  0.00  0.00     0.239 A 
HETATM   10  N   UNK N   1      33.974  20.644  -3.668  0.00  0.00    -0.287 N 
HETATM   11  O   UNK N   1      32.927  21.317  -1.822  0.00  0.00    -0.272 OA
HETATM   12  C   UNK N   1      33.892  20.726  -5.000  0.00  0.00     0.287 A 
HETATM   13  H   UNK N   1      34.691  20.160  -3.197  0.00  0.00     0.172 HD
HETATM   14  S   UNK N   1      32.518  21.670  -5.650  0.00  0.00    -0.054 SA
HETATM   15  O   UNK N   1      34.721  20.196  -5.719  0.00  0.00    -0.260 OA
ENDBRANCH   7   8
ENDBRANCH   1   7
BRANCH   6  16
HETATM   16  O   UNK N   1      26.370  25.147  -3.623  0.00  0.00    -0.350 OA
BRANCH  16  17
HETATM   17  C   UNK N   1      26.501  26.475  -3.269  0.00  0.00     0.184 C 
BRANCH  17  18
HETATM   18  C   UNK N   1      26.308  27.425  -4.443  0.00  0.00    -0.022 C 
HETATM   19  C   UNK N   1      27.599  27.540  -5.278  0.00  0.00     0.011 C 
HETATM   20  C   UNK N   1      27.293  27.884  -6.733  0.00  0.00     0.001 C 
HETATM   21  C   UNK N   1      26.444  26.782  -7.390  0.00  0.00     0.000 C 
HETATM   22  C   UNK N   1      25.516  26.048  -6.410  0.00  0.00     0.001 C 
HETATM   23  C   UNK N   1      25.099  26.973  -5.275  0.00  0.00     0.011 C 
HETATM   24  C   UNK N   1      25.979  28.784  -3.861  0.00  0.00     0.017 C 
ENDBRANCH  17  18
ENDBRANCH  16  17
ENDBRANCH   6  16
TORSDOF 5
ENDMDL
MODEL 7
REMARK VINA RESULT:      -6.8     24.173     27.815
REMARK  5 active torsions:
REMARK  status: ('A' for Active; 'I' for Inactive)
REMARK    1  A    between atoms: C_1  and  C_2 
REMARK    2  A    between atoms: C_2  and  C_3 
REMARK    3  A    between atoms: C_8  and  O_9 
REMARK    4  A    between atoms: O_9  and  C_10 
REMARK    5  A    between atoms: C_10  and  C_11 
ROOT
HETATM    1  C   UNK N   1      35.153  12.374  17.263  0.00  0.00    -0.056 A 
HETATM    2  C   UNK N   1      35.266  10.984  17.350  0.00  0.00     0.010 A 
HETATM    3  C   UNK N   1      35.103  13.147  18.428  0.00  0.00     0.010 A 
HETATM    4  C   UNK N   1      35.293  10.368  18.595  0.00  0.00     0.037 A 
HETATM    5  C   UNK N   1      35.132  12.527  19.683  0.00  0.00     0.037 A 
HETATM    6  C   UNK N   1      35.202  11.131  19.773  0.00  0.00     0.068 A 
ENDROOT
BRANCH   1   7
HETATM    7  C   UNK N   1      34.947  13.015  15.932  0.00  0.00     0.063 C 
BRANCH   7   8
HETATM    8  C   UNK N   1      35.425  12.064  14.827  0.00  0.00     0.153 A 
HETATM    9  C   UNK N   1      34.283  11.593  13.965  0.00  0.00     0.239 A 
HETATM   10  N   UNK N   1      34.339  11.920  12.670  0.00  0.00    -0.287 N 
HETATM   11  O   UNK N   1      33.350  10.935  14.405  0.00  0.00    -0.272 OA
HETATM   12  C   UNK N   1      35.434  12.618  12.356  0.00  0.00     0.287 A 
HETATM   13  H   UNK N   1      33.646  11.672  12.016  0.00  0.00     0.172 HD
HETATM   14  S   UNK N   1      36.576  12.944  13.694  0.00  0.00    -0.054 SA
HETATM   15  O   UNK N   1      35.639  12.994  11.214  0.00  0.00    -0.260 OA
ENDBRANCH   7   8
ENDBRANCH   1   7
BRANCH   6  16
HETATM   16  O   UNK N   1      35.144  10.532  20.988  0.00  0.00    -0.350 OA
BRANCH  16  17
HETATM   17  C   UNK N   1      34.713   9.226  21.113  0.00  0.00     0.184 C 
BRANCH  17  18
HETATM   18  C   UNK N   1      33.255   9.118  21.536  0.00  0.00    -0.022 C 
HETATM   19  C   UNK N   1      33.054   7.960  22.534  0.00  0.00     0.011 C 
HETATM   20  C   UNK N   1      31.868   8.220  23.459  0.00  0.00     0.001 C 
HETATM   21  C   UNK N   1      32.095   9.488  24.300  0.00  0.00     0.000 C 
HETATM   22  C   UNK N   1      32.957  10.550  23.600  0.00  0.00     0.001 C 
HETATM   23  C   UNK N   1      32.781  10.470  22.089  0.00  0.00     0.011 C 
HETATM   24  C   UNK N   1      32.452   8.830  20.285  0.00  0.00     0.017 C 
ENDBRANCH  17  18
ENDBRANCH  16  17
ENDBRANCH   6  16
TORSDOF 5
ENDMDL
MODEL 8
REMARK VINA RESULT:      -6.7     23.999     27.616
REMARK  5 active torsions:
REMARK  status: ('A' for Active; 'I' for Inactive)
REMARK    1  A    between atoms: C_1  and  C_2 
REMARK    2  A    between atoms: C_2  and  C_3 
REMARK    3  A    between atoms: C_8  and  O_9 
REMARK    4  A    between atoms: O_9  and  C_10 
REMARK    5  A    between atoms: C_10  and  C_11 
ROOT
HETATM    1  C   UNK N   1      35.744  11.211  16.739  0.00  0.00    -0.056 A 
HETATM    2  C   UNK N   1      35.743  11.778  18.016  0.00  0.00     0.010 A 
HETATM    3  C   UNK N   1      35.121   9.976  16.520  0.00  0.00     0.010 A 
HETATM    4  C   UNK N   1      35.154  11.097  19.075  0.00  0.00     0.037 A 
HETATM    5  C   UNK N   1      34.526   9.292  17.586  0.00  0.00     0.037 A 
HETATM    6  C   UNK N   1      34.561   9.837  18.875  0.00  0.00     0.068 A 
ENDROOT
BRANCH   1   7
HETATM    7  C   UNK N   1      36.527  11.856  15.646  0.00  0.00     0.063 C 
BRANCH   7   8
HETATM    8  C   UNK N   1      35.787  13.107  15.156  0.00  0.00     0.153 A 
HETATM    9  C   UNK N   1      36.729  14.262  14.935  0.00  0.00     0.239 A 
HETATM   10  N   UNK N   1      36.807  14.737  13.689  0.00  0.00    -0.287 N 
HETATM   11  O   UNK N   1      37.387  14.759  15.838  0.00  0.00    -0.272 OA
HETATM   12  C   UNK N   1      36.007  14.093  12.834  0.00  0.00     0.287 A 
HETATM   13  H   UNK N   1      37.394  15.483  13.427  0.00  0.00     0.172 HD
HETATM   14  S   UNK N   1      35.008  12.778  13.522  0.00  0.00    -0.054 SA
HETATM   15  O   UNK N   1      35.959  14.404  11.656  0.00  0.00    -0.260 OA
ENDBRANCH   7   8
ENDBRANCH   1   7
BRANCH   6  16
HETATM   16  O   UNK N   1      34.059   9.132  19.918  0.00  0.00    -0.350 OA
BRANCH  16  17
HETATM   17  C   UNK N   1      33.026   8.234  19.734  0.00  0.00     0.184 C 
BRANCH  17  18
HETATM   18  C   UNK N   1      31.981   8.294  20.839  0.00  0.00    -0.022 C 
HETATM   19  C   UNK N   1      32.368   7.376  22.016  0.00  0.00     0.011 C 
HETATM   20  C   UNK N   1      31.787   7.883  23.333  0.00  0.00     0.001 C 
HETATM   21  C   UNK N   1      32.331   9.282  23.671  0.00  0.00     0.000 C 
HETATM   22  C   UNK N   1      32.670  10.130  22.435  0.00  0.00     0.001 C 
HETATM   23  C   UNK N   1      31.770   9.754  21.266  0.00  0.00     0.011 C 
HETATM   24  C   UNK N   1      30.679   7.801  20.242  0.00  0.00     0.017 C 
ENDBRANCH  17  18
ENDBRANCH  16  17
ENDBRANCH   6  16
TORSDOF 5
ENDMDL
MODEL 9
REMARK VINA RESULT:      -6.5      1.480      2.579
REMARK  5 active torsions:
REMARK  status: ('A' for Active; 'I' for Inactive)
REMARK    1  A    between atoms: C_1  and  C_2 
REMARK    2  A    between atoms: C_2  and  C_3 
REMARK    3  A    between atoms: C_8  and  O_9 
REMARK    4  A    between atoms: O_9  and  C_10 
REMARK    5  A    between atoms: C_10  and  C_11 
ROOT
HETATM    1  C   UNK N   1      30.642  23.662  -5.046  0.00  0.00    -0.056 A 
HETATM    2  C   UNK N   1      29.921  24.098  -6.160  0.00  0.00     0.010 A 
HETATM    3  C   UNK N   1      30.790  24.500  -3.935  0.00  0.00     0.010 A 
HETATM    4  C   UNK N   1      29.380  25.379  -6.177  0.00  0.00     0.037 A 
HETATM    5  C   UNK N   1      30.244  25.789  -3.951  0.00  0.00     0.037 A 
HETATM    6  C   UNK N   1      29.557  26.245  -5.083  0.00  0.00     0.068 A 
ENDROOT
BRANCH   1   7
HETATM    7  C   UNK N   1      31.369  22.361  -5.102  0.00  0.00     0.063 C 
BRANCH   7   8
HETATM    8  C   UNK N   1      32.660  22.460  -4.278  0.00  0.00     0.153 A 
HETATM    9  C   UNK N   1      32.612  21.578  -3.058  0.00  0.00     0.239 A 
HETATM   10  N   UNK N   1      33.531  20.610  -2.987  0.00  0.00    -0.287 N 
HETATM   11  O   UNK N   1      31.792  21.730  -2.164  0.00  0.00    -0.272 OA
HETATM   12  C   UNK N   1      34.360  20.599  -4.035  0.00  0.00     0.287 A 
HETATM   13  H   UNK N   1      33.590  19.970  -2.241  0.00  0.00     0.172 HD
HETATM   14  S   UNK N   1      34.088  21.863  -5.271  0.00  0.00    -0.054 SA
HETATM   15  O   UNK N   1      35.257  19.778  -4.124  0.00  0.00    -0.260 OA
ENDBRANCH   7   8
ENDBRANCH   1   7
BRANCH   6  16
HETATM   16  O   UNK N   1      29.104  27.521  -5.126  0.00  0.00    -0.350 OA
BRANCH  16  17
HETATM   17  C   UNK N   1      28.377  28.051  -4.078  0.00  0.00     0.184 C 
BRANCH  17  18
HETATM   18  C   UNK N   1      26.872  27.954  -4.289  0.00  0.00    -0.022 C 
HETATM   19  C   UNK N   1      26.533  27.819  -5.787  0.00  0.00     0.011 C 
HETATM   20  C   UNK N   1      25.218  27.072  -5.996  0.00  0.00     0.001 C 
HETATM   21  C   UNK N   1      25.306  25.641  -5.436  0.00  0.00     0.000 C 
HETATM   22  C   UNK N   1      26.255  25.502  -4.236  0.00  0.00     0.001 C 
HETATM   23  C   UNK N   1      26.309  26.802  -3.444  0.00  0.00     0.011 C 
HETATM   24  C   UNK N   1      26.269  29.241  -3.765  0.00  0.00     0.017 C 
ENDBRANCH  17  18
ENDBRANCH  16  17
ENDBRANCH   6  16
TORSDOF 5
ENDMDL
