MODEL 1
REMARK VINA RESULT:      -6.1      0.000      0.000
REMARK  3 active torsions:
REMARK  status: ('A' for Active; 'I' for Inactive)
REMARK    1  A    between atoms: O_3  and  C_12 
REMARK    2  A    between atoms: O_3  and  C_13 
REMARK    3  A    between atoms: C_10  and  C_13 
ROOT
HETATM    1  F   UNK N   1      35.247   8.898  17.973  0.00  0.00    -0.206 F 
HETATM    2  C   UNK N   1      35.127  13.621  17.464  0.00  0.00     0.042 A 
HETATM    3  C   UNK N   1      35.077  12.324  16.763  0.00  0.00    -0.015 A 
HETATM    4  C   UNK N   1      35.293  13.214  18.938  0.00  0.00     0.009 A 
HETATM    5  C   UNK N   1      35.316  11.673  19.018  0.00  0.00     0.042 A 
HETATM    6  C   UNK N   1      35.180  11.261  17.608  0.00  0.00    -0.011 A 
HETATM    7  C   UNK N   1      34.940  12.148  15.387  0.00  0.00     0.075 A 
HETATM    8  C   UNK N   1      35.151   9.952  17.125  0.00  0.00     0.123 A 
HETATM    9  C   UNK N   1      34.914  10.838  14.868  0.00  0.00     0.040 A 
HETATM   10  C   UNK N   1      35.019   9.739  15.742  0.00  0.00     0.045 A 
ENDROOT
BRANCH   7  11
HETATM   11  O   UNK N   1      34.826  13.242  14.607  0.00  0.00    -0.348 OA
BRANCH  11  12
HETATM   12  C   UNK N   1      35.808  13.748  13.793  0.00  0.00     0.209 C 
BRANCH  12  13
HETATM   13  C   UNK N   1      35.137  14.224  12.516  0.00  0.00     0.173 C 
HETATM   14  O   UNK N   1      35.878  15.276  11.944  0.00  0.00    -0.380 OA
HETATM   15  C   UNK N   1      35.069  15.822  10.935  0.00  0.00     0.198 C 
HETATM   16  C   UNK N   1      34.944  14.801   9.805  0.00  0.00     0.295 C 
HETATM   17  N   UNK N   1      34.311  13.581  10.317  0.00  0.00     0.088 N 
HETATM   18  C   UNK N   1      35.020  13.090  11.502  0.00  0.00     0.303 C 
HETATM   19  H   UNK N   1      34.381  12.851   9.575  0.00  0.00     0.316 HD
ENDBRANCH  12  13
ENDBRANCH  11  12
ENDBRANCH   7  11
TORSDOF 3
ENDMDL
MODEL 2
REMARK VINA RESULT:      -6.1     13.895     15.126
REMARK  3 active torsions:
REMARK  status: ('A' for Active; 'I' for Inactive)
REMARK    1  A    between atoms: O_3  and  C_12 
REMARK    2  A    between atoms: O_3  and  C_13 
REMARK    3  A    between atoms: C_10  and  C_13 
ROOT
HETATM    1  F   UNK N   1      23.323  11.378  12.094  0.00  0.00    -0.206 F 
HETATM    2  C   UNK N   1      22.999  13.914   8.089  0.00  0.00     0.042 A 
HETATM    3  C   UNK N   1      22.260  13.374   9.245  0.00  0.00    -0.015 A 
HETATM    4  C   UNK N   1      24.435  13.417   8.330  0.00  0.00     0.009 A 
HETATM    5  C   UNK N   1      24.457  12.612   9.647  0.00  0.00     0.042 A 
HETATM    6  C   UNK N   1      23.052  12.664  10.096  0.00  0.00    -0.011 A 
HETATM    7  C   UNK N   1      20.898  13.542   9.491  0.00  0.00     0.075 A 
HETATM    8  C   UNK N   1      22.527  12.078  11.249  0.00  0.00     0.123 A 
HETATM    9  C   UNK N   1      20.337  12.957  10.643  0.00  0.00     0.040 A 
HETATM   10  C   UNK N   1      21.156  12.223  11.523  0.00  0.00     0.045 A 
ENDROOT
BRANCH   7  11
HETATM   11  O   UNK N   1      20.173  14.271   8.618  0.00  0.00    -0.348 OA
BRANCH  11  12
HETATM   12  C   UNK N   1      19.754  15.563   8.812  0.00  0.00     0.209 C 
BRANCH  12  13
HETATM   13  C   UNK N   1      19.984  16.314   7.512  0.00  0.00     0.173 C 
HETATM   14  O   UNK N   1      21.206  17.012   7.566  0.00  0.00    -0.380 OA
HETATM   15  C   UNK N   1      21.217  17.870   6.456  0.00  0.00     0.198 C 
HETATM   16  C   UNK N   1      21.331  17.024   5.187  0.00  0.00     0.295 C 
HETATM   17  N   UNK N   1      20.171  16.132   5.090  0.00  0.00     0.088 N 
HETATM   18  C   UNK N   1      20.011  15.356   6.324  0.00  0.00     0.303 C 
HETATM   19  H   UNK N   1      20.349  15.462   4.310  0.00  0.00     0.316 HD
ENDBRANCH  12  13
ENDBRANCH  11  12
ENDBRANCH   7  11
TORSDOF 3
ENDMDL
MODEL 3
REMARK VINA RESULT:      -6.0      1.410      2.713
REMARK  3 active torsions:
REMARK  status: ('A' for Active; 'I' for Inactive)
REMARK    1  A    between atoms: O_3  and  C_12 
REMARK    2  A    between atoms: O_3  and  C_13 
REMARK    3  A    between atoms: C_10  and  C_13 
ROOT
HETATM    1  F   UNK N   1      35.217  11.450  20.364  0.00  0.00    -0.206 F 
HETATM    2  C   UNK N   1      35.237  10.547  15.698  0.00  0.00     0.042 A 
HETATM    3  C   UNK N   1      35.224  11.602  16.729  0.00  0.00    -0.015 A 
HETATM    4  C   UNK N   1      35.236   9.250  16.527  0.00  0.00     0.009 A 
HETATM    5  C   UNK N   1      35.235   9.628  18.023  0.00  0.00     0.042 A 
HETATM    6  C   UNK N   1      35.222  11.104  17.997  0.00  0.00    -0.011 A 
HETATM    7  C   UNK N   1      35.213  12.974  16.489  0.00  0.00     0.075 A 
HETATM    8  C   UNK N   1      35.211  11.954  19.105  0.00  0.00     0.123 A 
HETATM    9  C   UNK N   1      35.195  13.858  17.586  0.00  0.00     0.040 A 
HETATM   10  C   UNK N   1      35.195  13.343  18.897  0.00  0.00     0.045 A 
ENDROOT
BRANCH   7  11
HETATM   11  O   UNK N   1      35.232  13.403  15.210  0.00  0.00    -0.348 OA
BRANCH  11  12
HETATM   12  C   UNK N   1      36.318  13.935  14.562  0.00  0.00     0.209 C 
BRANCH  12  13
HETATM   13  C   UNK N   1      36.071  13.793  13.071  0.00  0.00     0.173 C 
HETATM   14  O   UNK N   1      34.853  13.124  12.843  0.00  0.00    -0.380 OA
HETATM   15  C   UNK N   1      34.828  12.807  11.477  0.00  0.00     0.198 C 
HETATM   16  C   UNK N   1      34.692  14.104  10.678  0.00  0.00     0.295 C 
HETATM   17  N   UNK N   1      35.847  14.967  10.948  0.00  0.00     0.088 N 
HETATM   18  C   UNK N   1      36.022  15.159  12.390  0.00  0.00     0.303 C 
HETATM   19  H   UNK N   1      35.654  15.899  10.520  0.00  0.00     0.316 HD
ENDBRANCH  12  13
ENDBRANCH  11  12
ENDBRANCH   7  11
TORSDOF 3
ENDMDL
MODEL 4
REMARK VINA RESULT:      -5.9      7.122     10.082
REMARK  3 active torsions:
REMARK  status: ('A' for Active; 'I' for Inactive)
REMARK    1  A    between atoms: O_3  and  C_12 
REMARK    2  A    between atoms: O_3  and  C_13 
REMARK    3  A    between atoms: C_10  and  C_13 
ROOT
HETATM    1  F   UNK N   1      27.391  16.366   6.544  0.00  0.00    -0.206 F 
HETATM    2  C   UNK N   1      30.985  18.374   8.916  0.00  0.00     0.042 A 
HETATM    3  C   UNK N   1      30.606  17.588   7.727  0.00  0.00    -0.015 A 
HETATM    4  C   UNK N   1      29.642  18.589   9.634  0.00  0.00     0.009 A 
HETATM    5  C   UNK N   1      28.531  17.916   8.801  0.00  0.00     0.042 A 
HETATM    6  C   UNK N   1      29.269  17.337   7.662  0.00  0.00    -0.011 A 
HETATM    7  C   UNK N   1      31.480  17.126   6.744  0.00  0.00     0.075 A 
HETATM    8  C   UNK N   1      28.724  16.606   6.604  0.00  0.00     0.123 A 
HETATM    9  C   UNK N   1      30.961  16.380   5.668  0.00  0.00     0.040 A 
HETATM   10  C   UNK N   1      29.578  16.122   5.600  0.00  0.00     0.045 A 
ENDROOT
BRANCH   7  11
HETATM   11  O   UNK N   1      32.791  17.424   6.858  0.00  0.00    -0.348 OA
BRANCH  11  12
HETATM   12  C   UNK N   1      33.819  16.516   6.844  0.00  0.00     0.209 C 
BRANCH  12  13
HETATM   13  C   UNK N   1      34.143  16.175   8.288  0.00  0.00     0.173 C 
HETATM   14  O   UNK N   1      35.159  15.201   8.339  0.00  0.00    -0.380 OA
HETATM   15  C   UNK N   1      35.213  14.760   9.670  0.00  0.00     0.198 C 
HETATM   16  C   UNK N   1      35.747  15.898  10.540  0.00  0.00     0.295 C 
HETATM   17  N   UNK N   1      34.839  17.046  10.454  0.00  0.00     0.088 N 
HETATM   18  C   UNK N   1      34.602  17.412   9.054  0.00  0.00     0.303 C 
HETATM   19  H   UNK N   1      35.303  17.855  10.923  0.00  0.00     0.316 HD
ENDBRANCH  12  13
ENDBRANCH  11  12
ENDBRANCH   7  11
TORSDOF 3
ENDMDL
MODEL 5
REMARK VINA RESULT:      -5.7     13.203     14.440
REMARK  3 active torsions:
REMARK  status: ('A' for Active; 'I' for Inactive)
REMARK    1  A    between atoms: O_3  and  C_12 
REMARK    2  A    between atoms: O_3  and  C_13 
REMARK    3  A    between atoms: C_10  and  C_13 
ROOT
HETATM    1  F   UNK N   1      25.135  11.754  11.081  0.00  0.00    -0.206 F 
HETATM    2  C   UNK N   1      20.645  13.089  10.278  0.00  0.00     0.042 A 
HETATM    3  C   UNK N   1      22.035  13.148   9.785  0.00  0.00    -0.015 A 
HETATM    4  C   UNK N   1      20.769  12.261  11.569  0.00  0.00     0.009 A 
HETATM    5  C   UNK N   1      22.248  11.864  11.754  0.00  0.00     0.042 A 
HETATM    6  C   UNK N   1      22.910  12.481  10.588  0.00  0.00    -0.011 A 
HETATM    7  C   UNK N   1      22.461  13.800   8.630  0.00  0.00     0.075 A 
HETATM    8  C   UNK N   1      24.271  12.426  10.280  0.00  0.00     0.123 A 
HETATM    9  C   UNK N   1      23.830  13.769   8.297  0.00  0.00     0.040 A 
HETATM   10  C   UNK N   1      24.735  13.078   9.126  0.00  0.00     0.045 A 
ENDROOT
BRANCH   7  11
HETATM   11  O   UNK N   1      21.541  14.428   7.870  0.00  0.00    -0.348 OA
BRANCH  11  12
HETATM   12  C   UNK N   1      21.370  14.257   6.519  0.00  0.00     0.209 C 
BRANCH  12  13
HETATM   13  C   UNK N   1      21.543  15.616   5.865  0.00  0.00     0.173 C 
HETATM   14  O   UNK N   1      21.550  16.628   6.844  0.00  0.00    -0.380 OA
HETATM   15  C   UNK N   1      21.451  17.845   6.153  0.00  0.00     0.198 C 
HETATM   16  C   UNK N   1      22.749  18.072   5.378  0.00  0.00     0.295 C 
HETATM   17  N   UNK N   1      22.937  16.987   4.411  0.00  0.00     0.088 N 
HETATM   18  C   UNK N   1      22.847  15.683   5.074  0.00  0.00     0.303 C 
HETATM   19  H   UNK N   1      23.897  17.079   4.011  0.00  0.00     0.316 HD
ENDBRANCH  12  13
ENDBRANCH  11  12
ENDBRANCH   7  11
TORSDOF 3
ENDMDL
MODEL 6
REMARK VINA RESULT:      -5.6     21.270     23.630
REMARK  3 active torsions:
REMARK  status: ('A' for Active; 'I' for Inactive)
REMARK    1  A    between atoms: O_3  and  C_12 
REMARK    2  A    between atoms: O_3  and  C_13 
REMARK    3  A    between atoms: C_10  and  C_13 
ROOT
HETATM    1  F   UNK N   1      31.994  19.971  -4.191  0.00  0.00    -0.206 F 
HETATM    2  C   UNK N   1      28.585  22.550  -6.266  0.00  0.00     0.042 A 
HETATM    3  C   UNK N   1      29.420  22.390  -5.061  0.00  0.00    -0.015 A 
HETATM    4  C   UNK N   1      29.041  21.387  -7.164  0.00  0.00     0.009 A 
HETATM    5  C   UNK N   1      30.148  20.607  -6.424  0.00  0.00     0.042 A 
HETATM    6  C   UNK N   1      30.273  21.331  -5.144  0.00  0.00    -0.011 A 
HETATM    7  C   UNK N   1      29.382  23.204  -3.930  0.00  0.00     0.075 A 
HETATM    8  C   UNK N   1      31.144  21.023  -4.097  0.00  0.00     0.123 A 
HETATM    9  C   UNK N   1      30.244  22.914  -2.854  0.00  0.00     0.040 A 
HETATM   10  C   UNK N   1      31.127  21.821  -2.941  0.00  0.00     0.045 A 
ENDROOT
BRANCH   7  11
HETATM   11  O   UNK N   1      28.527  24.246  -3.917  0.00  0.00    -0.348 OA
BRANCH  11  12
HETATM   12  C   UNK N   1      27.333  24.291  -3.241  0.00  0.00     0.209 C 
BRANCH  12  13
HETATM   13  C   UNK N   1      26.477  25.356  -3.904  0.00  0.00     0.173 C 
HETATM   14  O   UNK N   1      27.264  26.476  -4.229  0.00  0.00    -0.380 OA
HETATM   15  C   UNK N   1      26.369  27.495  -4.589  0.00  0.00     0.198 C 
HETATM   16  C   UNK N   1      25.703  27.114  -5.911  0.00  0.00     0.295 C 
HETATM   17  N   UNK N   1      24.959  25.862  -5.741  0.00  0.00     0.088 N 
HETATM   18  C   UNK N   1      25.823  24.821  -5.175  0.00  0.00     0.303 C 
HETATM   19  H   UNK N   1      24.650  25.544  -6.685  0.00  0.00     0.316 HD
ENDBRANCH  12  13
ENDBRANCH  11  12
ENDBRANCH   7  11
TORSDOF 3
ENDMDL
MODEL 7
REMARK VINA RESULT:      -5.6      4.931      7.853
REMARK  3 active torsions:
REMARK  status: ('A' for Active; 'I' for Inactive)
REMARK    1  A    between atoms: O_3  and  C_12 
REMARK    2  A    between atoms: O_3  and  C_13 
REMARK    3  A    between atoms: C_10  and  C_13 
ROOT
HETATM    1  F   UNK N   1      35.749  11.602  14.312  0.00  0.00    -0.206 F 
HETATM    2  C   UNK N   1      35.143  12.738  18.886  0.00  0.00     0.042 A 
HETATM    3  C   UNK N   1      35.196  11.636  17.907  0.00  0.00    -0.015 A 
HETATM    4  C   UNK N   1      35.376  13.987  18.018  0.00  0.00     0.009 A 
HETATM    5  C   UNK N   1      35.569  13.534  16.555  0.00  0.00     0.042 A 
HETATM    6  C   UNK N   1      35.427  12.067  16.636  0.00  0.00    -0.011 A 
HETATM    7  C   UNK N   1      35.033  10.283  18.196  0.00  0.00     0.075 A 
HETATM    8  C   UNK N   1      35.512  11.165  15.574  0.00  0.00     0.123 A 
HETATM    9  C   UNK N   1      35.106   9.348  17.144  0.00  0.00     0.040 A 
HETATM   10  C   UNK N   1      35.347   9.794  15.830  0.00  0.00     0.045 A 
ENDROOT
BRANCH   7  11
HETATM   11  O   UNK N   1      34.823   9.920  19.478  0.00  0.00    -0.348 OA
BRANCH  11  12
HETATM   12  C   UNK N   1      34.037   8.875  19.894  0.00  0.00     0.209 C 
BRANCH  12  13
HETATM   13  C   UNK N   1      33.186   9.378  21.046  0.00  0.00     0.173 C 
HETATM   14  O   UNK N   1      33.125   8.407  22.063  0.00  0.00    -0.380 OA
HETATM   15  C   UNK N   1      32.128   8.834  22.954  0.00  0.00     0.198 C 
HETATM   16  C   UNK N   1      32.620  10.091  23.671  0.00  0.00     0.295 C 
HETATM   17  N   UNK N   1      32.867  11.149  22.688  0.00  0.00     0.088 N 
HETATM   18  C   UNK N   1      33.756  10.670  21.625  0.00  0.00     0.303 C 
HETATM   19  H   UNK N   1      33.347  11.935  23.179  0.00  0.00     0.316 HD
ENDBRANCH  12  13
ENDBRANCH  11  12
ENDBRANCH   7  11
TORSDOF 3
ENDMDL
MODEL 8
REMARK VINA RESULT:      -5.5     14.707     17.633
REMARK  3 active torsions:
REMARK  status: ('A' for Active; 'I' for Inactive)
REMARK    1  A    between atoms: O_3  and  C_12 
REMARK    2  A    between atoms: O_3  and  C_13 
REMARK    3  A    between atoms: C_10  and  C_13 
ROOT
HETATM    1  F   UNK N   1      19.254  17.789   2.959  0.00  0.00    -0.206 F 
HETATM    2  C   UNK N   1      23.491  18.190   5.072  0.00  0.00     0.042 A 
HETATM    3  C   UNK N   1      22.573  18.772   4.074  0.00  0.00    -0.015 A 
HETATM    4  C   UNK N   1      22.711  16.969   5.592  0.00  0.00     0.009 A 
HETATM    5  C   UNK N   1      21.352  16.914   4.864  0.00  0.00     0.042 A 
HETATM    6  C   UNK N   1      21.407  18.078   3.959  0.00  0.00    -0.011 A 
HETATM    7  C   UNK N   1      22.822  19.907   3.305  0.00  0.00     0.075 A 
HETATM    8  C   UNK N   1      20.415  18.481   3.063  0.00  0.00     0.123 A 
HETATM    9  C   UNK N   1      21.843  20.335   2.387  0.00  0.00     0.040 A 
HETATM   10  C   UNK N   1      20.636  19.619   2.268  0.00  0.00     0.045 A 
ENDROOT
BRANCH   7  11
HETATM   11  O   UNK N   1      23.990  20.559   3.480  0.00  0.00    -0.348 OA
BRANCH  11  12
HETATM   12  C   UNK N   1      25.085  20.468   2.658  0.00  0.00     0.209 C 
BRANCH  12  13
HETATM   13  C   UNK N   1      26.315  20.414   3.547  0.00  0.00     0.173 C 
HETATM   14  O   UNK N   1      25.977  20.779   4.864  0.00  0.00    -0.380 OA
HETATM   15  C   UNK N   1      27.190  20.955   5.547  0.00  0.00     0.198 C 
HETATM   16  C   UNK N   1      27.864  19.591   5.702  0.00  0.00     0.295 C 
HETATM   17  N   UNK N   1      28.139  19.029   4.376  0.00  0.00     0.088 N 
HETATM   18  C   UNK N   1      26.922  19.014   3.559  0.00  0.00     0.303 C 
HETATM   19  H   UNK N   1      28.451  18.042   4.507  0.00  0.00     0.316 HD
ENDBRANCH  12  13
ENDBRANCH  11  12
ENDBRANCH   7  11
TORSDOF 3
ENDMDL
MODEL 9
REMARK VINA RESULT:      -5.5     17.500     19.677
REMARK  3 active torsions:
REMARK  status: ('A' for Active; 'I' for Inactive)
REMARK    1  A    between atoms: O_3  and  C_12 
REMARK    2  A    between atoms: O_3  and  C_13 
REMARK    3  A    between atoms: C_10  and  C_13 
ROOT
HETATM    1  F   UNK N   1      20.052  17.016   0.074  0.00  0.00    -0.206 F 
HETATM    2  C   UNK N   1      20.969  20.193   3.485  0.00  0.00     0.042 A 
HETATM    3  C   UNK N   1      20.707  18.772   3.191  0.00  0.00    -0.015 A 
HETATM    4  C   UNK N   1      20.894  20.856   2.099  0.00  0.00     0.009 A 
HETATM    5  C   UNK N   1      20.600  19.762   1.051  0.00  0.00     0.042 A 
HETATM    6  C   UNK N   1      20.506  18.534   1.865  0.00  0.00    -0.011 A 
HETATM    7  C   UNK N   1      20.660  17.742   4.128  0.00  0.00     0.075 A 
HETATM    8  C   UNK N   1      20.244  17.245   1.396  0.00  0.00     0.123 A 
HETATM    9  C   UNK N   1      20.391  16.431   3.687  0.00  0.00     0.040 A 
HETATM   10  C   UNK N   1      20.184  16.185   2.316  0.00  0.00     0.045 A 
ENDROOT
BRANCH   7  11
HETATM   11  O   UNK N   1      20.885  18.042   5.424  0.00  0.00    -0.348 OA
BRANCH  11  12
HETATM   12  C   UNK N   1      21.543  17.243   6.326  0.00  0.00     0.209 C 
BRANCH  12  13
HETATM   13  C   UNK N   1      20.761  17.289   7.627  0.00  0.00     0.173 C 
HETATM   14  O   UNK N   1      20.324  18.602   7.883  0.00  0.00    -0.380 OA
HETATM   15  C   UNK N   1      19.848  18.607   9.203  0.00  0.00     0.198 C 
HETATM   16  C   UNK N   1      18.568  17.773   9.263  0.00  0.00     0.295 C 
HETATM   17  N   UNK N   1      18.865  16.393   8.867  0.00  0.00     0.088 N 
HETATM   18  C   UNK N   1      19.548  16.364   7.570  0.00  0.00     0.303 C 
HETATM   19  H   UNK N   1      17.958  15.889   8.764  0.00  0.00     0.316 HD
ENDBRANCH  12  13
ENDBRANCH  11  12
ENDBRANCH   7  11
TORSDOF 3
ENDMDL
