REMARK  9 active torsions:
REMARK  status: ('A' for Active; 'I' for Inactive)
REMARK    1  A    between atoms: C_1  and  C_2 
REMARK    2  A    between atoms: C_3  and  C_8 
REMARK    3  A    between atoms: C_8  and  O_13 
REMARK    4  A    between atoms: C_10  and  O_16 
REMARK    5  A    between atoms: C_15  and  O_19 
REMARK    6  A    between atoms: C_18  and  C_22 
REMARK    7  A    between atoms: C_24  and  O_27 
REMARK    8  A    between atoms: C_31  and  O_34 
REMARK    9  A    between atoms: C_32  and  O_35 
ROOT
HETATM    1  C   UNK N   1       2.967   1.108  -0.091  0.00  0.00     0.193 C 
HETATM    2  C   UNK N   1       3.181   2.664  -0.087  0.00  0.00     0.186 C 
HETATM    3  O   UNK N   1       1.951   0.795   0.780  0.00  0.00    -0.336 OA
HETATM    4  O   UNK N   1       1.948   3.336  -0.082  0.00  0.00    -0.338 OA
HETATM    5  C   UNK N   1       0.778   1.387   0.560  0.00  0.00     0.103 A 
HETATM    6  C   UNK N   1       0.757   2.694   0.080  0.00  0.00     0.102 A 
HETATM    7  C   UNK N   1      -0.377   0.657   0.665  0.00  0.00     0.049 A 
HETATM    8  C   UNK N   1      -0.464   3.287  -0.269  0.00  0.00     0.040 A 
HETATM    9  C   UNK N   1      -1.588   1.182   0.237  0.00  0.00    -0.023 A 
HETATM   10  C   UNK N   1      -1.646   2.518  -0.210  0.00  0.00     0.013 A 
ENDROOT
BRANCH   9  11
HETATM   11  C   UNK N   1      -2.753   0.237   0.225  0.00  0.00     0.198 C 
HETATM   12  O   UNK N   1      -3.934   0.831  -0.198  0.00  0.00    -0.337 OA
HETATM   13  C   UNK N   1      -5.072   0.089  -0.278  0.00  0.00     0.089 A 
HETATM   14  C   UNK N   1      -4.995  -1.320  -0.395  0.00  0.00     0.079 A 
HETATM   15  C   UNK N   1      -6.316   0.713  -0.189  0.00  0.00     0.074 A 
HETATM   16  C   UNK N   1      -6.173  -2.088  -0.356  0.00  0.00     0.085 A 
HETATM   17  C   UNK N   1      -3.652  -1.925  -0.540  0.00  0.00     0.196 C 
HETATM   18  C   UNK N   1      -7.410  -1.449  -0.242  0.00  0.00     0.074 A 
HETATM   19  C   UNK N   1      -7.482  -0.055  -0.174  0.00  0.00     0.071 A 
HETATM   20  C   UNK N   1      -2.480  -1.000  -0.667  0.00  0.00     0.227 C 
HETATM   21  O   UNK N   1      -3.491  -3.137  -0.554  0.00  0.00    -0.289 OA
BRANCH  16  22
HETATM   22  O   UNK N   1      -6.128  -3.430  -0.420  0.00  0.00    -0.360 OA
HETATM   23  H   UNK N   1      -6.923  -3.925  -0.464  0.00  0.00     0.217 HD
ENDBRANCH  16  22
BRANCH  19  24
HETATM   24  O   UNK N   1      -8.677   0.547  -0.075  0.00  0.00    -0.361 OA
HETATM   25  H   UNK N   1      -8.730   1.480  -0.006  0.00  0.00     0.217 HD
ENDBRANCH  19  24
BRANCH  20  26
HETATM   26  O   UNK N   1      -1.302  -1.679  -0.333  0.00  0.00    -0.385 OA
HETATM   27  H   UNK N   1      -1.301  -2.621  -0.101  0.00  0.00     0.210 HD
ENDBRANCH  20  26
ENDBRANCH   9  11
BRANCH   1  28
HETATM   28  C   UNK N   1       4.108   0.158   0.140  0.00  0.00    -0.024 A 
HETATM   29  C   UNK N   1       5.420   0.584   0.350  0.00  0.00     0.049 A 
HETATM   30  C   UNK N   1       6.467  -0.339   0.452  0.00  0.00     0.101 A 
HETATM   31  C   UNK N   1       6.175  -1.728   0.374  0.00  0.00     0.099 A 
HETATM   32  C   UNK N   1       4.858  -2.150   0.196  0.00  0.00     0.040 A 
HETATM   33  C   UNK N   1       3.836  -1.216   0.069  0.00  0.00     0.013 A 
BRANCH  30  34
HETATM   34  O   UNK N   1       7.723   0.153   0.602  0.00  0.00    -0.353 OA
HETATM   35  C   UNK N   1       8.875  -0.599   0.599  0.00  0.00     0.210 C 
ENDBRANCH  30  34
BRANCH  31  36
HETATM   36  O   UNK N   1       7.140  -2.658   0.463  0.00  0.00    -0.358 OA
HETATM   37  H   UNK N   1       6.915  -3.565   0.526  0.00  0.00     0.217 HD
ENDBRANCH  31  36
ENDBRANCH   1  28
BRANCH   2  38
HETATM   38  C   UNK N   1       3.912   3.126  -1.349  0.00  0.00     0.199 C 
BRANCH  38  39
HETATM   39  O   UNK N   1       5.236   2.700  -1.385  0.00  0.00    -0.398 OA
HETATM   40  H   UNK N   1       5.441   1.752  -1.409  0.00  0.00     0.209 HD
ENDBRANCH  38  39
ENDBRANCH   2  38
TORSDOF 9
